MODEL 1
REMARK VINA RESULT:      -9.1      0.000      0.000
REMARK  Name = 
REMARK  6 active torsions:
REMARK  status: ('A' for Active; 'I' for Inactive)
REMARK    1  A    between atoms: C_1  and  O_2
REMARK    2  A    between atoms: O_2  and  C_3
REMARK    3  A    between atoms: C_8  and  C_9
REMARK    4  A    between atoms: C_12  and  C_13
REMARK    5  A    between atoms: C_17  and  C_18
REMARK    6  A    between atoms: C_18  and  N_19
REMARK                            x       y       z     vdW  Elec       q    Type
REMARK                         _______ _______ _______ _____ _____    ______ ____
ROOT
ATOM      1  C   UNL     1       1.157   9.360  19.606  0.00  0.00    +0.000 A 
ATOM      2  C   UNL     1       1.060   9.860  18.328  0.00  0.00    +0.000 A 
ATOM      3  N   UNL     1       1.828   9.036  17.553  0.00  0.00    +0.000 N 
ATOM      4  C   UNL     1       2.374   8.059  18.355  0.00  0.00    +0.000 A 
ATOM      5  N   UNL     1       2.017   8.282  19.613  0.00  0.00    +0.000 NA
ATOM      6  H   UNL     1       1.945   9.110  16.554  0.00  0.00    +0.000 HD
ENDROOT
BRANCH   1  12
ATOM      7  C   UNL     1      -0.376  11.724  22.149  0.00  0.00    +0.000 A 
ATOM      8  C   UNL     1      -0.910  10.816  23.063  0.00  0.00    +0.000 A 
ATOM      9  C   UNL     1      -0.783   9.446  22.844  0.00  0.00    +0.000 A 
ATOM     10  C   UNL     1      -0.118   8.980  21.712  0.00  0.00    +0.000 A 
ATOM     11  F   UNL     1      -0.013   7.650  21.566  0.00  0.00    +0.000 F 
ATOM     12  C   UNL     1       0.440   9.859  20.774  0.00  0.00    +0.000 A 
ATOM     13  C   UNL     1       0.306  11.242  21.012  0.00  0.00    +0.000 A 
BRANCH   7  15
ATOM     14  C   UNL     1      -1.302  13.602  23.282  0.00  0.00    +0.000 C 
ATOM     15  O   UNL     1      -0.453  13.087  22.259  0.00  0.00    +0.000 OA
ENDBRANCH   7  15
ENDBRANCH   1  12
BRANCH   4  16
ATOM     16  C   UNL     1       3.174   6.923  17.863  0.00  0.00    +0.000 A 
ATOM     17  C   UNL     1       4.434   7.073  17.267  0.00  0.00    +0.000 A 
ATOM     18  C   UNL     1       5.108   5.964  16.736  0.00  0.00    +0.000 A 
ATOM     19  C   UNL     1       4.536   4.688  16.799  0.00  0.00    +0.000 A 
ATOM     20  C   UNL     1       3.297   4.496  17.423  0.00  0.00    +0.000 A 
ATOM     21  C   UNL     1       2.631   5.629  17.935  0.00  0.00    +0.000 A 
BRANCH  20  22
ATOM     22  C   UNL     1       2.569   3.162  17.444  0.00  0.00    +0.000 C 
BRANCH  22  23
ATOM     23  N   UNL     1       2.792   2.291  18.614  0.00  0.00    +0.000 NA
ATOM     24  C   UNL     1       3.604   2.897  19.680  0.00  0.00    +0.000 C 
ATOM     25  C   UNL     1       2.909   4.017  20.455  0.00  0.00    +0.000 C 
ATOM     26  C   UNL     1       1.540   3.594  20.965  0.00  0.00    +0.000 C 
ATOM     27  F   UNL     1       1.718   2.754  22.025  0.00  0.00    +0.000 F 
ATOM     28  C   UNL     1       0.708   2.871  19.919  0.00  0.00    +0.000 C 
ATOM     29  C   UNL     1       1.522   1.805  19.182  0.00  0.00    +0.000 C 
ENDBRANCH  22  23
ENDBRANCH  20  22
ENDBRANCH   4  16
TORSDOF 5
ENDMDL
MODEL 2
REMARK VINA RESULT:      -8.7      2.495      4.097
REMARK  Name = 
REMARK  6 active torsions:
REMARK  status: ('A' for Active; 'I' for Inactive)
REMARK    1  A    between atoms: C_1  and  O_2
REMARK    2  A    between atoms: O_2  and  C_3
REMARK    3  A    between atoms: C_8  and  C_9
REMARK    4  A    between atoms: C_12  and  C_13
REMARK    5  A    between atoms: C_17  and  C_18
REMARK    6  A    between atoms: C_18  and  N_19
REMARK                            x       y       z     vdW  Elec       q    Type
REMARK                         _______ _______ _______ _____ _____    ______ ____
ROOT
ATOM      1  C   UNL     1      -0.935  10.990  22.485  0.00  0.00    +0.000 A 
ATOM      2  C   UNL     1      -0.504   9.951  23.277  0.00  0.00    +0.000 A 
ATOM      3  N   UNL     1       0.252   9.157  22.461  0.00  0.00    +0.000 N 
ATOM      4  C   UNL     1       0.274   9.714  21.201  0.00  0.00    +0.000 A 
ATOM      5  N   UNL     1      -0.492  10.797  21.193  0.00  0.00    +0.000 NA
ATOM      6  H   UNL     1       0.742   8.322  22.743  0.00  0.00    +0.000 HD
ENDROOT
BRANCH   1  12
ATOM      7  C   UNL     1      -3.808  13.125  23.748  0.00  0.00    +0.000 A 
ATOM      8  C   UNL     1      -3.213  14.386  23.760  0.00  0.00    +0.000 A 
ATOM      9  C   UNL     1      -1.882  14.535  23.374  0.00  0.00    +0.000 A 
ATOM     10  C   UNL     1      -1.145  13.424  22.970  0.00  0.00    +0.000 A 
ATOM     11  F   UNL     1       0.126  13.636  22.593  0.00  0.00    +0.000 F 
ATOM     12  C   UNL     1      -1.709  12.142  22.935  0.00  0.00    +0.000 A 
ATOM     13  C   UNL     1      -3.056  12.008  23.326  0.00  0.00    +0.000 A 
BRANCH   7  15
ATOM     14  C   UNL     1      -6.083  13.824  23.742  0.00  0.00    +0.000 C 
ATOM     15  O   UNL     1      -5.100  12.862  24.117  0.00  0.00    +0.000 OA
ENDBRANCH   7  15
ENDBRANCH   1  12
BRANCH   4  16
ATOM     16  C   UNL     1       1.075   9.203  20.075  0.00  0.00    +0.000 A 
ATOM     17  C   UNL     1       1.242   9.903  18.872  0.00  0.00    +0.000 A 
ATOM     18  C   UNL     1       1.940   9.325  17.802  0.00  0.00    +0.000 A 
ATOM     19  C   UNL     1       2.488   8.043  17.920  0.00  0.00    +0.000 A 
ATOM     20  C   UNL     1       2.374   7.331  19.121  0.00  0.00    +0.000 A 
ATOM     21  C   UNL     1       1.653   7.926  20.177  0.00  0.00    +0.000 A 
BRANCH  20  22
ATOM     22  C   UNL     1       2.853   5.899  19.293  0.00  0.00    +0.000 C 
BRANCH  22  23
ATOM     23  N   UNL     1       2.213   4.868  18.453  0.00  0.00    +0.000 NA
ATOM     24  C   UNL     1       3.078   4.314  17.401  0.00  0.00    +0.000 C 
ATOM     25  C   UNL     1       4.206   3.416  17.909  0.00  0.00    +0.000 C 
ATOM     26  C   UNL     1       3.696   2.330  18.844  0.00  0.00    +0.000 C 
ATOM     27  F   UNL     1       3.062   1.382  18.095  0.00  0.00    +0.000 F 
ATOM     28  C   UNL     1       2.717   2.848  19.885  0.00  0.00    +0.000 C 
ATOM     29  C   UNL     1       1.662   3.768  19.265  0.00  0.00    +0.000 C 
ENDBRANCH  22  23
ENDBRANCH  20  22
ENDBRANCH   4  16
TORSDOF 5
ENDMDL
MODEL 3
REMARK VINA RESULT:      -8.6      2.893      3.619
REMARK  Name = 
REMARK  6 active torsions:
REMARK  status: ('A' for Active; 'I' for Inactive)
REMARK    1  A    between atoms: C_1  and  O_2
REMARK    2  A    between atoms: O_2  and  C_3
REMARK    3  A    between atoms: C_8  and  C_9
REMARK    4  A    between atoms: C_12  and  C_13
REMARK    5  A    between atoms: C_17  and  C_18
REMARK    6  A    between atoms: C_18  and  N_19
REMARK                            x       y       z     vdW  Elec       q    Type
REMARK                         _______ _______ _______ _____ _____    ______ ____
ROOT
ATOM      1  C   UNL     1       0.023  10.128  18.179  0.00  0.00    +0.000 A 
ATOM      2  C   UNL     1       1.071  10.917  18.592  0.00  0.00    +0.000 A 
ATOM      3  N   UNL     1       2.177  10.115  18.540  0.00  0.00    +0.000 N 
ATOM      4  C   UNL     1       1.794   8.867  18.100  0.00  0.00    +0.000 A 
ATOM      5  N   UNL     1       0.479   8.850  17.933  0.00  0.00    +0.000 NA
ATOM      6  H   UNL     1       3.120  10.400  18.752  0.00  0.00    +0.000 HD
ENDROOT
BRANCH   1  12
ATOM      7  C   UNL     1      -3.388  10.711  16.619  0.00  0.00    +0.000 A 
ATOM      8  C   UNL     1      -4.003  11.474  17.610  0.00  0.00    +0.000 A 
ATOM      9  C   UNL     1      -3.317  11.783  18.783  0.00  0.00    +0.000 A 
ATOM     10  C   UNL     1      -2.011  11.333  18.964  0.00  0.00    +0.000 A 
ATOM     11  F   UNL     1      -1.397  11.678  20.107  0.00  0.00    +0.000 F 
ATOM     12  C   UNL     1      -1.354  10.571  17.989  0.00  0.00    +0.000 A 
ATOM     13  C   UNL     1      -2.061  10.270  16.808  0.00  0.00    +0.000 A 
BRANCH   7  15
ATOM     14  C   UNL     1      -3.097  10.101  14.336  0.00  0.00    +0.000 C 
ATOM     15  O   UNL     1      -3.971  10.340  15.436  0.00  0.00    +0.000 OA
ENDBRANCH   7  15
ENDBRANCH   1  12
BRANCH   4  16
ATOM     16  C   UNL     1       2.725   7.760  17.812  0.00  0.00    +0.000 A 
ATOM     17  C   UNL     1       4.022   7.957  17.319  0.00  0.00    +0.000 A 
ATOM     18  C   UNL     1       4.829   6.862  16.978  0.00  0.00    +0.000 A 
ATOM     19  C   UNL     1       4.355   5.555  17.132  0.00  0.00    +0.000 A 
ATOM     20  C   UNL     1       3.079   5.321  17.658  0.00  0.00    +0.000 A 
ATOM     21  C   UNL     1       2.279   6.438  17.979  0.00  0.00    +0.000 A 
BRANCH  20  22
ATOM     22  C   UNL     1       2.457   3.937  17.762  0.00  0.00    +0.000 C 
BRANCH  22  23
ATOM     23  N   UNL     1       3.024   3.017  18.766  0.00  0.00    +0.000 NA
ATOM     24  C   UNL     1       3.424   3.661  20.027  0.00  0.00    +0.000 C 
ATOM     25  C   UNL     1       2.260   4.137  20.898  0.00  0.00    +0.000 C 
ATOM     26  C   UNL     1       1.234   3.040  21.130  0.00  0.00    +0.000 C 
ATOM     27  F   UNL     1       1.751   2.151  22.027  0.00  0.00    +0.000 F 
ATOM     28  C   UNL     1       0.871   2.281  19.863  0.00  0.00    +0.000 C 
ATOM     29  C   UNL     1       2.113   1.896  19.056  0.00  0.00    +0.000 C 
ENDBRANCH  22  23
ENDBRANCH  20  22
ENDBRANCH   4  16
TORSDOF 5
ENDMDL
MODEL 4
REMARK VINA RESULT:      -8.6      3.066      4.620
REMARK  Name = 
REMARK  6 active torsions:
REMARK  status: ('A' for Active; 'I' for Inactive)
REMARK    1  A    between atoms: C_1  and  O_2
REMARK    2  A    between atoms: O_2  and  C_3
REMARK    3  A    between atoms: C_8  and  C_9
REMARK    4  A    between atoms: C_12  and  C_13
REMARK    5  A    between atoms: C_17  and  C_18
REMARK    6  A    between atoms: C_18  and  N_19
REMARK                            x       y       z     vdW  Elec       q    Type
REMARK                         _______ _______ _______ _____ _____    ______ ____
ROOT
ATOM      1  C   UNL     1       0.869   9.808  20.268  0.00  0.00    +0.000 A 
ATOM      2  C   UNL     1       1.030   9.626  21.622  0.00  0.00    +0.000 A 
ATOM      3  N   UNL     1       1.462   8.338  21.770  0.00  0.00    +0.000 N 
ATOM      4  C   UNL     1       1.559   7.760  20.523  0.00  0.00    +0.000 A 
ATOM      5  N   UNL     1       1.146   8.629  19.610  0.00  0.00    +0.000 NA
ATOM      6  H   UNL     1       1.705   7.896  22.643  0.00  0.00    +0.000 HD
ENDROOT
BRANCH   1  12
ATOM      7  C   UNL     1       0.991  13.392  19.025  0.00  0.00    +0.000 A 
ATOM      8  C   UNL     1      -0.245  13.491  18.386  0.00  0.00    +0.000 A 
ATOM      9  C   UNL     1      -1.103  12.394  18.349  0.00  0.00    +0.000 A 
ATOM     10  C   UNL     1      -0.729  11.196  18.955  0.00  0.00    +0.000 A 
ATOM     11  F   UNL     1      -1.606  10.182  18.901  0.00  0.00    +0.000 F 
ATOM     12  C   UNL     1       0.500  11.059  19.614  0.00  0.00    +0.000 A 
ATOM     13  C   UNL     1       1.355  12.178  19.646  0.00  0.00    +0.000 A 
BRANCH   7  15
ATOM     14  C   UNL     1       3.137  14.213  18.403  0.00  0.00    +0.000 C 
ATOM     15  O   UNL     1       1.914  14.400  19.111  0.00  0.00    +0.000 OA
ENDBRANCH   7  15
ENDBRANCH   1  12
BRANCH   4  16
ATOM     16  C   UNL     1       2.095   6.411  20.266  0.00  0.00    +0.000 A 
ATOM     17  C   UNL     1       1.437   5.237  20.656  0.00  0.00    +0.000 A 
ATOM     18  C   UNL     1       2.039   3.985  20.464  0.00  0.00    +0.000 A 
ATOM     19  C   UNL     1       3.304   3.888  19.874  0.00  0.00    +0.000 A 
ATOM     20  C   UNL     1       3.973   5.038  19.436  0.00  0.00    +0.000 A 
ATOM     21  C   UNL     1       3.354   6.287  19.654  0.00  0.00    +0.000 A 
BRANCH  20  22
ATOM     22  C   UNL     1       5.386   5.022  18.878  0.00  0.00    +0.000 C 
BRANCH  22  23
ATOM     23  N   UNL     1       5.665   5.901  17.725  0.00  0.00    +0.000 NA
ATOM     24  C   UNL     1       7.067   5.903  17.283  0.00  0.00    +0.000 C 
ATOM     25  C   UNL     1       7.525   4.612  16.604  0.00  0.00    +0.000 C 
ATOM     26  C   UNL     1       6.586   4.192  15.484  0.00  0.00    +0.000 C 
ATOM     27  F   UNL     1       6.794   5.017  14.417  0.00  0.00    +0.000 F 
ATOM     28  C   UNL     1       5.118   4.276  15.870  0.00  0.00    +0.000 C 
ATOM     29  C   UNL     1       4.791   5.592  16.579  0.00  0.00    +0.000 C 
ENDBRANCH  22  23
ENDBRANCH  20  22
ENDBRANCH   4  16
TORSDOF 5
ENDMDL
MODEL 5
REMARK VINA RESULT:      -8.5      1.326      1.587
REMARK  Name = 
REMARK  6 active torsions:
REMARK  status: ('A' for Active; 'I' for Inactive)
REMARK    1  A    between atoms: C_1  and  O_2
REMARK    2  A    between atoms: O_2  and  C_3
REMARK    3  A    between atoms: C_8  and  C_9
REMARK    4  A    between atoms: C_12  and  C_13
REMARK    5  A    between atoms: C_17  and  C_18
REMARK    6  A    between atoms: C_18  and  N_19
REMARK                            x       y       z     vdW  Elec       q    Type
REMARK                         _______ _______ _______ _____ _____    ______ ____
ROOT
ATOM      1  C   UNL     1       0.995   9.509  19.571  0.00  0.00    +0.000 A 
ATOM      2  C   UNL     1       0.722   9.898  18.279  0.00  0.00    +0.000 A 
ATOM      3  N   UNL     1       1.594   9.196  17.494  0.00  0.00    +0.000 N 
ATOM      4  C   UNL     1       2.374   8.400  18.303  0.00  0.00    +0.000 A 
ATOM      5  N   UNL     1       2.055   8.627  19.571  0.00  0.00    +0.000 NA
ATOM      6  H   UNL     1       1.634   9.228  16.487  0.00  0.00    +0.000 HD
ENDROOT
BRANCH   1  12
ATOM      7  C   UNL     1      -1.309  11.448  21.881  0.00  0.00    +0.000 A 
ATOM      8  C   UNL     1      -1.117  10.762  23.080  0.00  0.00    +0.000 A 
ATOM      9  C   UNL     1      -0.255   9.668  23.130  0.00  0.00    +0.000 A 
ATOM     10  C   UNL     1       0.421   9.261  21.982  0.00  0.00    +0.000 A 
ATOM     11  F   UNL     1       1.250   8.212  22.098  0.00  0.00    +0.000 F 
ATOM     12  C   UNL     1       0.262   9.928  20.760  0.00  0.00    +0.000 A 
ATOM     13  C   UNL     1      -0.610  11.034  20.727  0.00  0.00    +0.000 A 
BRANCH   7  15
ATOM     14  C   UNL     1      -2.677  12.727  20.411  0.00  0.00    +0.000 C 
ATOM     15  O   UNL     1      -2.138  12.525  21.716  0.00  0.00    +0.000 OA
ENDBRANCH   7  15
ENDBRANCH   1  12
BRANCH   4  16
ATOM     16  C   UNL     1       3.358   7.418  17.813  0.00  0.00    +0.000 A 
ATOM     17  C   UNL     1       4.114   7.605  16.648  0.00  0.00    +0.000 A 
ATOM     18  C   UNL     1       4.968   6.596  16.182  0.00  0.00    +0.000 A 
ATOM     19  C   UNL     1       5.085   5.387  16.878  0.00  0.00    +0.000 A 
ATOM     20  C   UNL     1       4.375   5.182  18.067  0.00  0.00    +0.000 A 
ATOM     21  C   UNL     1       3.510   6.206  18.507  0.00  0.00    +0.000 A 
BRANCH  20  22
ATOM     22  C   UNL     1       4.373   3.864  18.824  0.00  0.00    +0.000 C 
BRANCH  22  23
ATOM     23  N   UNL     1       3.672   2.728  18.196  0.00  0.00    +0.000 NA
ATOM     24  C   UNL     1       3.155   1.729  19.144  0.00  0.00    +0.000 C 
ATOM     25  C   UNL     1       1.964   2.199  19.981  0.00  0.00    +0.000 C 
ATOM     26  C   UNL     1       0.854   2.780  19.120  0.00  0.00    +0.000 C 
ATOM     27  F   UNL     1       0.213   1.751  18.494  0.00  0.00    +0.000 F 
ATOM     28  C   UNL     1       1.361   3.741  18.057  0.00  0.00    +0.000 C 
ATOM     29  C   UNL     1       2.578   3.180  17.317  0.00  0.00    +0.000 C 
ENDBRANCH  22  23
ENDBRANCH  20  22
ENDBRANCH   4  16
TORSDOF 5
ENDMDL
MODEL 6
REMARK VINA RESULT:      -8.5      3.561      9.183
REMARK  Name = 
REMARK  6 active torsions:
REMARK  status: ('A' for Active; 'I' for Inactive)
REMARK    1  A    between atoms: C_1  and  O_2
REMARK    2  A    between atoms: O_2  and  C_3
REMARK    3  A    between atoms: C_8  and  C_9
REMARK    4  A    between atoms: C_12  and  C_13
REMARK    5  A    between atoms: C_17  and  C_18
REMARK    6  A    between atoms: C_18  and  N_19
REMARK                            x       y       z     vdW  Elec       q    Type
REMARK                         _______ _______ _______ _____ _____    ______ ____
ROOT
ATOM      1  C   UNL     1       2.544   7.731  18.327  0.00  0.00    +0.000 A 
ATOM      2  C   UNL     1       2.154   8.834  17.602  0.00  0.00    +0.000 A 
ATOM      3  N   UNL     1       1.392   9.583  18.454  0.00  0.00    +0.000 N 
ATOM      4  C   UNL     1       1.329   8.939  19.670  0.00  0.00    +0.000 A 
ATOM      5  N   UNL     1       1.979   7.785  19.584  0.00  0.00    +0.000 NA
ATOM      6  H   UNL     1       0.977  10.476  18.240  0.00  0.00    +0.000 HD
ENDROOT
BRANCH   1  12
ATOM      7  C   UNL     1       5.628   5.960  17.004  0.00  0.00    +0.000 A 
ATOM      8  C   UNL     1       5.163   4.647  16.922  0.00  0.00    +0.000 A 
ATOM      9  C   UNL     1       3.860   4.342  17.310  0.00  0.00    +0.000 A 
ATOM     10  C   UNL     1       3.017   5.349  17.775  0.00  0.00    +0.000 A 
ATOM     11  F   UNL     1       1.768   4.995  18.115  0.00  0.00    +0.000 F 
ATOM     12  C   UNL     1       3.444   6.681  17.864  0.00  0.00    +0.000 A 
ATOM     13  C   UNL     1       4.763   6.974  17.465  0.00  0.00    +0.000 A 
BRANCH   7  15
ATOM     14  C   UNL     1       7.456   7.422  17.439  0.00  0.00    +0.000 C 
ATOM     15  O   UNL     1       6.890   6.369  16.662  0.00  0.00    +0.000 OA
ENDBRANCH   7  15
ENDBRANCH   1  12
BRANCH   4  16
ATOM     16  C   UNL     1       0.687   9.490  20.877  0.00  0.00    +0.000 A 
ATOM     17  C   UNL     1       0.843   8.931  22.153  0.00  0.00    +0.000 A 
ATOM     18  C   UNL     1       0.135   9.446  23.248  0.00  0.00    +0.000 A 
ATOM     19  C   UNL     1      -0.734  10.532  23.086  0.00  0.00    +0.000 A 
ATOM     20  C   UNL     1      -0.883  11.140  21.833  0.00  0.00    +0.000 A 
ATOM     21  C   UNL     1      -0.172  10.594  20.743  0.00  0.00    +0.000 A 
BRANCH  20  22
ATOM     22  C   UNL     1      -1.878  12.255  21.558  0.00  0.00    +0.000 C 
BRANCH  22  23
ATOM     23  N   UNL     1      -2.341  13.046  22.715  0.00  0.00    +0.000 NA
ATOM     24  C   UNL     1      -2.370  14.499  22.489  0.00  0.00    +0.000 C 
ATOM     25  C   UNL     1      -3.465  14.975  21.532  0.00  0.00    +0.000 C 
ATOM     26  C   UNL     1      -4.834  14.441  21.921  0.00  0.00    +0.000 C 
ATOM     27  F   UNL     1      -5.269  15.129  23.016  0.00  0.00    +0.000 F 
ATOM     28  C   UNL     1      -4.825  12.960  22.262  0.00  0.00    +0.000 C 
ATOM     29  C   UNL     1      -3.662  12.597  23.189  0.00  0.00    +0.000 C 
ENDBRANCH  22  23
ENDBRANCH  20  22
ENDBRANCH   4  16
TORSDOF 5
ENDMDL
MODEL 7
REMARK VINA RESULT:      -8.5      3.690      9.273
REMARK  Name = 
REMARK  6 active torsions:
REMARK  status: ('A' for Active; 'I' for Inactive)
REMARK    1  A    between atoms: C_1  and  O_2
REMARK    2  A    between atoms: O_2  and  C_3
REMARK    3  A    between atoms: C_8  and  C_9
REMARK    4  A    between atoms: C_12  and  C_13
REMARK    5  A    between atoms: C_17  and  C_18
REMARK    6  A    between atoms: C_18  and  N_19
REMARK                            x       y       z     vdW  Elec       q    Type
REMARK                         _______ _______ _______ _____ _____    ______ ____
ROOT
ATOM      1  C   UNL     1       2.507   7.045  18.711  0.00  0.00    +0.000 A 
ATOM      2  C   UNL     1       2.507   8.188  17.946  0.00  0.00    +0.000 A 
ATOM      3  N   UNL     1       1.822   9.118  18.677  0.00  0.00    +0.000 N 
ATOM      4  C   UNL     1       1.421   8.540  19.860  0.00  0.00    +0.000 A 
ATOM      5  N   UNL     1       1.784   7.264  19.864  0.00  0.00    +0.000 NA
ATOM      6  H   UNL     1       1.668  10.078  18.410  0.00  0.00    +0.000 HD
ENDROOT
BRANCH   1  12
ATOM      7  C   UNL     1       5.225   4.421  18.350  0.00  0.00    +0.000 A 
ATOM      8  C   UNL     1       4.525   3.404  17.701  0.00  0.00    +0.000 A 
ATOM      9  C   UNL     1       3.175   3.568  17.398  0.00  0.00    +0.000 A 
ATOM     10  C   UNL     1       2.523   4.752  17.739  0.00  0.00    +0.000 A 
ATOM     11  F   UNL     1       1.228   4.856  17.404  0.00  0.00    +0.000 F 
ATOM     12  C   UNL     1       3.193   5.800  18.384  0.00  0.00    +0.000 A 
ATOM     13  C   UNL     1       4.559   5.620  18.680  0.00  0.00    +0.000 A 
BRANCH   7  15
ATOM     14  C   UNL     1       7.497   4.712  17.702  0.00  0.00    +0.000 C 
ATOM     15  O   UNL     1       6.547   4.362  18.705  0.00  0.00    +0.000 OA
ENDBRANCH   7  15
ENDBRANCH   1  12
BRANCH   4  16
ATOM     16  C   UNL     1       0.749   9.259  20.957  0.00  0.00    +0.000 A 
ATOM     17  C   UNL     1       0.836   8.866  22.300  0.00  0.00    +0.000 A 
ATOM     18  C   UNL     1       0.102   9.537  23.288  0.00  0.00    +0.000 A 
ATOM     19  C   UNL     1      -0.726  10.614  22.951  0.00  0.00    +0.000 A 
ATOM     20  C   UNL     1      -0.807  11.058  21.625  0.00  0.00    +0.000 A 
ATOM     21  C   UNL     1      -0.071  10.358  20.646  0.00  0.00    +0.000 A 
BRANCH  20  22
ATOM     22  C   UNL     1      -1.756  12.153  21.166  0.00  0.00    +0.000 C 
BRANCH  22  23
ATOM     23  N   UNL     1      -2.634  12.755  22.188  0.00  0.00    +0.000 NA
ATOM     24  C   UNL     1      -2.279  14.131  22.564  0.00  0.00    +0.000 C 
ATOM     25  C   UNL     1      -2.557  15.181  21.487  0.00  0.00    +0.000 C 
ATOM     26  C   UNL     1      -3.981  15.094  20.960  0.00  0.00    +0.000 C 
ATOM     27  F   UNL     1      -4.821  15.609  21.905  0.00  0.00    +0.000 F 
ATOM     28  C   UNL     1      -4.422  13.672  20.656  0.00  0.00    +0.000 C 
ATOM     29  C   UNL     1      -4.052  12.708  21.785  0.00  0.00    +0.000 C 
ENDBRANCH  22  23
ENDBRANCH  20  22
ENDBRANCH   4  16
TORSDOF 5
ENDMDL
MODEL 8
REMARK VINA RESULT:      -8.5      2.065      2.643
REMARK  Name = 
REMARK  6 active torsions:
REMARK  status: ('A' for Active; 'I' for Inactive)
REMARK    1  A    between atoms: C_1  and  O_2
REMARK    2  A    between atoms: O_2  and  C_3
REMARK    3  A    between atoms: C_8  and  C_9
REMARK    4  A    between atoms: C_12  and  C_13
REMARK    5  A    between atoms: C_17  and  C_18
REMARK    6  A    between atoms: C_18  and  N_19
REMARK                            x       y       z     vdW  Elec       q    Type
REMARK                         _______ _______ _______ _____ _____    ______ ____
ROOT
ATOM      1  C   UNL     1       1.205   9.718  19.050  0.00  0.00    +0.000 A 
ATOM      2  C   UNL     1       1.220   9.051  20.253  0.00  0.00    +0.000 A 
ATOM      3  N   UNL     1       1.863   7.870  20.009  0.00  0.00    +0.000 N 
ATOM      4  C   UNL     1       2.229   7.833  18.682  0.00  0.00    +0.000 A 
ATOM      5  N   UNL     1       1.783   8.927  18.079  0.00  0.00    +0.000 NA
ATOM      6  H   UNL     1       2.069   7.160  20.696  0.00  0.00    +0.000 HD
ENDROOT
BRANCH   1  12
ATOM      7  C   UNL     1       1.044  13.497  18.732  0.00  0.00    +0.000 A 
ATOM      8  C   UNL     1      -0.309  13.679  18.448  0.00  0.00    +0.000 A 
ATOM      9  C   UNL     1      -1.157  12.578  18.346  0.00  0.00    +0.000 A 
ATOM     10  C   UNL     1      -0.655  11.292  18.534  0.00  0.00    +0.000 A 
ATOM     11  F   UNL     1      -1.525  10.275  18.441  0.00  0.00    +0.000 F 
ATOM     12  C   UNL     1       0.696  11.067  18.829  0.00  0.00    +0.000 A 
ATOM     13  C   UNL     1       1.540  12.191  18.932  0.00  0.00    +0.000 A 
BRANCH   7  15
ATOM     14  C   UNL     1       1.479  15.837  18.718  0.00  0.00    +0.000 C 
ATOM     15  O   UNL     1       1.966  14.503  18.843  0.00  0.00    +0.000 OA
ENDBRANCH   7  15
ENDBRANCH   1  12
BRANCH   4  16
ATOM     16  C   UNL     1       3.037   6.766  18.066  0.00  0.00    +0.000 A 
ATOM     17  C   UNL     1       4.273   6.999  17.448  0.00  0.00    +0.000 A 
ATOM     18  C   UNL     1       4.954   5.958  16.800  0.00  0.00    +0.000 A 
ATOM     19  C   UNL     1       4.414   4.668  16.767  0.00  0.00    +0.000 A 
ATOM     20  C   UNL     1       3.200   4.390  17.408  0.00  0.00    +0.000 A 
ATOM     21  C   UNL     1       2.526   5.457  18.040  0.00  0.00    +0.000 A 
BRANCH  20  22
ATOM     22  C   UNL     1       2.502   3.042  17.333  0.00  0.00    +0.000 C 
BRANCH  22  23
ATOM     23  N   UNL     1       2.839   2.050  18.372  0.00  0.00    +0.000 NA
ATOM     24  C   UNL     1       3.947   2.443  19.255  0.00  0.00    +0.000 C 
ATOM     25  C   UNL     1       3.620   3.577  20.227  0.00  0.00    +0.000 C 
ATOM     26  C   UNL     1       2.347   3.305  21.014  0.00  0.00    +0.000 C 
ATOM     27  F   UNL     1       2.620   2.359  21.959  0.00  0.00    +0.000 F 
ATOM     28  C   UNL     1       1.205   2.798  20.149  0.00  0.00    +0.000 C 
ATOM     29  C   UNL     1       1.664   1.697  19.190  0.00  0.00    +0.000 C 
ENDBRANCH  22  23
ENDBRANCH  20  22
ENDBRANCH   4  16
TORSDOF 5
ENDMDL
MODEL 9
REMARK VINA RESULT:      -8.4      3.711      9.040
REMARK  Name = 
REMARK  6 active torsions:
REMARK  status: ('A' for Active; 'I' for Inactive)
REMARK    1  A    between atoms: C_1  and  O_2
REMARK    2  A    between atoms: O_2  and  C_3
REMARK    3  A    between atoms: C_8  and  C_9
REMARK    4  A    between atoms: C_12  and  C_13
REMARK    5  A    between atoms: C_17  and  C_18
REMARK    6  A    between atoms: C_18  and  N_19
REMARK                            x       y       z     vdW  Elec       q    Type
REMARK                         _______ _______ _______ _____ _____    ______ ____
ROOT
ATOM      1  C   UNL     1       2.553   7.056  18.658  0.00  0.00    +0.000 A 
ATOM      2  C   UNL     1       2.522   8.154  17.829  0.00  0.00    +0.000 A 
ATOM      3  N   UNL     1       1.842   9.117  18.522  0.00  0.00    +0.000 N 
ATOM      4  C   UNL     1       1.475   8.602  19.746  0.00  0.00    +0.000 A 
ATOM      5  N   UNL     1       1.853   7.333  19.813  0.00  0.00    +0.000 NA
ATOM      6  H   UNL     1       1.671  10.058  18.205  0.00  0.00    +0.000 HD
ENDROOT
BRANCH   1  12
ATOM      7  C   UNL     1       5.291   4.441  18.393  0.00  0.00    +0.000 A 
ATOM      8  C   UNL     1       4.591   3.385  17.809  0.00  0.00    +0.000 A 
ATOM      9  C   UNL     1       3.235   3.521  17.518  0.00  0.00    +0.000 A 
ATOM     10  C   UNL     1       2.577   4.715  17.806  0.00  0.00    +0.000 A 
ATOM     11  F   UNL     1       1.276   4.790  17.486  0.00  0.00    +0.000 F 
ATOM     12  C   UNL     1       3.246   5.802  18.385  0.00  0.00    +0.000 A 
ATOM     13  C   UNL     1       4.618   5.650  18.670  0.00  0.00    +0.000 A 
BRANCH   7  15
ATOM     14  C   UNL     1       7.189   5.634  19.193  0.00  0.00    +0.000 C 
ATOM     15  O   UNL     1       6.618   4.412  18.731  0.00  0.00    +0.000 OA
ENDBRANCH   7  15
ENDBRANCH   1  12
BRANCH   4  16
ATOM     16  C   UNL     1       0.820   9.376  20.815  0.00  0.00    +0.000 A 
ATOM     17  C   UNL     1       0.617   8.877  22.110  0.00  0.00    +0.000 A 
ATOM     18  C   UNL     1      -0.093   9.626  23.059  0.00  0.00    +0.000 A 
ATOM     19  C   UNL     1      -0.605  10.886  22.732  0.00  0.00    +0.000 A 
ATOM     20  C   UNL     1      -0.388  11.432  21.461  0.00  0.00    +0.000 A 
ATOM     21  C   UNL     1       0.316  10.654  20.517  0.00  0.00    +0.000 A 
BRANCH  20  22
ATOM     22  C   UNL     1      -0.995  12.746  20.999  0.00  0.00    +0.000 C 
BRANCH  22  23
ATOM     23  N   UNL     1      -0.333  13.987  21.446  0.00  0.00    +0.000 NA
ATOM     24  C   UNL     1       1.132  13.977  21.320  0.00  0.00    +0.000 C 
ATOM     25  C   UNL     1       1.650  14.038  19.883  0.00  0.00    +0.000 C 
ATOM     26  C   UNL     1       1.029  15.183  19.099  0.00  0.00    +0.000 C 
ATOM     27  F   UNL     1       1.596  16.350  19.522  0.00  0.00    +0.000 F 
ATOM     28  C   UNL     1      -0.476  15.290  19.286  0.00  0.00    +0.000 C 
ATOM     29  C   UNL     1      -0.876  15.173  20.759  0.00  0.00    +0.000 C 
ENDBRANCH  22  23
ENDBRANCH  20  22
ENDBRANCH   4  16
TORSDOF 5
ENDMDL
