MODEL 1
REMARK VINA RESULT:      -6.9      0.000      0.000
REMARK  Name = 
REMARK  8 active torsions:
REMARK  status: ('A' for Active; 'I' for Inactive)
REMARK    1  A    between atoms: C_1  and  N_2
REMARK    2  A    between atoms: C_3  and  S_6
REMARK    3  A    between atoms: N_4  and  C_5
REMARK    4  A    between atoms: S_6  and  C_7
REMARK    5  A    between atoms: C_7  and  C_8
REMARK    6  A    between atoms: N_18  and  C_19
REMARK    7  A    between atoms: C_21  and  N_22
REMARK    8  A    between atoms: C_27  and  C_28
REMARK                            x       y       z     vdW  Elec       q    Type
REMARK                         _______ _______ _______ _____ _____    ______ ____
ROOT
ATOM      1  C   UNL     1       2.261   6.562  20.337  0.00  0.00    +0.000 A 
ATOM      2  N   UNL     1       1.486   7.481  20.833  0.00  0.00    +0.000 NA
ATOM      3  C   UNL     1       1.223   8.638  20.094  0.00  0.00    +0.000 A 
ATOM      4  C   UNL     1       0.343   9.591  20.615  0.00  0.00    +0.000 A 
ATOM      5  C   UNL     1       0.042  10.754  19.897  0.00  0.00    +0.000 A 
ATOM      6  C   UNL     1       0.622  10.979  18.651  0.00  0.00    +0.000 A 
ATOM      7  C   UNL     1       1.497  10.035  18.119  0.00  0.00    +0.000 A 
ATOM      8  C   UNL     1       1.778   8.868  18.843  0.00  0.00    +0.000 A 
ATOM      9  C   UNL     1       2.649   7.827  18.286  0.00  0.00    +0.000 A 
ATOM     10  O   UNL     1       3.141   8.002  17.172  0.00  0.00    +0.000 OA
ATOM     11  N   UNL     1       2.825   6.679  19.071  0.00  0.00    +0.000 N 
ENDROOT
BRANCH  11  12
ATOM     12  C   UNL     1       3.586   5.647  18.457  0.00  0.00    +0.000 A 
ATOM     13  C   UNL     1       4.980   5.687  18.604  0.00  0.00    +0.000 A 
ATOM     14  C   UNL     1       5.777   4.797  17.882  0.00  0.00    +0.000 A 
ATOM     15  C   UNL     1       5.199   3.866  17.012  0.00  0.00    +0.000 A 
ATOM     16  C   UNL     1       3.810   3.847  16.849  0.00  0.00    +0.000 A 
ATOM     17  C   UNL     1       2.991   4.746  17.550  0.00  0.00    +0.000 A 
ATOM     18  C   UNL     1       1.517   4.785  17.245  0.00  0.00    +0.000 C 
BRANCH  14  19
ATOM     19  N   UNL     1       7.236   4.862  18.018  0.00  0.00    +0.000 N 
ATOM     20  O   UNL     1       7.923   4.506  17.049  0.00  0.00    +0.000 OA
ATOM     21  O   UNL     1       7.697   5.272  19.093  0.00  0.00    +0.000 OA
ENDBRANCH  14  19
ENDBRANCH  11  12
BRANCH   1  22
ATOM     22  C   UNL     1       2.426   5.286  21.170  0.00  0.00    +0.000 C 
BRANCH  22  23
ATOM     23  S   UNL     1       1.199   3.985  20.891  0.00  0.00    +0.000 S 
BRANCH  23  26
ATOM     24  C   UNL     1       2.278   0.950  18.559  0.00  0.00    +0.000 C 
ATOM     25  N   UNL     1       1.621   2.087  19.168  0.00  0.00    +0.000 NA
ATOM     26  C   UNL     1       2.140   2.684  20.164  0.00  0.00    +0.000 C 
ATOM     27  N   UNL     1       3.321   2.548  20.844  0.00  0.00    +0.000 N 
ATOM     28  C   UNL     1       4.597   2.183  20.272  0.00  0.00    +0.000 C 
ATOM     29  H   UNL     1       3.422   3.292  21.529  0.00  0.00    +0.000 HD
ENDBRANCH  23  26
ENDBRANCH  22  23
ENDBRANCH   1  22
TORSDOF 5
ENDMDL
MODEL 2
REMARK VINA RESULT:      -6.7      5.719      8.558
REMARK  Name = 
REMARK  8 active torsions:
REMARK  status: ('A' for Active; 'I' for Inactive)
REMARK    1  A    between atoms: C_1  and  N_2
REMARK    2  A    between atoms: C_3  and  S_6
REMARK    3  A    between atoms: N_4  and  C_5
REMARK    4  A    between atoms: S_6  and  C_7
REMARK    5  A    between atoms: C_7  and  C_8
REMARK    6  A    between atoms: N_18  and  C_19
REMARK    7  A    between atoms: C_21  and  N_22
REMARK    8  A    between atoms: C_27  and  C_28
REMARK                            x       y       z     vdW  Elec       q    Type
REMARK                         _______ _______ _______ _____ _____    ______ ____
ROOT
ATOM      1  C   UNL     1      -0.872  13.266  19.627  0.00  0.00    +0.000 A 
ATOM      2  N   UNL     1      -0.826  14.371  18.942  0.00  0.00    +0.000 NA
ATOM      3  C   UNL     1       0.162  15.320  19.224  0.00  0.00    +0.000 A 
ATOM      4  C   UNL     1       0.235  16.477  18.444  0.00  0.00    +0.000 A 
ATOM      5  C   UNL     1       1.219  17.441  18.684  0.00  0.00    +0.000 A 
ATOM      6  C   UNL     1       2.140  17.262  19.715  0.00  0.00    +0.000 A 
ATOM      7  C   UNL     1       2.081  16.111  20.497  0.00  0.00    +0.000 A 
ATOM      8  C   UNL     1       1.097  15.147  20.235  0.00  0.00    +0.000 A 
ATOM      9  C   UNL     1       1.043  13.897  21.002  0.00  0.00    +0.000 A 
ATOM     10  O   UNL     1       1.872  13.715  21.893  0.00  0.00    +0.000 OA
ATOM     11  N   UNL     1       0.052  12.981  20.625  0.00  0.00    +0.000 N 
ENDROOT
BRANCH  11  12
ATOM     12  C   UNL     1       0.095  11.739  21.316  0.00  0.00    +0.000 A 
ATOM     13  C   UNL     1       0.760  10.669  20.698  0.00  0.00    +0.000 A 
ATOM     14  C   UNL     1       0.685   9.392  21.256  0.00  0.00    +0.000 A 
ATOM     15  C   UNL     1      -0.050   9.167  22.425  0.00  0.00    +0.000 A 
ATOM     16  C   UNL     1      -0.733  10.230  23.024  0.00  0.00    +0.000 A 
ATOM     17  C   UNL     1      -0.687  11.519  22.469  0.00  0.00    +0.000 A 
ATOM     18  C   UNL     1      -1.544  12.605  23.065  0.00  0.00    +0.000 C 
BRANCH  14  19
ATOM     19  N   UNL     1       1.358   8.272  20.590  0.00  0.00    +0.000 N 
ATOM     20  O   UNL     1       1.792   8.458  19.443  0.00  0.00    +0.000 OA
ATOM     21  O   UNL     1       1.458   7.206  21.214  0.00  0.00    +0.000 OA
ENDBRANCH  14  19
ENDBRANCH  11  12
BRANCH   1  22
ATOM     22  C   UNL     1      -1.926  12.241  19.196  0.00  0.00    +0.000 C 
BRANCH  22  23
ATOM     23  S   UNL     1      -1.393  11.010  17.981  0.00  0.00    +0.000 S 
BRANCH  23  26
ATOM     24  C   UNL     1      -3.490  10.316  14.674  0.00  0.00    +0.000 C 
ATOM     25  N   UNL     1      -2.528  10.297  15.755  0.00  0.00    +0.000 NA
ATOM     26  C   UNL     1      -2.683  11.035  16.780  0.00  0.00    +0.000 C 
ATOM     27  N   UNL     1      -3.667  11.891  17.194  0.00  0.00    +0.000 N 
ATOM     28  C   UNL     1      -5.087  11.729  16.973  0.00  0.00    +0.000 C 
ATOM     29  H   UNL     1      -3.475  12.222  18.135  0.00  0.00    +0.000 HD
ENDBRANCH  23  26
ENDBRANCH  22  23
ENDBRANCH   1  22
TORSDOF 5
ENDMDL
MODEL 3
REMARK VINA RESULT:      -6.5      2.607      5.758
REMARK  Name = 
REMARK  8 active torsions:
REMARK  status: ('A' for Active; 'I' for Inactive)
REMARK    1  A    between atoms: C_1  and  N_2
REMARK    2  A    between atoms: C_3  and  S_6
REMARK    3  A    between atoms: N_4  and  C_5
REMARK    4  A    between atoms: S_6  and  C_7
REMARK    5  A    between atoms: C_7  and  C_8
REMARK    6  A    between atoms: N_18  and  C_19
REMARK    7  A    between atoms: C_21  and  N_22
REMARK    8  A    between atoms: C_27  and  C_28
REMARK                            x       y       z     vdW  Elec       q    Type
REMARK                         _______ _______ _______ _____ _____    ______ ____
ROOT
ATOM      1  C   UNL     1       3.305   5.938  18.297  0.00  0.00    +0.000 A 
ATOM      2  N   UNL     1       2.407   5.769  19.223  0.00  0.00    +0.000 NA
ATOM      3  C   UNL     1       2.230   4.504  19.793  0.00  0.00    +0.000 A 
ATOM      4  C   UNL     1       1.303   4.350  20.827  0.00  0.00    +0.000 A 
ATOM      5  C   UNL     1       1.109   3.104  21.433  0.00  0.00    +0.000 A 
ATOM      6  C   UNL     1       1.838   1.996  21.008  0.00  0.00    +0.000 A 
ATOM      7  C   UNL     1       2.769   2.138  19.982  0.00  0.00    +0.000 A 
ATOM      8  C   UNL     1       2.962   3.395  19.393  0.00  0.00    +0.000 A 
ATOM      9  C   UNL     1       3.976   3.592  18.350  0.00  0.00    +0.000 A 
ATOM     10  O   UNL     1       4.647   2.626  17.990  0.00  0.00    +0.000 OA
ATOM     11  N   UNL     1       4.121   4.899  17.865  0.00  0.00    +0.000 N 
ENDROOT
BRANCH  11  12
ATOM     12  C   UNL     1       5.182   5.075  16.935  0.00  0.00    +0.000 A 
ATOM     13  C   UNL     1       4.987   4.613  15.625  0.00  0.00    +0.000 A 
ATOM     14  C   UNL     1       6.055   4.610  14.726  0.00  0.00    +0.000 A 
ATOM     15  C   UNL     1       7.320   5.062  15.120  0.00  0.00    +0.000 A 
ATOM     16  C   UNL     1       7.516   5.497  16.434  0.00  0.00    +0.000 A 
ATOM     17  C   UNL     1       6.461   5.490  17.360  0.00  0.00    +0.000 A 
ATOM     18  C   UNL     1       6.745   5.837  18.798  0.00  0.00    +0.000 C 
BRANCH  14  19
ATOM     19  N   UNL     1       5.853   4.099  13.366  0.00  0.00    +0.000 N 
ATOM     20  O   UNL     1       4.713   3.724  13.054  0.00  0.00    +0.000 OA
ATOM     21  O   UNL     1       6.833   4.075  12.608  0.00  0.00    +0.000 OA
ENDBRANCH  14  19
ENDBRANCH  11  12
BRANCH   1  22
ATOM     22  C   UNL     1       3.499   7.371  17.789  0.00  0.00    +0.000 C 
BRANCH  22  23
ATOM     23  S   UNL     1       1.995   8.272  17.343  0.00  0.00    +0.000 S 
BRANCH  23  26
ATOM     24  C   UNL     1       1.259  11.442  19.629  0.00  0.00    +0.000 C 
ATOM     25  N   UNL     1       1.436  10.513  18.533  0.00  0.00    +0.000 NA
ATOM     26  C   UNL     1       1.691   9.286  18.752  0.00  0.00    +0.000 C 
ATOM     27  N   UNL     1       1.792   8.524  19.885  0.00  0.00    +0.000 N 
ATOM     28  C   UNL     1       1.007   8.679  21.089  0.00  0.00    +0.000 C 
ATOM     29  H   UNL     1       1.909   7.544  19.643  0.00  0.00    +0.000 HD
ENDBRANCH  23  26
ENDBRANCH  22  23
ENDBRANCH   1  22
TORSDOF 5
ENDMDL
MODEL 4
REMARK VINA RESULT:      -6.5      4.542      7.888
REMARK  Name = 
REMARK  8 active torsions:
REMARK  status: ('A' for Active; 'I' for Inactive)
REMARK    1  A    between atoms: C_1  and  N_2
REMARK    2  A    between atoms: C_3  and  S_6
REMARK    3  A    between atoms: N_4  and  C_5
REMARK    4  A    between atoms: S_6  and  C_7
REMARK    5  A    between atoms: C_7  and  C_8
REMARK    6  A    between atoms: N_18  and  C_19
REMARK    7  A    between atoms: C_21  and  N_22
REMARK    8  A    between atoms: C_27  and  C_28
REMARK                            x       y       z     vdW  Elec       q    Type
REMARK                         _______ _______ _______ _____ _____    ______ ____
ROOT
ATOM      1  C   UNL     1      -0.691  12.081  19.160  0.00  0.00    +0.000 A 
ATOM      2  N   UNL     1      -0.954  13.275  18.717  0.00  0.00    +0.000 NA
ATOM      3  C   UNL     1      -0.140  14.348  19.094  0.00  0.00    +0.000 A 
ATOM      4  C   UNL     1      -0.400  15.615  18.565  0.00  0.00    +0.000 A 
ATOM      5  C   UNL     1       0.402  16.710  18.904  0.00  0.00    +0.000 A 
ATOM      6  C   UNL     1       1.471  16.551  19.784  0.00  0.00    +0.000 A 
ATOM      7  C   UNL     1       1.743  15.292  20.314  0.00  0.00    +0.000 A 
ATOM      8  C   UNL     1       0.940  14.202  19.953  0.00  0.00    +0.000 A 
ATOM      9  C   UNL     1       1.234  12.852  20.448  0.00  0.00    +0.000 A 
ATOM     10  O   UNL     1       2.195  12.695  21.200  0.00  0.00    +0.000 OA
ATOM     11  N   UNL     1       0.398  11.826  19.986  0.00  0.00    +0.000 N 
ENDROOT
BRANCH  11  12
ATOM     12  C   UNL     1       0.775  10.519  20.399  0.00  0.00    +0.000 A 
ATOM     13  C   UNL     1       1.452   9.711  19.474  0.00  0.00    +0.000 A 
ATOM     14  C   UNL     1       1.692   8.368  19.772  0.00  0.00    +0.000 A 
ATOM     15  C   UNL     1       1.262   7.820  20.986  0.00  0.00    +0.000 A 
ATOM     16  C   UNL     1       0.565   8.622  21.895  0.00  0.00    +0.000 A 
ATOM     17  C   UNL     1       0.295   9.970  21.606  0.00  0.00    +0.000 A 
ATOM     18  C   UNL     1      -0.574  10.761  22.547  0.00  0.00    +0.000 C 
BRANCH  14  19
ATOM     19  N   UNL     1       2.375   7.521  18.789  0.00  0.00    +0.000 N 
ATOM     20  O   UNL     1       2.845   8.069  17.782  0.00  0.00    +0.000 OA
ATOM     21  O   UNL     1       2.445   6.306  19.026  0.00  0.00    +0.000 OA
ENDBRANCH  14  19
ENDBRANCH  11  12
BRANCH   1  22
ATOM     22  C   UNL     1      -1.573  10.947  18.629  0.00  0.00    +0.000 C 
BRANCH  22  23
ATOM     23  S   UNL     1      -2.751  11.392  17.330  0.00  0.00    +0.000 S 
BRANCH  23  26
ATOM     24  C   UNL     1      -6.524  10.945  18.505  0.00  0.00    +0.000 C 
ATOM     25  N   UNL     1      -5.215  10.800  17.904  0.00  0.00    +0.000 NA
ATOM     26  C   UNL     1      -4.269  11.596  18.204  0.00  0.00    +0.000 C 
ATOM     27  N   UNL     1      -4.141  12.629  19.092  0.00  0.00    +0.000 N 
ATOM     28  C   UNL     1      -4.756  12.713  20.397  0.00  0.00    +0.000 C 
ATOM     29  H   UNL     1      -3.180  12.960  19.114  0.00  0.00    +0.000 HD
ENDBRANCH  23  26
ENDBRANCH  22  23
ENDBRANCH   1  22
TORSDOF 5
ENDMDL
MODEL 5
REMARK VINA RESULT:      -6.5      3.739      8.079
REMARK  Name = 
REMARK  8 active torsions:
REMARK  status: ('A' for Active; 'I' for Inactive)
REMARK    1  A    between atoms: C_1  and  N_2
REMARK    2  A    between atoms: C_3  and  S_6
REMARK    3  A    between atoms: N_4  and  C_5
REMARK    4  A    between atoms: S_6  and  C_7
REMARK    5  A    between atoms: C_7  and  C_8
REMARK    6  A    between atoms: N_18  and  C_19
REMARK    7  A    between atoms: C_21  and  N_22
REMARK    8  A    between atoms: C_27  and  C_28
REMARK                            x       y       z     vdW  Elec       q    Type
REMARK                         _______ _______ _______ _____ _____    ______ ____
ROOT
ATOM      1  C   UNL     1       1.141   9.400  20.806  0.00  0.00    +0.000 A 
ATOM      2  N   UNL     1       1.542   8.212  21.152  0.00  0.00    +0.000 NA
ATOM      3  C   UNL     1       2.012   7.329  20.175  0.00  0.00    +0.000 A 
ATOM      4  C   UNL     1       2.493   6.077  20.568  0.00  0.00    +0.000 A 
ATOM      5  C   UNL     1       2.986   5.171  19.622  0.00  0.00    +0.000 A 
ATOM      6  C   UNL     1       2.999   5.507  18.270  0.00  0.00    +0.000 A 
ATOM      7  C   UNL     1       2.527   6.754  17.866  0.00  0.00    +0.000 A 
ATOM      8  C   UNL     1       2.048   7.656  18.827  0.00  0.00    +0.000 A 
ATOM      9  C   UNL     1       1.598   8.998  18.443  0.00  0.00    +0.000 A 
ATOM     10  O   UNL     1       1.635   9.315  17.255  0.00  0.00    +0.000 OA
ATOM     11  N   UNL     1       1.186   9.837  19.487  0.00  0.00    +0.000 N 
ENDROOT
BRANCH  11  12
ATOM     12  C   UNL     1       0.858  11.163  19.093  0.00  0.00    +0.000 A 
ATOM     13  C   UNL     1       1.829  12.159  19.276  0.00  0.00    +0.000 A 
ATOM     14  C   UNL     1       1.496  13.497  19.063  0.00  0.00    +0.000 A 
ATOM     15  C   UNL     1       0.201  13.856  18.669  0.00  0.00    +0.000 A 
ATOM     16  C   UNL     1      -0.770  12.863  18.513  0.00  0.00    +0.000 A 
ATOM     17  C   UNL     1      -0.462  11.512  18.741  0.00  0.00    +0.000 A 
ATOM     18  C   UNL     1      -1.568  10.491  18.695  0.00  0.00    +0.000 C 
BRANCH  14  19
ATOM     19  N   UNL     1       2.507  14.537  19.283  0.00  0.00    +0.000 N 
ATOM     20  O   UNL     1       2.148  15.720  19.194  0.00  0.00    +0.000 OA
ATOM     21  O   UNL     1       3.661  14.171  19.550  0.00  0.00    +0.000 OA
ENDBRANCH  14  19
ENDBRANCH  11  12
BRANCH   1  22
ATOM     22  C   UNL     1       0.728  10.338  21.945  0.00  0.00    +0.000 C 
BRANCH  22  23
ATOM     23  S   UNL     1      -0.872  10.000  22.720  0.00  0.00    +0.000 S 
BRANCH  23  26
ATOM     24  C   UNL     1      -3.460  12.912  23.519  0.00  0.00    +0.000 C 
ATOM     25  N   UNL     1      -2.732  11.663  23.445  0.00  0.00    +0.000 NA
ATOM     26  C   UNL     1      -1.615  11.594  22.840  0.00  0.00    +0.000 C 
ATOM     27  N   UNL     1      -0.808  12.514  22.226  0.00  0.00    +0.000 N 
ATOM     28  C   UNL     1      -0.613  13.886  22.637  0.00  0.00    +0.000 C 
ATOM     29  H   UNL     1       0.069  12.084  21.945  0.00  0.00    +0.000 HD
ENDBRANCH  23  26
ENDBRANCH  22  23
ENDBRANCH   1  22
TORSDOF 5
ENDMDL
MODEL 6
REMARK VINA RESULT:      -6.4      3.719      8.115
REMARK  Name = 
REMARK  8 active torsions:
REMARK  status: ('A' for Active; 'I' for Inactive)
REMARK    1  A    between atoms: C_1  and  N_2
REMARK    2  A    between atoms: C_3  and  S_6
REMARK    3  A    between atoms: N_4  and  C_5
REMARK    4  A    between atoms: S_6  and  C_7
REMARK    5  A    between atoms: C_7  and  C_8
REMARK    6  A    between atoms: N_18  and  C_19
REMARK    7  A    between atoms: C_21  and  N_22
REMARK    8  A    between atoms: C_27  and  C_28
REMARK                            x       y       z     vdW  Elec       q    Type
REMARK                         _______ _______ _______ _____ _____    ______ ____
ROOT
ATOM      1  C   UNL     1       0.506   8.870  20.259  0.00  0.00    +0.000 A 
ATOM      2  N   UNL     1       1.020   7.723  20.594  0.00  0.00    +0.000 NA
ATOM      3  C   UNL     1       2.012   7.149  19.792  0.00  0.00    +0.000 A 
ATOM      4  C   UNL     1       2.596   5.945  20.192  0.00  0.00    +0.000 A 
ATOM      5  C   UNL     1       3.603   5.348  19.426  0.00  0.00    +0.000 A 
ATOM      6  C   UNL     1       4.033   5.949  18.244  0.00  0.00    +0.000 A 
ATOM      7  C   UNL     1       3.463   7.151  17.836  0.00  0.00    +0.000 A 
ATOM      8  C   UNL     1       2.465   7.744  18.622  0.00  0.00    +0.000 A 
ATOM      9  C   UNL     1       1.883   9.040  18.252  0.00  0.00    +0.000 A 
ATOM     10  O   UNL     1       2.280   9.593  17.227  0.00  0.00    +0.000 OA
ATOM     11  N   UNL     1       0.929   9.566  19.133  0.00  0.00    +0.000 N 
ENDROOT
BRANCH  11  12
ATOM     12  C   UNL     1       0.466  10.869  18.801  0.00  0.00    +0.000 A 
ATOM     13  C   UNL     1       1.170  11.966  19.319  0.00  0.00    +0.000 A 
ATOM     14  C   UNL     1       0.658  13.254  19.162  0.00  0.00    +0.000 A 
ATOM     15  C   UNL     1      -0.554  13.463  18.493  0.00  0.00    +0.000 A 
ATOM     16  C   UNL     1      -1.266  12.366  18.000  0.00  0.00    +0.000 A 
ATOM     17  C   UNL     1      -0.778  11.059  18.165  0.00  0.00    +0.000 A 
ATOM     18  C   UNL     1      -1.638   9.897  17.742  0.00  0.00    +0.000 C 
BRANCH  14  19
ATOM     19  N   UNL     1       1.384  14.395  19.731  0.00  0.00    +0.000 N 
ATOM     20  O   UNL     1       1.989  14.220  20.799  0.00  0.00    +0.000 OA
ATOM     21  O   UNL     1       1.353  15.466  19.109  0.00  0.00    +0.000 OA
ENDBRANCH  14  19
ENDBRANCH  11  12
BRANCH   1  22
ATOM     22  C   UNL     1      -0.507   9.473  21.238  0.00  0.00    +0.000 C 
BRANCH  22  23
ATOM     23  S   UNL     1       0.176  10.466  22.587  0.00  0.00    +0.000 S 
BRANCH  23  26
ATOM     24  C   UNL     1      -3.225  12.333  23.459  0.00  0.00    +0.000 C 
ATOM     25  N   UNL     1      -2.144  11.381  23.315  0.00  0.00    +0.000 NA
ATOM     26  C   UNL     1      -1.028  11.733  22.816  0.00  0.00    +0.000 C 
ATOM     27  N   UNL     1      -0.511  12.926  22.390  0.00  0.00    +0.000 N 
ATOM     28  C   UNL     1      -0.773  14.224  22.970  0.00  0.00    +0.000 C 
ATOM     29  H   UNL     1       0.470  12.821  22.148  0.00  0.00    +0.000 HD
ENDBRANCH  23  26
ENDBRANCH  22  23
ENDBRANCH   1  22
TORSDOF 5
ENDMDL
MODEL 7
REMARK VINA RESULT:      -6.4      4.714      7.817
REMARK  Name = 
REMARK  8 active torsions:
REMARK  status: ('A' for Active; 'I' for Inactive)
REMARK    1  A    between atoms: C_1  and  N_2
REMARK    2  A    between atoms: C_3  and  S_6
REMARK    3  A    between atoms: N_4  and  C_5
REMARK    4  A    between atoms: S_6  and  C_7
REMARK    5  A    between atoms: C_7  and  C_8
REMARK    6  A    between atoms: N_18  and  C_19
REMARK    7  A    between atoms: C_21  and  N_22
REMARK    8  A    between atoms: C_27  and  C_28
REMARK                            x       y       z     vdW  Elec       q    Type
REMARK                         _______ _______ _______ _____ _____    ______ ____
ROOT
ATOM      1  C   UNL     1      -0.779  12.420  19.558  0.00  0.00    +0.000 A 
ATOM      2  N   UNL     1      -0.960  13.598  19.038  0.00  0.00    +0.000 NA
ATOM      3  C   UNL     1      -0.002  14.597  19.238  0.00  0.00    +0.000 A 
ATOM      4  C   UNL     1      -0.181  15.841  18.627  0.00  0.00    +0.000 A 
ATOM      5  C   UNL     1       0.764  16.860  18.789  0.00  0.00    +0.000 A 
ATOM      6  C   UNL     1       1.897  16.648  19.570  0.00  0.00    +0.000 A 
ATOM      7  C   UNL     1       2.090  15.411  20.181  0.00  0.00    +0.000 A 
ATOM      8  C   UNL     1       1.142  14.395  19.998  0.00  0.00    +0.000 A 
ATOM      9  C   UNL     1       1.342  13.063  20.579  0.00  0.00    +0.000 A 
ATOM     10  O   UNL     1       2.356  12.856  21.244  0.00  0.00    +0.000 OA
ATOM     11  N   UNL     1       0.358  12.107  20.294  0.00  0.00    +0.000 N 
ENDROOT
BRANCH  11  12
ATOM     12  C   UNL     1       0.637  10.801  20.781  0.00  0.00    +0.000 A 
ATOM     13  C   UNL     1       1.314   9.915  19.931  0.00  0.00    +0.000 A 
ATOM     14  C   UNL     1       1.460   8.577  20.299  0.00  0.00    +0.000 A 
ATOM     15  C   UNL     1       0.935   8.109  21.509  0.00  0.00    +0.000 A 
ATOM     16  C   UNL     1       0.238   8.988  22.342  0.00  0.00    +0.000 A 
ATOM     17  C   UNL     1       0.062  10.334  21.982  0.00  0.00    +0.000 A 
ATOM     18  C   UNL     1      -0.809  11.214  22.838  0.00  0.00    +0.000 C 
BRANCH  14  19
ATOM     19  N   UNL     1       2.145   7.649  19.392  0.00  0.00    +0.000 N 
ATOM     20  O   UNL     1       2.296   7.999  18.213  0.00  0.00    +0.000 OA
ATOM     21  O   UNL     1       2.535   6.569  19.860  0.00  0.00    +0.000 OA
ENDBRANCH  14  19
ENDBRANCH  11  12
BRANCH   1  22
ATOM     22  C   UNL     1      -1.828  11.357  19.218  0.00  0.00    +0.000 C 
BRANCH  22  23
ATOM     23  S   UNL     1      -1.544  10.408  17.703  0.00  0.00    +0.000 S 
BRANCH  23  26
ATOM     24  C   UNL     1      -5.132  11.719  16.597  0.00  0.00    +0.000 C 
ATOM     25  N   UNL     1      -3.854  11.506  17.241  0.00  0.00    +0.000 NA
ATOM     26  C   UNL     1      -3.022  10.663  16.776  0.00  0.00    +0.000 C 
ATOM     27  N   UNL     1      -3.000   9.863  15.666  0.00  0.00    +0.000 N 
ATOM     28  C   UNL     1      -3.544  10.190  14.367  0.00  0.00    +0.000 C 
ATOM     29  H   UNL     1      -2.100   9.398  15.583  0.00  0.00    +0.000 HD
ENDBRANCH  23  26
ENDBRANCH  22  23
ENDBRANCH   1  22
TORSDOF 5
ENDMDL
MODEL 8
REMARK VINA RESULT:      -6.4      4.241      8.545
REMARK  Name = 
REMARK  8 active torsions:
REMARK  status: ('A' for Active; 'I' for Inactive)
REMARK    1  A    between atoms: C_1  and  N_2
REMARK    2  A    between atoms: C_3  and  S_6
REMARK    3  A    between atoms: N_4  and  C_5
REMARK    4  A    between atoms: S_6  and  C_7
REMARK    5  A    between atoms: C_7  and  C_8
REMARK    6  A    between atoms: N_18  and  C_19
REMARK    7  A    between atoms: C_21  and  N_22
REMARK    8  A    between atoms: C_27  and  C_28
REMARK                            x       y       z     vdW  Elec       q    Type
REMARK                         _______ _______ _______ _____ _____    ______ ____
ROOT
ATOM      1  C   UNL     1       0.838  10.231  20.793  0.00  0.00    +0.000 A 
ATOM      2  N   UNL     1       1.030   8.998  21.159  0.00  0.00    +0.000 NA
ATOM      3  C   UNL     1       1.550   8.078  20.243  0.00  0.00    +0.000 A 
ATOM      4  C   UNL     1       1.805   6.770  20.666  0.00  0.00    +0.000 A 
ATOM      5  C   UNL     1       2.341   5.825  19.784  0.00  0.00    +0.000 A 
ATOM      6  C   UNL     1       2.623   6.177  18.466  0.00  0.00    +0.000 A 
ATOM      7  C   UNL     1       2.378   7.478  18.034  0.00  0.00    +0.000 A 
ATOM      8  C   UNL     1       1.854   8.418  18.933  0.00  0.00    +0.000 A 
ATOM      9  C   UNL     1       1.638   9.811  18.526  0.00  0.00    +0.000 A 
ATOM     10  O   UNL     1       1.915  10.139  17.373  0.00  0.00    +0.000 OA
ATOM     11  N   UNL     1       1.158  10.679  19.516  0.00  0.00    +0.000 N 
ENDROOT
BRANCH  11  12
ATOM     12  C   UNL     1       1.062  12.041  19.120  0.00  0.00    +0.000 A 
ATOM     13  C   UNL     1       2.148  12.882  19.403  0.00  0.00    +0.000 A 
ATOM     14  C   UNL     1       2.034  14.256  19.187  0.00  0.00    +0.000 A 
ATOM     15  C   UNL     1       0.844  14.804  18.692  0.00  0.00    +0.000 A 
ATOM     16  C   UNL     1      -0.245  13.965  18.436  0.00  0.00    +0.000 A 
ATOM     17  C   UNL     1      -0.158  12.582  18.665  0.00  0.00    +0.000 A 
ATOM     18  C   UNL     1      -1.392  11.735  18.507  0.00  0.00    +0.000 C 
BRANCH  14  19
ATOM     19  N   UNL     1       3.163  15.135  19.511  0.00  0.00    +0.000 N 
ATOM     20  O   UNL     1       4.209  14.606  19.915  0.00  0.00    +0.000 OA
ATOM     21  O   UNL     1       3.005  16.355  19.360  0.00  0.00    +0.000 OA
ENDBRANCH  14  19
ENDBRANCH  11  12
BRANCH   1  22
ATOM     22  C   UNL     1       0.352  11.197  21.879  0.00  0.00    +0.000 C 
BRANCH  22  23
ATOM     23  S   UNL     1      -1.059  10.643  22.868  0.00  0.00    +0.000 S 
BRANCH  23  26
ATOM     24  C   UNL     1      -1.671  14.438  23.888  0.00  0.00    +0.000 C 
ATOM     25  N   UNL     1      -1.120  13.178  23.436  0.00  0.00    +0.000 NA
ATOM     26  C   UNL     1      -1.858  12.148  23.321  0.00  0.00    +0.000 C 
ATOM     27  N   UNL     1      -3.198  11.917  23.474  0.00  0.00    +0.000 N 
ATOM     28  C   UNL     1      -4.265  12.838  23.152  0.00  0.00    +0.000 C 
ATOM     29  H   UNL     1      -3.429  10.969  23.188  0.00  0.00    +0.000 HD
ENDBRANCH  23  26
ENDBRANCH  22  23
ENDBRANCH   1  22
TORSDOF 5
ENDMDL
MODEL 9
REMARK VINA RESULT:      -6.4      5.080      8.927
REMARK  Name = 
REMARK  8 active torsions:
REMARK  status: ('A' for Active; 'I' for Inactive)
REMARK    1  A    between atoms: C_1  and  N_2
REMARK    2  A    between atoms: C_3  and  S_6
REMARK    3  A    between atoms: N_4  and  C_5
REMARK    4  A    between atoms: S_6  and  C_7
REMARK    5  A    between atoms: C_7  and  C_8
REMARK    6  A    between atoms: N_18  and  C_19
REMARK    7  A    between atoms: C_21  and  N_22
REMARK    8  A    between atoms: C_27  and  C_28
REMARK                            x       y       z     vdW  Elec       q    Type
REMARK                         _______ _______ _______ _____ _____    ______ ____
ROOT
ATOM      1  C   UNL     1      -0.777  10.689  19.753  0.00  0.00    +0.000 A 
ATOM      2  N   UNL     1      -0.863  10.039  18.630  0.00  0.00    +0.000 NA
ATOM      3  C   UNL     1      -1.925  10.301  17.759  0.00  0.00    +0.000 A 
ATOM      4  C   UNL     1      -1.975   9.637  16.530  0.00  0.00    +0.000 A 
ATOM      5  C   UNL     1      -3.012   9.884  15.625  0.00  0.00    +0.000 A 
ATOM      6  C   UNL     1      -4.017  10.796  15.941  0.00  0.00    +0.000 A 
ATOM      7  C   UNL     1      -3.976  11.468  17.160  0.00  0.00    +0.000 A 
ATOM      8  C   UNL     1      -2.923  11.220  18.051  0.00  0.00    +0.000 A 
ATOM      9  C   UNL     1      -2.819  11.953  19.318  0.00  0.00    +0.000 A 
ATOM     10  O   UNL     1      -3.684  12.784  19.592  0.00  0.00    +0.000 OA
ATOM     11  N   UNL     1      -1.701  11.664  20.112  0.00  0.00    +0.000 N 
ENDROOT
BRANCH  11  12
ATOM     12  C   UNL     1      -1.574  12.467  21.279  0.00  0.00    +0.000 A 
ATOM     13  C   UNL     1      -2.489  12.256  22.321  0.00  0.00    +0.000 A 
ATOM     14  C   UNL     1      -2.511  13.128  23.410  0.00  0.00    +0.000 A 
ATOM     15  C   UNL     1      -1.631  14.215  23.471  0.00  0.00    +0.000 A 
ATOM     16  C   UNL     1      -0.739  14.437  22.419  0.00  0.00    +0.000 A 
ATOM     17  C   UNL     1      -0.712  13.583  21.304  0.00  0.00    +0.000 A 
ATOM     18  C   UNL     1       0.165  13.935  20.132  0.00  0.00    +0.000 C 
BRANCH  14  19
ATOM     19  N   UNL     1      -3.489  12.919  24.483  0.00  0.00    +0.000 N 
ATOM     20  O   UNL     1      -4.166  11.881  24.453  0.00  0.00    +0.000 OA
ATOM     21  O   UNL     1      -3.578  13.791  25.359  0.00  0.00    +0.000 OA
ENDBRANCH  14  19
ENDBRANCH  11  12
BRANCH   1  22
ATOM     22  C   UNL     1       0.464  10.411  20.608  0.00  0.00    +0.000 C 
BRANCH  22  23
ATOM     23  S   UNL     1       0.576   8.760  21.340  0.00  0.00    +0.000 S 
BRANCH  23  26
ATOM     24  C   UNL     1       2.738   5.877  19.658  0.00  0.00    +0.000 C 
ATOM     25  N   UNL     1       1.834   6.656  20.475  0.00  0.00    +0.000 NA
ATOM     26  C   UNL     1       1.608   7.881  20.213  0.00  0.00    +0.000 C 
ATOM     27  N   UNL     1       1.999   8.725  19.209  0.00  0.00    +0.000 N 
ATOM     28  C   UNL     1       2.208   8.365  17.825  0.00  0.00    +0.000 C 
ATOM     29  H   UNL     1       1.520   9.617  19.291  0.00  0.00    +0.000 HD
ENDBRANCH  23  26
ENDBRANCH  22  23
ENDBRANCH   1  22
TORSDOF 5
ENDMDL
