MODEL 1
REMARK VINA RESULT:      -8.1      0.000      0.000
REMARK  Name = 
REMARK  6 active torsions:
REMARK  status: ('A' for Active; 'I' for Inactive)
REMARK    1  A    between atoms: C_1  and  O_2
REMARK    2  A    between atoms: O_2  and  C_3
REMARK    3  A    between atoms: C_7  and  C_8
REMARK    4  A    between atoms: C_9  and  C_10
REMARK    5  A    between atoms: C_13  and  C_14
REMARK    6  A    between atoms: C_16  and  C_17
REMARK                            x       y       z     vdW  Elec       q    Type
REMARK                         _______ _______ _______ _____ _____    ______ ____
ROOT
ATOM      1  C   UNL     1      -0.060  10.648  21.010  0.00  0.00    +0.000 A 
ATOM      2  C   UNL     1       0.294   9.349  21.397  0.00  0.00    +0.000 A 
ATOM      3  C   UNL     1       1.079   8.545  20.568  0.00  0.00    +0.000 A 
ATOM      4  N   UNL     1       1.410   7.241  20.954  0.00  0.00    +0.000 N 
ATOM      5  C   UNL     1       2.214   6.431  20.177  0.00  0.00    +0.000 A 
ATOM      6  C   UNL     1       2.608   5.111  20.802  0.00  0.00    +0.000 C 
ATOM      7  C   UNL     1       2.626   6.795  18.935  0.00  0.00    +0.000 A 
ATOM      8  C   UNL     1       2.208   8.137  18.410  0.00  0.00    +0.000 A 
ATOM      9  O   UNL     1       2.473   8.506  17.269  0.00  0.00    +0.000 OA
ATOM     10  C   UNL     1       1.457   9.032  19.314  0.00  0.00    +0.000 A 
ATOM     11  C   UNL     1       1.123  10.329  18.912  0.00  0.00    +0.000 A 
ATOM     12  C   UNL     1       0.367  11.134  19.762  0.00  0.00    +0.000 A 
ATOM     13 CL   UNL     1      -0.014  12.736  19.241  0.00  0.00    +0.000 Cl
ATOM     14  H   UNL     1       1.283   6.987  21.926  0.00  0.00    +0.000 HD
ENDROOT
BRANCH   7  15
ATOM     15  C   UNL     1       3.466   5.933  18.085  0.00  0.00    +0.000 A 
ATOM     16  C   UNL     1       4.801   6.312  17.880  0.00  0.00    +0.000 A 
ATOM     17  C   UNL     1       5.629   5.564  17.043  0.00  0.00    +0.000 A 
ATOM     18  C   UNL     1       5.135   4.424  16.401  0.00  0.00    +0.000 A 
ATOM     19  C   UNL     1       6.000   3.626  15.473  0.00  0.00    +0.000 C 
ATOM     20  C   UNL     1       3.808   4.033  16.625  0.00  0.00    +0.000 A 
ATOM     21  C   UNL     1       2.958   4.783  17.453  0.00  0.00    +0.000 A 
ATOM     22  C   UNL     1       1.519   4.366  17.599  0.00  0.00    +0.000 C 
ENDBRANCH   7  15
BRANCH   1  24
ATOM     23  C   UNL     1      -1.167  10.982  23.075  0.00  0.00    +0.000 C 
ATOM     24  O   UNL     1      -0.844  11.470  21.777  0.00  0.00    +0.000 OA
ENDBRANCH   1  24
TORSDOF 2
ENDMDL
MODEL 2
REMARK VINA RESULT:      -7.9      2.843      6.970
REMARK  Name = 
REMARK  6 active torsions:
REMARK  status: ('A' for Active; 'I' for Inactive)
REMARK    1  A    between atoms: C_1  and  O_2
REMARK    2  A    between atoms: O_2  and  C_3
REMARK    3  A    between atoms: C_7  and  C_8
REMARK    4  A    between atoms: C_9  and  C_10
REMARK    5  A    between atoms: C_13  and  C_14
REMARK    6  A    between atoms: C_16  and  C_17
REMARK                            x       y       z     vdW  Elec       q    Type
REMARK                         _______ _______ _______ _____ _____    ______ ____
ROOT
ATOM      1  C   UNL     1       2.896   4.781  19.480  0.00  0.00    +0.000 A 
ATOM      2  C   UNL     1       2.311   5.612  20.443  0.00  0.00    +0.000 A 
ATOM      3  C   UNL     1       1.945   6.922  20.131  0.00  0.00    +0.000 A 
ATOM      4  N   UNL     1       1.381   7.752  21.107  0.00  0.00    +0.000 N 
ATOM      5  C   UNL     1       0.973   9.040  20.823  0.00  0.00    +0.000 A 
ATOM      6  C   UNL     1       0.241   9.753  21.938  0.00  0.00    +0.000 C 
ATOM      7  C   UNL     1       1.211   9.629  19.623  0.00  0.00    +0.000 A 
ATOM      8  C   UNL     1       1.919   8.833  18.566  0.00  0.00    +0.000 A 
ATOM      9  O   UNL     1       2.241   9.319  17.485  0.00  0.00    +0.000 OA
ATOM     10  C   UNL     1       2.228   7.417  18.855  0.00  0.00    +0.000 A 
ATOM     11  C   UNL     1       2.802   6.602  17.875  0.00  0.00    +0.000 A 
ATOM     12  C   UNL     1       3.133   5.285  18.190  0.00  0.00    +0.000 A 
ATOM     13 CL   UNL     1       3.825   4.301  16.951  0.00  0.00    +0.000 Cl
ATOM     14  H   UNL     1       1.023   7.319  21.949  0.00  0.00    +0.000 HD
ENDROOT
BRANCH   7  15
ATOM     15  C   UNL     1       0.802  11.009  19.313  0.00  0.00    +0.000 A 
ATOM     16  C   UNL     1       1.674  12.049  19.667  0.00  0.00    +0.000 A 
ATOM     17  C   UNL     1       1.318  13.380  19.446  0.00  0.00    +0.000 A 
ATOM     18  C   UNL     1       0.085  13.690  18.864  0.00  0.00    +0.000 A 
ATOM     19  C   UNL     1      -0.330  15.114  18.649  0.00  0.00    +0.000 C 
ATOM     20  C   UNL     1      -0.776  12.650  18.488  0.00  0.00    +0.000 A 
ATOM     21  C   UNL     1      -0.438  11.306  18.717  0.00  0.00    +0.000 A 
ATOM     22  C   UNL     1      -1.431  10.230  18.369  0.00  0.00    +0.000 C 
ENDBRANCH   7  15
BRANCH   1  24
ATOM     23  C   UNL     1       2.266   2.508  19.683  0.00  0.00    +0.000 C 
ATOM     24  O   UNL     1       3.291   3.494  19.741  0.00  0.00    +0.000 OA
ENDBRANCH   1  24
TORSDOF 2
ENDMDL
MODEL 3
REMARK VINA RESULT:      -7.2      1.538      2.521
REMARK  Name = 
REMARK  6 active torsions:
REMARK  status: ('A' for Active; 'I' for Inactive)
REMARK    1  A    between atoms: C_1  and  O_2
REMARK    2  A    between atoms: O_2  and  C_3
REMARK    3  A    between atoms: C_7  and  C_8
REMARK    4  A    between atoms: C_9  and  C_10
REMARK    5  A    between atoms: C_13  and  C_14
REMARK    6  A    between atoms: C_16  and  C_17
REMARK                            x       y       z     vdW  Elec       q    Type
REMARK                         _______ _______ _______ _____ _____    ______ ____
ROOT
ATOM      1  C   UNL     1       0.584   8.536  21.099  0.00  0.00    +0.000 A 
ATOM      2  C   UNL     1       1.341   7.359  21.148  0.00  0.00    +0.000 A 
ATOM      3  C   UNL     1       2.195   7.014  20.100  0.00  0.00    +0.000 A 
ATOM      4  N   UNL     1       2.931   5.824  20.149  0.00  0.00    +0.000 N 
ATOM      5  C   UNL     1       3.814   5.470  19.148  0.00  0.00    +0.000 A 
ATOM      6  C   UNL     1       4.649   4.238  19.421  0.00  0.00    +0.000 C 
ATOM      7  C   UNL     1       3.928   6.179  17.996  0.00  0.00    +0.000 A 
ATOM      8  C   UNL     1       3.079   7.405  17.827  0.00  0.00    +0.000 A 
ATOM      9  O   UNL     1       3.066   8.055  16.785  0.00  0.00    +0.000 OA
ATOM     10  C   UNL     1       2.240   7.830  18.967  0.00  0.00    +0.000 A 
ATOM     11  C   UNL     1       1.501   9.015  18.900  0.00  0.00    +0.000 A 
ATOM     12  C   UNL     1       0.676   9.365  19.968  0.00  0.00    +0.000 A 
ATOM     13 CL   UNL     1      -0.211  10.844  19.860  0.00  0.00    +0.000 Cl
ATOM     14  H   UNL     1       3.020   5.357  21.044  0.00  0.00    +0.000 HD
ENDROOT
BRANCH   7  15
ATOM     15  C   UNL     1       4.848   5.801  16.910  0.00  0.00    +0.000 A 
ATOM     16  C   UNL     1       4.436   4.803  16.016  0.00  0.00    +0.000 A 
ATOM     17  C   UNL     1       5.285   4.367  14.999  0.00  0.00    +0.000 A 
ATOM     18  C   UNL     1       6.559   4.925  14.860  0.00  0.00    +0.000 A 
ATOM     19  C   UNL     1       7.499   4.446  13.795  0.00  0.00    +0.000 C 
ATOM     20  C   UNL     1       6.962   5.939  15.739  0.00  0.00    +0.000 A 
ATOM     21  C   UNL     1       6.124   6.379  16.776  0.00  0.00    +0.000 A 
ATOM     22  C   UNL     1       6.634   7.414  17.743  0.00  0.00    +0.000 C 
ENDBRANCH   7  15
BRANCH   1  24
ATOM     23  C   UNL     1       0.304   9.550  23.219  0.00  0.00    +0.000 C 
ATOM     24  O   UNL     1      -0.284   8.911  22.092  0.00  0.00    +0.000 OA
ENDBRANCH   1  24
TORSDOF 2
ENDMDL
MODEL 4
REMARK VINA RESULT:      -7.0      4.991      8.198
REMARK  Name = 
REMARK  6 active torsions:
REMARK  status: ('A' for Active; 'I' for Inactive)
REMARK    1  A    between atoms: C_1  and  O_2
REMARK    2  A    between atoms: O_2  and  C_3
REMARK    3  A    between atoms: C_7  and  C_8
REMARK    4  A    between atoms: C_9  and  C_10
REMARK    5  A    between atoms: C_13  and  C_14
REMARK    6  A    between atoms: C_16  and  C_17
REMARK                            x       y       z     vdW  Elec       q    Type
REMARK                         _______ _______ _______ _____ _____    ______ ____
ROOT
ATOM      1  C   UNL     1       7.118   4.613  13.466  0.00  0.00    +0.000 A 
ATOM      2  C   UNL     1       7.404   5.053  14.764  0.00  0.00    +0.000 A 
ATOM      3  C   UNL     1       6.546   4.758  15.825  0.00  0.00    +0.000 A 
ATOM      4  N   UNL     1       6.830   5.220  17.115  0.00  0.00    +0.000 N 
ATOM      5  C   UNL     1       6.023   4.917  18.194  0.00  0.00    +0.000 A 
ATOM      6  C   UNL     1       6.547   5.355  19.544  0.00  0.00    +0.000 C 
ATOM      7  C   UNL     1       4.839   4.265  18.055  0.00  0.00    +0.000 A 
ATOM      8  C   UNL     1       4.416   3.843  16.678  0.00  0.00    +0.000 A 
ATOM      9  O   UNL     1       3.326   3.322  16.459  0.00  0.00    +0.000 OA
ATOM     10  C   UNL     1       5.359   4.068  15.563  0.00  0.00    +0.000 A 
ATOM     11  C   UNL     1       5.058   3.611  14.277  0.00  0.00    +0.000 A 
ATOM     12  C   UNL     1       5.939   3.883  13.232  0.00  0.00    +0.000 A 
ATOM     13 CL   UNL     1       5.545   3.290  11.658  0.00  0.00    +0.000 Cl
ATOM     14  H   UNL     1       7.769   5.549  17.306  0.00  0.00    +0.000 HD
ENDROOT
BRANCH   7  15
ATOM     15  C   UNL     1       3.958   3.954  19.192  0.00  0.00    +0.000 A 
ATOM     16  C   UNL     1       4.102   2.705  19.814  0.00  0.00    +0.000 A 
ATOM     17  C   UNL     1       3.260   2.333  20.862  0.00  0.00    +0.000 A 
ATOM     18  C   UNL     1       2.264   3.207  21.307  0.00  0.00    +0.000 A 
ATOM     19  C   UNL     1       1.328   2.813  22.410  0.00  0.00    +0.000 C 
ATOM     20  C   UNL     1       2.135   4.464  20.702  0.00  0.00    +0.000 A 
ATOM     21  C   UNL     1       2.965   4.848  19.636  0.00  0.00    +0.000 A 
ATOM     22  C   UNL     1       2.736   6.176  18.968  0.00  0.00    +0.000 C 
ENDBRANCH   7  15
BRANCH   1  24
ATOM     23  C   UNL     1       8.557   6.163  12.405  0.00  0.00    +0.000 C 
ATOM     24  O   UNL     1       7.916   4.892  12.387  0.00  0.00    +0.000 OA
ENDBRANCH   1  24
TORSDOF 2
ENDMDL
MODEL 5
REMARK VINA RESULT:      -6.8      2.980      7.497
REMARK  Name = 
REMARK  6 active torsions:
REMARK  status: ('A' for Active; 'I' for Inactive)
REMARK    1  A    between atoms: C_1  and  O_2
REMARK    2  A    between atoms: O_2  and  C_3
REMARK    3  A    between atoms: C_7  and  C_8
REMARK    4  A    between atoms: C_9  and  C_10
REMARK    5  A    between atoms: C_13  and  C_14
REMARK    6  A    between atoms: C_16  and  C_17
REMARK                            x       y       z     vdW  Elec       q    Type
REMARK                         _______ _______ _______ _____ _____    ______ ____
ROOT
ATOM      1  C   UNL     1       3.427   4.719  19.300  0.00  0.00    +0.000 A 
ATOM      2  C   UNL     1       3.444   5.919  18.579  0.00  0.00    +0.000 A 
ATOM      3  C   UNL     1       2.664   7.005  18.981  0.00  0.00    +0.000 A 
ATOM      4  N   UNL     1       2.671   8.194  18.241  0.00  0.00    +0.000 N 
ATOM      5  C   UNL     1       1.942   9.300  18.630  0.00  0.00    +0.000 A 
ATOM      6  C   UNL     1       2.177  10.555  17.817  0.00  0.00    +0.000 C 
ATOM      7  C   UNL     1       1.073   9.268  19.673  0.00  0.00    +0.000 A 
ATOM      8  C   UNL     1       0.928   7.985  20.440  0.00  0.00    +0.000 A 
ATOM      9  O   UNL     1       0.108   7.851  21.343  0.00  0.00    +0.000 OA
ATOM     10  C   UNL     1       1.816   6.859  20.081  0.00  0.00    +0.000 A 
ATOM     11  C   UNL     1       1.790   5.673  20.821  0.00  0.00    +0.000 A 
ATOM     12  C   UNL     1       2.597   4.606  20.429  0.00  0.00    +0.000 A 
ATOM     13 CL   UNL     1       2.554   3.162  21.375  0.00  0.00    +0.000 Cl
ATOM     14  H   UNL     1       3.420   8.333  17.573  0.00  0.00    +0.000 HD
ENDROOT
BRANCH   7  15
ATOM     15  C   UNL     1       0.272  10.432  20.086  0.00  0.00    +0.000 A 
ATOM     16  C   UNL     1       0.704  11.166  21.200  0.00  0.00    +0.000 A 
ATOM     17  C   UNL     1      -0.042  12.247  21.669  0.00  0.00    +0.000 A 
ATOM     18  C   UNL     1      -1.229  12.613  21.029  0.00  0.00    +0.000 A 
ATOM     19  C   UNL     1      -2.062  13.751  21.537  0.00  0.00    +0.000 C 
ATOM     20  C   UNL     1      -1.648  11.894  19.901  0.00  0.00    +0.000 A 
ATOM     21  C   UNL     1      -0.916  10.794  19.425  0.00  0.00    +0.000 A 
ATOM     22  C   UNL     1      -1.449  10.006  18.259  0.00  0.00    +0.000 C 
ENDBRANCH   7  15
BRANCH   1  24
ATOM     23  C   UNL     1       3.639   2.864  17.845  0.00  0.00    +0.000 C 
ATOM     24  O   UNL     1       4.157   3.617  18.937  0.00  0.00    +0.000 OA
ENDBRANCH   1  24
TORSDOF 2
ENDMDL
MODEL 6
REMARK VINA RESULT:      -6.7      2.134      3.048
REMARK  Name = 
REMARK  6 active torsions:
REMARK  status: ('A' for Active; 'I' for Inactive)
REMARK    1  A    between atoms: C_1  and  O_2
REMARK    2  A    between atoms: O_2  and  C_3
REMARK    3  A    between atoms: C_7  and  C_8
REMARK    4  A    between atoms: C_9  and  C_10
REMARK    5  A    between atoms: C_13  and  C_14
REMARK    6  A    between atoms: C_16  and  C_17
REMARK                            x       y       z     vdW  Elec       q    Type
REMARK                         _______ _______ _______ _____ _____    ______ ____
ROOT
ATOM      1  C   UNL     1       0.410  11.029  20.784  0.00  0.00    +0.000 A 
ATOM      2  C   UNL     1       1.152  10.663  19.654  0.00  0.00    +0.000 A 
ATOM      3  C   UNL     1       1.534   9.336  19.448  0.00  0.00    +0.000 A 
ATOM      4  N   UNL     1       2.294   8.984  18.327  0.00  0.00    +0.000 N 
ATOM      5  C   UNL     1       2.658   7.676  18.073  0.00  0.00    +0.000 A 
ATOM      6  C   UNL     1       3.340   7.436  16.744  0.00  0.00    +0.000 C 
ATOM      7  C   UNL     1       2.418   6.671  18.954  0.00  0.00    +0.000 A 
ATOM      8  C   UNL     1       1.709   7.001  20.235  0.00  0.00    +0.000 A 
ATOM      9  O   UNL     1       1.526   6.166  21.116  0.00  0.00    +0.000 OA
ATOM     10  C   UNL     1       1.219   8.383  20.420  0.00  0.00    +0.000 A 
ATOM     11  C   UNL     1       0.471   8.724  21.551  0.00  0.00    +0.000 A 
ATOM     12  C   UNL     1       0.067  10.046  21.728  0.00  0.00    +0.000 A 
ATOM     13 CL   UNL     1      -0.871  10.430  23.128  0.00  0.00    +0.000 Cl
ATOM     14  H   UNL     1       2.346   9.645  17.562  0.00  0.00    +0.000 HD
ENDROOT
BRANCH   7  15
ATOM     15  C   UNL     1       2.820   5.276  18.707  0.00  0.00    +0.000 A 
ATOM     16  C   UNL     1       1.836   4.375  18.275  0.00  0.00    +0.000 A 
ATOM     17  C   UNL     1       2.145   3.030  18.076  0.00  0.00    +0.000 A 
ATOM     18  C   UNL     1       3.444   2.566  18.302  0.00  0.00    +0.000 A 
ATOM     19  C   UNL     1       3.789   1.118  18.125  0.00  0.00    +0.000 C 
ATOM     20  C   UNL     1       4.433   3.472  18.710  0.00  0.00    +0.000 A 
ATOM     21  C   UNL     1       4.134   4.826  18.930  0.00  0.00    +0.000 A 
ATOM     22  C   UNL     1       5.212   5.741  19.445  0.00  0.00    +0.000 C 
ENDBRANCH   7  15
BRANCH   1  24
ATOM     23  C   UNL     1      -1.084  12.797  20.291  0.00  0.00    +0.000 C 
ATOM     24  O   UNL     1       0.027  12.319  21.042  0.00  0.00    +0.000 OA
ENDBRANCH   1  24
TORSDOF 2
ENDMDL
MODEL 7
REMARK VINA RESULT:      -6.7      3.109      5.319
REMARK  Name = 
REMARK  6 active torsions:
REMARK  status: ('A' for Active; 'I' for Inactive)
REMARK    1  A    between atoms: C_1  and  O_2
REMARK    2  A    between atoms: O_2  and  C_3
REMARK    3  A    between atoms: C_7  and  C_8
REMARK    4  A    between atoms: C_9  and  C_10
REMARK    5  A    between atoms: C_13  and  C_14
REMARK    6  A    between atoms: C_16  and  C_17
REMARK                            x       y       z     vdW  Elec       q    Type
REMARK                         _______ _______ _______ _____ _____    ______ ____
ROOT
ATOM      1  C   UNL     1      -2.604  14.765  22.080  0.00  0.00    +0.000 A 
ATOM      2  C   UNL     1      -2.894  13.861  21.050  0.00  0.00    +0.000 A 
ATOM      3  C   UNL     1      -1.972  12.881  20.679  0.00  0.00    +0.000 A 
ATOM      4  N   UNL     1      -2.262  11.995  19.634  0.00  0.00    +0.000 N 
ATOM      5  C   UNL     1      -1.391  10.991  19.265  0.00  0.00    +0.000 A 
ATOM      6  C   UNL     1      -1.914  10.021  18.229  0.00  0.00    +0.000 C 
ATOM      7  C   UNL     1      -0.146  10.877  19.797  0.00  0.00    +0.000 A 
ATOM      8  C   UNL     1       0.275  11.869  20.842  0.00  0.00    +0.000 A 
ATOM      9  O   UNL     1       1.409  11.882  21.314  0.00  0.00    +0.000 OA
ATOM     10  C   UNL     1      -0.725  12.852  21.308  0.00  0.00    +0.000 A 
ATOM     11  C   UNL     1      -0.418  13.738  22.345  0.00  0.00    +0.000 A 
ATOM     12  C   UNL     1      -1.359  14.692  22.729  0.00  0.00    +0.000 A 
ATOM     13 CL   UNL     1      -0.954  15.761  24.024  0.00  0.00    +0.000 Cl
ATOM     14  H   UNL     1      -3.225  11.920  19.329  0.00  0.00    +0.000 HD
ENDROOT
BRANCH   7  15
ATOM     15  C   UNL     1       0.803   9.824  19.398  0.00  0.00    +0.000 A 
ATOM     16  C   UNL     1       1.444   9.953  18.157  0.00  0.00    +0.000 A 
ATOM     17  C   UNL     1       2.313   8.961  17.703  0.00  0.00    +0.000 A 
ATOM     18  C   UNL     1       2.557   7.828  18.483  0.00  0.00    +0.000 A 
ATOM     19  C   UNL     1       3.462   6.736  17.998  0.00  0.00    +0.000 C 
ATOM     20  C   UNL     1       1.935   7.711  19.734  0.00  0.00    +0.000 A 
ATOM     21  C   UNL     1       1.046   8.693  20.199  0.00  0.00    +0.000 A 
ATOM     22  C   UNL     1       0.342   8.483  21.513  0.00  0.00    +0.000 C 
ENDBRANCH   7  15
BRANCH   1  24
ATOM     23  C   UNL     1      -4.546  15.349  23.300  0.00  0.00    +0.000 C 
ATOM     24  O   UNL     1      -3.465  15.758  22.469  0.00  0.00    +0.000 OA
ENDBRANCH   1  24
TORSDOF 2
ENDMDL
MODEL 8
REMARK VINA RESULT:      -6.6      0.432      1.492
REMARK  Name = 
REMARK  6 active torsions:
REMARK  status: ('A' for Active; 'I' for Inactive)
REMARK    1  A    between atoms: C_1  and  O_2
REMARK    2  A    between atoms: O_2  and  C_3
REMARK    3  A    between atoms: C_7  and  C_8
REMARK    4  A    between atoms: C_9  and  C_10
REMARK    5  A    between atoms: C_13  and  C_14
REMARK    6  A    between atoms: C_16  and  C_17
REMARK                            x       y       z     vdW  Elec       q    Type
REMARK                         _______ _______ _______ _____ _____    ______ ____
ROOT
ATOM      1  C   UNL     1       0.184  10.550  21.141  0.00  0.00    +0.000 A 
ATOM      2  C   UNL     1       0.586   9.248  21.464  0.00  0.00    +0.000 A 
ATOM      3  C   UNL     1       1.313   8.478  20.555  0.00  0.00    +0.000 A 
ATOM      4  N   UNL     1       1.692   7.170  20.880  0.00  0.00    +0.000 N 
ATOM      5  C   UNL     1       2.443   6.393  20.021  0.00  0.00    +0.000 A 
ATOM      6  C   UNL     1       2.905   5.064  20.578  0.00  0.00    +0.000 C 
ATOM      7  C   UNL     1       2.750   6.793  18.760  0.00  0.00    +0.000 A 
ATOM      8  C   UNL     1       2.272   8.141  18.304  0.00  0.00    +0.000 A 
ATOM      9  O   UNL     1       2.439   8.542  17.155  0.00  0.00    +0.000 OA
ATOM     10  C   UNL     1       1.582   9.002  19.288  0.00  0.00    +0.000 A 
ATOM     11  C   UNL     1       1.199  10.301  18.947  0.00  0.00    +0.000 A 
ATOM     12  C   UNL     1       0.502  11.073  19.876  0.00  0.00    +0.000 A 
ATOM     13 CL   UNL     1       0.058  12.681  19.428  0.00  0.00    +0.000 Cl
ATOM     14  H   UNL     1       1.648   6.890  21.852  0.00  0.00    +0.000 HD
ENDROOT
BRANCH   7  15
ATOM     15  C   UNL     1       3.530   5.966  17.824  0.00  0.00    +0.000 A 
ATOM     16  C   UNL     1       2.985   4.740  17.416  0.00  0.00    +0.000 A 
ATOM     17  C   UNL     1       3.701   3.891  16.573  0.00  0.00    +0.000 A 
ATOM     18  C   UNL     1       4.972   4.257  16.122  0.00  0.00    +0.000 A 
ATOM     19  C   UNL     1       5.771   3.343  15.242  0.00  0.00    +0.000 C 
ATOM     20  C   UNL     1       5.508   5.492  16.510  0.00  0.00    +0.000 A 
ATOM     21  C   UNL     1       4.805   6.352  17.370  0.00  0.00    +0.000 A 
ATOM     22  C   UNL     1       5.457   7.631  17.822  0.00  0.00    +0.000 C 
ENDBRANCH   7  15
BRANCH   1  24
ATOM     23  C   UNL     1      -1.099  10.683  23.125  0.00  0.00    +0.000 C 
ATOM     24  O   UNL     1      -0.548  11.340  21.989  0.00  0.00    +0.000 OA
ENDBRANCH   1  24
TORSDOF 2
ENDMDL
MODEL 9
REMARK VINA RESULT:      -6.5      2.828      8.236
REMARK  Name = 
REMARK  6 active torsions:
REMARK  status: ('A' for Active; 'I' for Inactive)
REMARK    1  A    between atoms: C_1  and  O_2
REMARK    2  A    between atoms: O_2  and  C_3
REMARK    3  A    between atoms: C_7  and  C_8
REMARK    4  A    between atoms: C_9  and  C_10
REMARK    5  A    between atoms: C_13  and  C_14
REMARK    6  A    between atoms: C_16  and  C_17
REMARK                            x       y       z     vdW  Elec       q    Type
REMARK                         _______ _______ _______ _____ _____    ______ ____
ROOT
ATOM      1  C   UNL     1       2.710   7.225  18.497  0.00  0.00    +0.000 A 
ATOM      2  C   UNL     1       2.445   8.505  17.994  0.00  0.00    +0.000 A 
ATOM      3  C   UNL     1       1.673   9.413  18.720  0.00  0.00    +0.000 A 
ATOM      4  N   UNL     1       1.396  10.682  18.199  0.00  0.00    +0.000 N 
ATOM      5  C   UNL     1       0.667  11.619  18.905  0.00  0.00    +0.000 A 
ATOM      6  C   UNL     1       0.588  12.993  18.276  0.00  0.00    +0.000 C 
ATOM      7  C   UNL     1       0.064  11.329  20.086  0.00  0.00    +0.000 A 
ATOM      8  C   UNL     1       0.223   9.946  20.647  0.00  0.00    +0.000 A 
ATOM      9  O   UNL     1      -0.355   9.582  21.668  0.00  0.00    +0.000 OA
ATOM     10  C   UNL     1       1.113   9.006  19.934  0.00  0.00    +0.000 A 
ATOM     11  C   UNL     1       1.372   7.738  20.460  0.00  0.00    +0.000 A 
ATOM     12  C   UNL     1       2.171   6.851  19.740  0.00  0.00    +0.000 A 
ATOM     13 CL   UNL     1       2.485   5.297  20.427  0.00  0.00    +0.000 Cl
ATOM     14  H   UNL     1       1.957  11.009  17.421  0.00  0.00    +0.000 HD
ENDROOT
BRANCH   7  15
ATOM     15  C   UNL     1      -0.734  12.310  20.840  0.00  0.00    +0.000 A 
ATOM     16  C   UNL     1      -0.136  12.937  21.944  0.00  0.00    +0.000 A 
ATOM     17  C   UNL     1      -0.860  13.835  22.727  0.00  0.00    +0.000 A 
ATOM     18  C   UNL     1      -2.192  14.124  22.417  0.00  0.00    +0.000 A 
ATOM     19  C   UNL     1      -2.997  15.062  23.266  0.00  0.00    +0.000 C 
ATOM     20  C   UNL     1      -2.782  13.516  21.300  0.00  0.00    +0.000 A 
ATOM     21  C   UNL     1      -2.072  12.598  20.510  0.00  0.00    +0.000 A 
ATOM     22  C   UNL     1      -2.774  11.913  19.370  0.00  0.00    +0.000 C 
ENDBRANCH   7  15
BRANCH   1  24
ATOM     23  C   UNL     1       4.552   6.792  17.076  0.00  0.00    +0.000 C 
ATOM     24  O   UNL     1       3.444   6.289  17.816  0.00  0.00    +0.000 OA
ENDBRANCH   1  24
TORSDOF 2
ENDMDL
