MODEL 1
REMARK VINA RESULT:      -8.5      0.000      0.000
REMARK  Name = 
REMARK  15 active torsions:
REMARK  status: ('A' for Active; 'I' for Inactive)
REMARK    1  A    between atoms: C_1  and  C_2
REMARK    2  A    between atoms: C_2  and  C_3
REMARK    3  A    between atoms: C_2  and  C_4
REMARK    4  A    between atoms: C_2  and  O_5
REMARK    5  A    between atoms: O_5  and  C_6
REMARK    6  A    between atoms: C_6  and  C_8
REMARK    7  A    between atoms: C_8  and  C_9
REMARK    8  A    between atoms: C_8  and  N_17
REMARK    9  A    between atoms: C_9  and  C_10
REMARK   10  A    between atoms: C_10  and  C_11
REMARK   11  A    between atoms: C_18  and  C_20
REMARK   12  A    between atoms: C_23  and  N_24
REMARK   13  A    between atoms: C_25  and  C_26
REMARK   14  A    between atoms: C_27  and  C_28
REMARK   15  A    between atoms: C_31  and  O_32
REMARK                            x       y       z     vdW  Elec       q    Type
REMARK                         _______ _______ _______ _____ _____    ______ ____
ROOT
ATOM      1  N   UNL     1       2.977   6.400  18.445  0.00  0.00    +0.000 N 
ATOM      2  C   UNL     1       2.253   7.005  19.447  0.00  0.00    +0.000 C 
ATOM      3  O   UNL     1       1.937   6.419  20.483  0.00  0.00    +0.000 OA
ATOM      4  H   UNL     1       3.056   6.836  17.533  0.00  0.00    +0.000 HD
ENDROOT
BRANCH   2   5
ATOM      5  C   UNL     1       1.824   8.414  19.241  0.00  0.00    +0.000 A 
ATOM      6  C   UNL     1       2.170   9.027  18.031  0.00  0.00    +0.000 A 
ATOM      7  C   UNL     1       1.789  10.344  17.771  0.00  0.00    +0.000 A 
ATOM      8  C   UNL     1       1.014  11.061  18.691  0.00  0.00    +0.000 A 
ATOM      9  C   UNL     1       0.696  10.453  19.923  0.00  0.00    +0.000 A 
ATOM     10  C   UNL     1       1.079   9.127  20.186  0.00  0.00    +0.000 A 
BRANCH   8  11
ATOM     11  N   UNL     1       0.781  12.428  18.445  0.00  0.00    +0.000 N 
ATOM     12  H   UNL     1       1.624  12.992  18.407  0.00  0.00    +0.000 HD
ATOM     13  H   UNL     1       0.162  12.601  17.659  0.00  0.00    +0.000 HD
ENDBRANCH   8  11
BRANCH   9  14
ATOM     14  C   UNL     1      -0.021  11.175  20.939  0.00  0.00    +0.000 C 
ATOM     15  C   UNL     1      -0.658  11.786  21.757  0.00  0.00    +0.000 C 
BRANCH  15  16
ATOM     16  C   UNL     1      -1.454  12.541  22.674  0.00  0.00    +0.000 A 
ATOM     17  C   UNL     1      -0.995  13.758  23.188  0.00  0.00    +0.000 A 
ATOM     18  C   UNL     1      -1.786  14.482  24.089  0.00  0.00    +0.000 A 
ATOM     19  C   UNL     1      -3.030  13.981  24.463  0.00  0.00    +0.000 A 
ATOM     20  C   UNL     1      -3.490  12.768  23.964  0.00  0.00    +0.000 A 
ATOM     21  C   UNL     1      -2.699  12.046  23.066  0.00  0.00    +0.000 A 
BRANCH  19  22
ATOM     22  O   UNL     1      -3.840  14.656  25.327  0.00  0.00    +0.000 OA
ATOM     23  H   UNL     1      -4.006  15.545  24.971  0.00  0.00    +0.000 HD
ENDBRANCH  19  22
ENDBRANCH  15  16
ENDBRANCH   9  14
ENDBRANCH   2   5
BRANCH   1  24
ATOM     24  C   UNL     1       3.362   4.987  18.552  0.00  0.00    +0.000 C 
BRANCH  24  25
ATOM     25  C   UNL     1       4.878   4.915  18.700  0.00  0.00    +0.000 C 
ATOM     26  O   UNL     1       5.479   5.441  19.629  0.00  0.00    +0.000 OA
BRANCH  25  27
ATOM     27  O   UNL     1       5.437   4.192  17.686  0.00  0.00    +0.000 OA
BRANCH  27  29
ATOM     28  C   UNL     1       7.849   4.563  17.436  0.00  0.00    +0.000 C 
ATOM     29  C   UNL     1       6.454   4.801  16.848  0.00  0.00    +0.000 C 
ATOM     30  C   UNL     1       6.168   6.291  16.630  0.00  0.00    +0.000 C 
ATOM     31  C   UNL     1       6.390   4.085  15.486  0.00  0.00    +0.000 C 
ENDBRANCH  27  29
ENDBRANCH  25  27
ENDBRANCH  24  25
BRANCH  24  32
ATOM     32  C   UNL     1       2.935   4.225  17.298  0.00  0.00    +0.000 C 
BRANCH  32  33
ATOM     33  C   UNL     1       2.102   2.981  17.620  0.00  0.00    +0.000 C 
BRANCH  33  34
ATOM     34  C   UNL     1       2.078   2.760  19.109  0.00  0.00    +0.000 A 
ATOM     35  C   UNL     1       0.960   3.135  19.867  0.00  0.00    +0.000 A 
ATOM     36  C   UNL     1       0.994   3.051  21.257  0.00  0.00    +0.000 A 
ATOM     37  C   UNL     1       2.143   2.589  21.900  0.00  0.00    +0.000 A 
ATOM     38  C   UNL     1       3.250   2.194  21.153  0.00  0.00    +0.000 A 
ATOM     39  C   UNL     1       3.216   2.277  19.762  0.00  0.00    +0.000 A 
ENDBRANCH  33  34
ENDBRANCH  32  33
ENDBRANCH  24  32
ENDBRANCH   1  24
TORSDOF 12
ENDMDL
MODEL 2
REMARK VINA RESULT:      -8.3      1.369      1.852
REMARK  Name = 
REMARK  15 active torsions:
REMARK  status: ('A' for Active; 'I' for Inactive)
REMARK    1  A    between atoms: C_1  and  C_2
REMARK    2  A    between atoms: C_2  and  C_3
REMARK    3  A    between atoms: C_2  and  C_4
REMARK    4  A    between atoms: C_2  and  O_5
REMARK    5  A    between atoms: O_5  and  C_6
REMARK    6  A    between atoms: C_6  and  C_8
REMARK    7  A    between atoms: C_8  and  C_9
REMARK    8  A    between atoms: C_8  and  N_17
REMARK    9  A    between atoms: C_9  and  C_10
REMARK   10  A    between atoms: C_10  and  C_11
REMARK   11  A    between atoms: C_18  and  C_20
REMARK   12  A    between atoms: C_23  and  N_24
REMARK   13  A    between atoms: C_25  and  C_26
REMARK   14  A    between atoms: C_27  and  C_28
REMARK   15  A    between atoms: C_31  and  O_32
REMARK                            x       y       z     vdW  Elec       q    Type
REMARK                         _______ _______ _______ _____ _____    ______ ____
ROOT
ATOM      1  N   UNL     1       2.750   7.572  18.356  0.00  0.00    +0.000 N 
ATOM      2  C   UNL     1       1.981   8.022  19.405  0.00  0.00    +0.000 C 
ATOM      3  O   UNL     1       1.728   7.324  20.388  0.00  0.00    +0.000 OA
ATOM      4  H   UNL     1       2.782   8.088  17.484  0.00  0.00    +0.000 HD
ENDROOT
BRANCH   2   5
ATOM      5  C   UNL     1       1.422   9.396  19.317  0.00  0.00    +0.000 A 
ATOM      6  C   UNL     1       1.973  10.262  18.366  0.00  0.00    +0.000 A 
ATOM      7  C   UNL     1       1.487  11.562  18.225  0.00  0.00    +0.000 A 
ATOM      8  C   UNL     1       0.408  12.011  18.996  0.00  0.00    +0.000 A 
ATOM      9  C   UNL     1      -0.124  11.149  19.978  0.00  0.00    +0.000 A 
ATOM     10  C   UNL     1       0.365   9.839  20.120  0.00  0.00    +0.000 A 
BRANCH   8  11
ATOM     11  N   UNL     1       0.053  13.371  18.919  0.00  0.00    +0.000 N 
ATOM     12  H   UNL     1      -0.770  13.617  19.460  0.00  0.00    +0.000 HD
ATOM     13  H   UNL     1       0.829  14.005  19.085  0.00  0.00    +0.000 HD
ENDBRANCH   8  11
BRANCH   9  14
ATOM     14  C   UNL     1      -1.173  11.589  20.857  0.00  0.00    +0.000 C 
ATOM     15  C   UNL     1      -2.080  11.961  21.554  0.00  0.00    +0.000 C 
BRANCH  15  16
ATOM     16  C   UNL     1      -3.193  12.428  22.322  0.00  0.00    +0.000 A 
ATOM     17  C   UNL     1      -3.195  12.323  23.717  0.00  0.00    +0.000 A 
ATOM     18  C   UNL     1      -4.296  12.782  24.453  0.00  0.00    +0.000 A 
ATOM     19  C   UNL     1      -5.380  13.343  23.784  0.00  0.00    +0.000 A 
ATOM     20  C   UNL     1      -5.390  13.442  22.398  0.00  0.00    +0.000 A 
ATOM     21  C   UNL     1      -4.292  12.984  21.665  0.00  0.00    +0.000 A 
BRANCH  19  22
ATOM     22  O   UNL     1      -6.467  13.814  24.458  0.00  0.00    +0.000 OA
ATOM     23  H   UNL     1      -6.870  13.081  24.953  0.00  0.00    +0.000 HD
ENDBRANCH  19  22
ENDBRANCH  15  16
ENDBRANCH   9  14
ENDBRANCH   2   5
BRANCH   1  24
ATOM     24  C   UNL     1       3.266   6.197  18.345  0.00  0.00    +0.000 C 
BRANCH  24  25
ATOM     25  C   UNL     1       4.627   6.202  17.659  0.00  0.00    +0.000 C 
ATOM     26  O   UNL     1       4.777   6.519  16.485  0.00  0.00    +0.000 OA
BRANCH  25  27
ATOM     27  O   UNL     1       5.614   5.826  18.524  0.00  0.00    +0.000 OA
BRANCH  27  29
ATOM     28  C   UNL     1       7.343   7.203  17.458  0.00  0.00    +0.000 C 
ATOM     29  C   UNL     1       6.998   5.847  18.084  0.00  0.00    +0.000 C 
ATOM     30  C   UNL     1       7.291   4.683  17.132  0.00  0.00    +0.000 C 
ATOM     31  C   UNL     1       7.864   5.679  19.346  0.00  0.00    +0.000 C 
ENDBRANCH  27  29
ENDBRANCH  25  27
ENDBRANCH  24  25
BRANCH  24  32
ATOM     32  C   UNL     1       2.311   5.280  17.580  0.00  0.00    +0.000 C 
BRANCH  32  33
ATOM     33  C   UNL     1       2.717   3.806  17.664  0.00  0.00    +0.000 C 
BRANCH  33  34
ATOM     34  C   UNL     1       2.468   3.291  19.057  0.00  0.00    +0.000 A 
ATOM     35  C   UNL     1       1.199   3.400  19.640  0.00  0.00    +0.000 A 
ATOM     36  C   UNL     1       1.005   3.043  20.973  0.00  0.00    +0.000 A 
ATOM     37  C   UNL     1       2.078   2.575  21.732  0.00  0.00    +0.000 A 
ATOM     38  C   UNL     1       3.338   2.444  21.153  0.00  0.00    +0.000 A 
ATOM     39  C   UNL     1       3.532   2.799  19.820  0.00  0.00    +0.000 A 
ENDBRANCH  33  34
ENDBRANCH  32  33
ENDBRANCH  24  32
ENDBRANCH   1  24
TORSDOF 12
ENDMDL
MODEL 3
REMARK VINA RESULT:      -8.3      0.882      1.022
REMARK  Name = 
REMARK  15 active torsions:
REMARK  status: ('A' for Active; 'I' for Inactive)
REMARK    1  A    between atoms: C_1  and  C_2
REMARK    2  A    between atoms: C_2  and  C_3
REMARK    3  A    between atoms: C_2  and  C_4
REMARK    4  A    between atoms: C_2  and  O_5
REMARK    5  A    between atoms: O_5  and  C_6
REMARK    6  A    between atoms: C_6  and  C_8
REMARK    7  A    between atoms: C_8  and  C_9
REMARK    8  A    between atoms: C_8  and  N_17
REMARK    9  A    between atoms: C_9  and  C_10
REMARK   10  A    between atoms: C_10  and  C_11
REMARK   11  A    between atoms: C_18  and  C_20
REMARK   12  A    between atoms: C_23  and  N_24
REMARK   13  A    between atoms: C_25  and  C_26
REMARK   14  A    between atoms: C_27  and  C_28
REMARK   15  A    between atoms: C_31  and  O_32
REMARK                            x       y       z     vdW  Elec       q    Type
REMARK                         _______ _______ _______ _____ _____    ______ ____
ROOT
ATOM      1  N   UNL     1       2.995   6.518  18.336  0.00  0.00    +0.000 N 
ATOM      2  C   UNL     1       2.288   7.131  19.346  0.00  0.00    +0.000 C 
ATOM      3  O   UNL     1       2.005   6.557  20.398  0.00  0.00    +0.000 OA
ATOM      4  H   UNL     1       3.046   6.941  17.415  0.00  0.00    +0.000 HD
ENDROOT
BRANCH   2   5
ATOM      5  C   UNL     1       1.836   8.530  19.128  0.00  0.00    +0.000 A 
ATOM      6  C   UNL     1       2.404   9.237  18.062  0.00  0.00    +0.000 A 
ATOM      7  C   UNL     1       2.016  10.552  17.798  0.00  0.00    +0.000 A 
ATOM      8  C   UNL     1       1.019  11.172  18.560  0.00  0.00    +0.000 A 
ATOM      9  C   UNL     1       0.472  10.469  19.654  0.00  0.00    +0.000 A 
ATOM     10  C   UNL     1       0.862   9.146  19.921  0.00  0.00    +0.000 A 
BRANCH   8  11
ATOM     11  N   UNL     1       0.769  12.540  18.345  0.00  0.00    +0.000 N 
ATOM     12  H   UNL     1       1.311  13.159  18.938  0.00  0.00    +0.000 HD
ATOM     13  H   UNL     1       0.802  12.812  17.367  0.00  0.00    +0.000 HD
ENDBRANCH   8  11
BRANCH   9  14
ATOM     14  C   UNL     1      -0.491  11.090  20.523  0.00  0.00    +0.000 C 
ATOM     15  C   UNL     1      -1.333  11.588  21.223  0.00  0.00    +0.000 C 
BRANCH  15  16
ATOM     16  C   UNL     1      -2.383  12.167  22.003  0.00  0.00    +0.000 A 
ATOM     17  C   UNL     1      -2.521  11.859  23.360  0.00  0.00    +0.000 A 
ATOM     18  C   UNL     1      -3.559  12.432  24.107  0.00  0.00    +0.000 A 
ATOM     19  C   UNL     1      -4.445  13.309  23.487  0.00  0.00    +0.000 A 
ATOM     20  C   UNL     1      -4.319  13.614  22.137  0.00  0.00    +0.000 A 
ATOM     21  C   UNL     1      -3.285  13.041  21.392  0.00  0.00    +0.000 A 
BRANCH  19  22
ATOM     22  O   UNL     1      -5.461  13.900  24.176  0.00  0.00    +0.000 OA
ATOM     23  H   UNL     1      -5.362  13.694  25.120  0.00  0.00    +0.000 HD
ENDBRANCH  19  22
ENDBRANCH  15  16
ENDBRANCH   9  14
ENDBRANCH   2   5
BRANCH   1  24
ATOM     24  C   UNL     1       3.401   5.112  18.456  0.00  0.00    +0.000 C 
BRANCH  24  25
ATOM     25  C   UNL     1       4.917   5.064  18.604  0.00  0.00    +0.000 C 
ATOM     26  O   UNL     1       5.494   5.400  19.630  0.00  0.00    +0.000 OA
BRANCH  25  27
ATOM     27  O   UNL     1       5.507   4.593  17.466  0.00  0.00    +0.000 OA
BRANCH  27  29
ATOM     28  C   UNL     1       7.940   4.498  17.771  0.00  0.00    +0.000 C 
ATOM     29  C   UNL     1       6.771   5.157  17.029  0.00  0.00    +0.000 C 
ATOM     30  C   UNL     1       6.778   6.682  17.185  0.00  0.00    +0.000 C 
ATOM     31  C   UNL     1       6.912   4.816  15.534  0.00  0.00    +0.000 C 
ENDBRANCH  27  29
ENDBRANCH  25  27
ENDBRANCH  24  25
BRANCH  24  32
ATOM     32  C   UNL     1       2.984   4.333  17.208  0.00  0.00    +0.000 C 
BRANCH  32  33
ATOM     33  C   UNL     1       2.578   2.890  17.524  0.00  0.00    +0.000 C 
BRANCH  33  34
ATOM     34  C   UNL     1       2.278   2.759  18.993  0.00  0.00    +0.000 A 
ATOM     35  C   UNL     1       1.041   3.172  19.507  0.00  0.00    +0.000 A 
ATOM     36  C   UNL     1       0.817   3.171  20.883  0.00  0.00    +0.000 A 
ATOM     37  C   UNL     1       1.825   2.756  21.753  0.00  0.00    +0.000 A 
ATOM     38  C   UNL     1       3.049   2.324  21.248  0.00  0.00    +0.000 A 
ATOM     39  C   UNL     1       3.274   2.324  19.873  0.00  0.00    +0.000 A 
ENDBRANCH  33  34
ENDBRANCH  32  33
ENDBRANCH  24  32
ENDBRANCH   1  24
TORSDOF 12
ENDMDL
MODEL 4
REMARK VINA RESULT:      -8.2      1.062      1.307
REMARK  Name = 
REMARK  15 active torsions:
REMARK  status: ('A' for Active; 'I' for Inactive)
REMARK    1  A    between atoms: C_1  and  C_2
REMARK    2  A    between atoms: C_2  and  C_3
REMARK    3  A    between atoms: C_2  and  C_4
REMARK    4  A    between atoms: C_2  and  O_5
REMARK    5  A    between atoms: O_5  and  C_6
REMARK    6  A    between atoms: C_6  and  C_8
REMARK    7  A    between atoms: C_8  and  C_9
REMARK    8  A    between atoms: C_8  and  N_17
REMARK    9  A    between atoms: C_9  and  C_10
REMARK   10  A    between atoms: C_10  and  C_11
REMARK   11  A    between atoms: C_18  and  C_20
REMARK   12  A    between atoms: C_23  and  N_24
REMARK   13  A    between atoms: C_25  and  C_26
REMARK   14  A    between atoms: C_27  and  C_28
REMARK   15  A    between atoms: C_31  and  O_32
REMARK                            x       y       z     vdW  Elec       q    Type
REMARK                         _______ _______ _______ _____ _____    ______ ____
ROOT
ATOM      1  N   UNL     1       3.173   6.617  18.495  0.00  0.00    +0.000 N 
ATOM      2  C   UNL     1       2.346   7.185  19.437  0.00  0.00    +0.000 C 
ATOM      3  O   UNL     1       1.994   6.589  20.455  0.00  0.00    +0.000 OA
ATOM      4  H   UNL     1       3.289   7.049  17.586  0.00  0.00    +0.000 HD
ENDROOT
BRANCH   2   5
ATOM      5  C   UNL     1       1.847   8.562  19.183  0.00  0.00    +0.000 A 
ATOM      6  C   UNL     1       2.379   9.253  18.089  0.00  0.00    +0.000 A 
ATOM      7  C   UNL     1       1.946  10.546  17.790  0.00  0.00    +0.000 A 
ATOM      8  C   UNL     1       0.939  11.158  18.546  0.00  0.00    +0.000 A 
ATOM      9  C   UNL     1       0.429  10.473  19.669  0.00  0.00    +0.000 A 
ATOM     10  C   UNL     1       0.864   9.171  19.971  0.00  0.00    +0.000 A 
BRANCH   8  11
ATOM     11  N   UNL     1       0.644  12.511  18.294  0.00  0.00    +0.000 N 
ATOM     12  H   UNL     1      -0.242  12.821  18.679  0.00  0.00    +0.000 HD
ATOM     13  H   UNL     1       1.407  13.143  18.519  0.00  0.00    +0.000 HD
ENDBRANCH   8  11
BRANCH   9  14
ATOM     14  C   UNL     1      -0.542  11.089  20.532  0.00  0.00    +0.000 C 
ATOM     15  C   UNL     1      -1.390  11.589  21.224  0.00  0.00    +0.000 C 
BRANCH  15  16
ATOM     16  C   UNL     1      -2.445  12.178  21.989  0.00  0.00    +0.000 A 
ATOM     17  C   UNL     1      -3.354  13.060  21.395  0.00  0.00    +0.000 A 
ATOM     18  C   UNL     1      -4.379  13.632  22.161  0.00  0.00    +0.000 A 
ATOM     19  C   UNL     1      -4.482  13.313  23.512  0.00  0.00    +0.000 A 
ATOM     20  C   UNL     1      -3.577  12.445  24.112  0.00  0.00    +0.000 A 
ATOM     21  C   UNL     1      -2.556  11.876  23.348  0.00  0.00    +0.000 A 
BRANCH  19  22
ATOM     22  O   UNL     1      -5.469  13.834  24.294  0.00  0.00    +0.000 OA
ATOM     23  H   UNL     1      -6.170  14.187  23.720  0.00  0.00    +0.000 HD
ENDBRANCH  19  22
ENDBRANCH  15  16
ENDBRANCH   9  14
ENDBRANCH   2   5
BRANCH   1  24
ATOM     24  C   UNL     1       3.635   5.231  18.647  0.00  0.00    +0.000 C 
BRANCH  24  25
ATOM     25  C   UNL     1       5.145   5.251  18.858  0.00  0.00    +0.000 C 
ATOM     26  O   UNL     1       5.750   4.341  19.410  0.00  0.00    +0.000 OA
BRANCH  25  27
ATOM     27  O   UNL     1       5.697   6.390  18.345  0.00  0.00    +0.000 OA
BRANCH  27  29
ATOM     28  C   UNL     1       7.663   7.447  17.325  0.00  0.00    +0.000 C 
ATOM     29  C   UNL     1       6.653   6.295  17.257  0.00  0.00    +0.000 C 
ATOM     30  C   UNL     1       5.941   6.234  15.901  0.00  0.00    +0.000 C 
ATOM     31  C   UNL     1       7.428   4.980  17.465  0.00  0.00    +0.000 C 
ENDBRANCH  27  29
ENDBRANCH  25  27
ENDBRANCH  24  25
BRANCH  24  32
ATOM     32  C   UNL     1       3.305   4.422  17.393  0.00  0.00    +0.000 C 
BRANCH  32  33
ATOM     33  C   UNL     1       3.027   2.948  17.699  0.00  0.00    +0.000 C 
BRANCH  33  34
ATOM     34  C   UNL     1       2.416   2.822  19.069  0.00  0.00    +0.000 A 
ATOM     35  C   UNL     1       1.104   3.255  19.305  0.00  0.00    +0.000 A 
ATOM     36  C   UNL     1       0.588   3.259  20.600  0.00  0.00    +0.000 A 
ATOM     37  C   UNL     1       1.378   2.829  21.666  0.00  0.00    +0.000 A 
ATOM     38  C   UNL     1       2.676   2.377  21.436  0.00  0.00    +0.000 A 
ATOM     39  C   UNL     1       3.192   2.372  20.142  0.00  0.00    +0.000 A 
ENDBRANCH  33  34
ENDBRANCH  32  33
ENDBRANCH  24  32
ENDBRANCH   1  24
TORSDOF 12
ENDMDL
MODEL 5
REMARK VINA RESULT:      -8.2      1.837      4.148
REMARK  Name = 
REMARK  15 active torsions:
REMARK  status: ('A' for Active; 'I' for Inactive)
REMARK    1  A    between atoms: C_1  and  C_2
REMARK    2  A    between atoms: C_2  and  C_3
REMARK    3  A    between atoms: C_2  and  C_4
REMARK    4  A    between atoms: C_2  and  O_5
REMARK    5  A    between atoms: O_5  and  C_6
REMARK    6  A    between atoms: C_6  and  C_8
REMARK    7  A    between atoms: C_8  and  C_9
REMARK    8  A    between atoms: C_8  and  N_17
REMARK    9  A    between atoms: C_9  and  C_10
REMARK   10  A    between atoms: C_10  and  C_11
REMARK   11  A    between atoms: C_18  and  C_20
REMARK   12  A    between atoms: C_23  and  N_24
REMARK   13  A    between atoms: C_25  and  C_26
REMARK   14  A    between atoms: C_27  and  C_28
REMARK   15  A    between atoms: C_31  and  O_32
REMARK                            x       y       z     vdW  Elec       q    Type
REMARK                         _______ _______ _______ _____ _____    ______ ____
ROOT
ATOM      1  N   UNL     1       1.888   8.404  19.246  0.00  0.00    +0.000 N 
ATOM      2  C   UNL     1       1.638   9.423  18.354  0.00  0.00    +0.000 C 
ATOM      3  O   UNL     1       1.795   9.294  17.140  0.00  0.00    +0.000 OA
ATOM      4  H   UNL     1       1.937   8.593  20.240  0.00  0.00    +0.000 HD
ENDROOT
BRANCH   2   5
ATOM      5  C   UNL     1       1.186  10.730  18.902  0.00  0.00    +0.000 A 
ATOM      6  C   UNL     1       1.957  11.859  18.605  0.00  0.00    +0.000 A 
ATOM      7  C   UNL     1       1.582  13.116  19.081  0.00  0.00    +0.000 A 
ATOM      8  C   UNL     1       0.405  13.282  19.820  0.00  0.00    +0.000 A 
ATOM      9  C   UNL     1      -0.352  12.137  20.147  0.00  0.00    +0.000 A 
ATOM     10  C   UNL     1       0.025  10.870  19.669  0.00  0.00    +0.000 A 
BRANCH   8  11
ATOM     11  N   UNL     1       0.151  14.540  20.397  0.00  0.00    +0.000 N 
ATOM     12  H   UNL     1       0.964  15.143  20.455  0.00  0.00    +0.000 HD
ATOM     13  H   UNL     1      -0.657  15.014  20.001  0.00  0.00    +0.000 HD
ENDBRANCH   8  11
BRANCH   9  14
ATOM     14  C   UNL     1      -1.520  12.238  20.979  0.00  0.00    +0.000 C 
ATOM     15  C   UNL     1      -2.505  12.368  21.659  0.00  0.00    +0.000 C 
BRANCH  15  16
ATOM     16  C   UNL     1      -3.668  12.596  22.459  0.00  0.00    +0.000 A 
ATOM     17  C   UNL     1      -3.634  12.398  23.844  0.00  0.00    +0.000 A 
ATOM     18  C   UNL     1      -4.784  12.622  24.612  0.00  0.00    +0.000 A 
ATOM     19  C   UNL     1      -5.954  13.043  23.986  0.00  0.00    +0.000 A 
ATOM     20  C   UNL     1      -5.998  13.234  22.610  0.00  0.00    +0.000 A 
ATOM     21  C   UNL     1      -4.851  13.009  21.844  0.00  0.00    +0.000 A 
BRANCH  19  22
ATOM     22  O   UNL     1      -7.093  13.285  24.693  0.00  0.00    +0.000 OA
ATOM     23  H   UNL     1      -7.207  12.582  25.354  0.00  0.00    +0.000 HD
ENDBRANCH  19  22
ENDBRANCH  15  16
ENDBRANCH   9  14
ENDBRANCH   2   5
BRANCH   1  24
ATOM     24  C   UNL     1       2.413   7.115  18.776  0.00  0.00    +0.000 C 
BRANCH  24  25
ATOM     25  C   UNL     1       2.308   6.112  19.920  0.00  0.00    +0.000 C 
ATOM     26  O   UNL     1       1.464   6.199  20.803  0.00  0.00    +0.000 OA
BRANCH  25  27
ATOM     27  O   UNL     1       3.254   5.135  19.804  0.00  0.00    +0.000 OA
BRANCH  27  29
ATOM     28  C   UNL     1       1.798   3.930  18.238  0.00  0.00    +0.000 C 
ATOM     29  C   UNL     1       2.869   3.818  19.330  0.00  0.00    +0.000 C 
ATOM     30  C   UNL     1       2.416   2.925  20.490  0.00  0.00    +0.000 C 
ATOM     31  C   UNL     1       4.125   3.195  18.692  0.00  0.00    +0.000 C 
ENDBRANCH  27  29
ENDBRANCH  25  27
ENDBRANCH  24  25
BRANCH  24  32
ATOM     32  C   UNL     1       3.875   7.261  18.357  0.00  0.00    +0.000 C 
BRANCH  32  33
ATOM     33  C   UNL     1       4.104   6.904  16.885  0.00  0.00    +0.000 C 
BRANCH  33  34
ATOM     34  C   UNL     1       5.356   6.079  16.754  0.00  0.00    +0.000 A 
ATOM     35  C   UNL     1       5.517   5.196  15.677  0.00  0.00    +0.000 A 
ATOM     36  C   UNL     1       6.616   4.340  15.629  0.00  0.00    +0.000 A 
ATOM     37  C   UNL     1       7.561   4.361  16.655  0.00  0.00    +0.000 A 
ATOM     38  C   UNL     1       7.419   5.250  17.717  0.00  0.00    +0.000 A 
ATOM     39  C   UNL     1       6.321   6.108  17.765  0.00  0.00    +0.000 A 
ENDBRANCH  33  34
ENDBRANCH  32  33
ENDBRANCH  24  32
ENDBRANCH   1  24
TORSDOF 12
ENDMDL
MODEL 6
REMARK VINA RESULT:      -8.2      1.844      3.976
REMARK  Name = 
REMARK  15 active torsions:
REMARK  status: ('A' for Active; 'I' for Inactive)
REMARK    1  A    between atoms: C_1  and  C_2
REMARK    2  A    between atoms: C_2  and  C_3
REMARK    3  A    between atoms: C_2  and  C_4
REMARK    4  A    between atoms: C_2  and  O_5
REMARK    5  A    between atoms: O_5  and  C_6
REMARK    6  A    between atoms: C_6  and  C_8
REMARK    7  A    between atoms: C_8  and  C_9
REMARK    8  A    between atoms: C_8  and  N_17
REMARK    9  A    between atoms: C_9  and  C_10
REMARK   10  A    between atoms: C_10  and  C_11
REMARK   11  A    between atoms: C_18  and  C_20
REMARK   12  A    between atoms: C_23  and  N_24
REMARK   13  A    between atoms: C_25  and  C_26
REMARK   14  A    between atoms: C_27  and  C_28
REMARK   15  A    between atoms: C_31  and  O_32
REMARK                            x       y       z     vdW  Elec       q    Type
REMARK                         _______ _______ _______ _____ _____    ______ ____
ROOT
ATOM      1  N   UNL     1       3.590   6.103  18.140  0.00  0.00    +0.000 N 
ATOM      2  C   UNL     1       2.698   6.598  19.064  0.00  0.00    +0.000 C 
ATOM      3  O   UNL     1       2.249   5.913  19.984  0.00  0.00    +0.000 OA
ATOM      4  H   UNL     1       3.790   6.620  17.291  0.00  0.00    +0.000 HD
ENDROOT
BRANCH   2   5
ATOM      5  C   UNL     1       2.250   8.007  18.912  0.00  0.00    +0.000 A 
ATOM      6  C   UNL     1       2.661   8.699  17.767  0.00  0.00    +0.000 A 
ATOM      7  C   UNL     1       2.268  10.021  17.559  0.00  0.00    +0.000 A 
ATOM      8  C   UNL     1       1.416  10.667  18.464  0.00  0.00    +0.000 A 
ATOM      9  C   UNL     1       1.031   9.979  19.634  0.00  0.00    +0.000 A 
ATOM     10  C   UNL     1       1.427   8.647  19.844  0.00  0.00    +0.000 A 
BRANCH   8  11
ATOM     11  N   UNL     1       1.168  12.041  18.284  0.00  0.00    +0.000 N 
ATOM     12  H   UNL     1       0.525  12.251  17.529  0.00  0.00    +0.000 HD
ATOM     13  H   UNL     1       0.931  12.527  19.144  0.00  0.00    +0.000 HD
ENDBRANCH   8  11
BRANCH   9  14
ATOM     14  C   UNL     1       0.230  10.624  20.640  0.00  0.00    +0.000 C 
ATOM     15  C   UNL     1      -0.438  11.205  21.454  0.00  0.00    +0.000 C 
BRANCH  15  16
ATOM     16  C   UNL     1      -1.210  11.960  22.392  0.00  0.00    +0.000 A 
ATOM     17  C   UNL     1      -2.372  11.425  22.959  0.00  0.00    +0.000 A 
ATOM     18  C   UNL     1      -3.118  12.180  23.873  0.00  0.00    +0.000 A 
ATOM     19  C   UNL     1      -2.692  13.461  24.211  0.00  0.00    +0.000 A 
ATOM     20  C   UNL     1      -1.543  14.004  23.646  0.00  0.00    +0.000 A 
ATOM     21  C   UNL     1      -0.800  13.250  22.734  0.00  0.00    +0.000 A 
BRANCH  19  22
ATOM     22  O   UNL     1      -3.378  14.228  25.105  0.00  0.00    +0.000 OA
ATOM     23  H   UNL     1      -3.908  13.646  25.675  0.00  0.00    +0.000 HD
ENDBRANCH  19  22
ENDBRANCH  15  16
ENDBRANCH   9  14
ENDBRANCH   2   5
BRANCH   1  24
ATOM     24  C   UNL     1       4.009   4.696  18.187  0.00  0.00    +0.000 C 
BRANCH  24  25
ATOM     25  C   UNL     1       5.225   4.591  19.100  0.00  0.00    +0.000 C 
ATOM     26  O   UNL     1       5.507   3.569  19.714  0.00  0.00    +0.000 OA
BRANCH  25  27
ATOM     27  O   UNL     1       5.929   5.760  19.117  0.00  0.00    +0.000 OA
BRANCH  27  29
ATOM     28  C   UNL     1       7.572   7.055  17.833  0.00  0.00    +0.000 C 
ATOM     29  C   UNL     1       7.299   5.778  18.636  0.00  0.00    +0.000 C 
ATOM     30  C   UNL     1       7.618   4.513  17.832  0.00  0.00    +0.000 C 
ATOM     31  C   UNL     1       8.203   5.807  19.883  0.00  0.00    +0.000 C 
ENDBRANCH  27  29
ENDBRANCH  25  27
ENDBRANCH  24  25
BRANCH  24  32
ATOM     32  C   UNL     1       4.377   4.207  16.787  0.00  0.00    +0.000 C 
BRANCH  32  33
ATOM     33  C   UNL     1       4.777   5.350  15.849  0.00  0.00    +0.000 C 
BRANCH  33  34
ATOM     34  C   UNL     1       5.606   4.808  14.716  0.00  0.00    +0.000 A 
ATOM     35  C   UNL     1       6.901   5.292  14.486  0.00  0.00    +0.000 A 
ATOM     36  C   UNL     1       7.613   4.884  13.360  0.00  0.00    +0.000 A 
ATOM     37  C   UNL     1       7.038   3.990  12.457  0.00  0.00    +0.000 A 
ATOM     38  C   UNL     1       5.760   3.488  12.690  0.00  0.00    +0.000 A 
ATOM     39  C   UNL     1       5.047   3.894  13.816  0.00  0.00    +0.000 A 
ENDBRANCH  33  34
ENDBRANCH  32  33
ENDBRANCH  24  32
ENDBRANCH   1  24
TORSDOF 12
ENDMDL
MODEL 7
REMARK VINA RESULT:      -8.1      3.181      4.090
REMARK  Name = 
REMARK  15 active torsions:
REMARK  status: ('A' for Active; 'I' for Inactive)
REMARK    1  A    between atoms: C_1  and  C_2
REMARK    2  A    between atoms: C_2  and  C_3
REMARK    3  A    between atoms: C_2  and  C_4
REMARK    4  A    between atoms: C_2  and  O_5
REMARK    5  A    between atoms: O_5  and  C_6
REMARK    6  A    between atoms: C_6  and  C_8
REMARK    7  A    between atoms: C_8  and  C_9
REMARK    8  A    between atoms: C_8  and  N_17
REMARK    9  A    between atoms: C_9  and  C_10
REMARK   10  A    between atoms: C_10  and  C_11
REMARK   11  A    between atoms: C_18  and  C_20
REMARK   12  A    between atoms: C_23  and  N_24
REMARK   13  A    between atoms: C_25  and  C_26
REMARK   14  A    between atoms: C_27  and  C_28
REMARK   15  A    between atoms: C_31  and  O_32
REMARK                            x       y       z     vdW  Elec       q    Type
REMARK                         _______ _______ _______ _____ _____    ______ ____
ROOT
ATOM      1  N   UNL     1       2.187   7.666  19.282  0.00  0.00    +0.000 N 
ATOM      2  C   UNL     1       1.577   7.617  20.515  0.00  0.00    +0.000 C 
ATOM      3  O   UNL     1       1.542   6.592  21.196  0.00  0.00    +0.000 OA
ATOM      4  H   UNL     1       2.035   8.456  18.665  0.00  0.00    +0.000 HD
ENDROOT
BRANCH   2   5
ATOM      5  C   UNL     1       0.917   8.853  21.013  0.00  0.00    +0.000 A 
ATOM      6  C   UNL     1       0.117   8.747  22.156  0.00  0.00    +0.000 A 
ATOM      7  C   UNL     1      -0.522   9.871  22.680  0.00  0.00    +0.000 A 
ATOM      8  C   UNL     1      -0.337  11.134  22.104  0.00  0.00    +0.000 A 
ATOM      9  C   UNL     1       0.442  11.234  20.933  0.00  0.00    +0.000 A 
ATOM     10  C   UNL     1       1.086  10.102  20.404  0.00  0.00    +0.000 A 
BRANCH   8  11
ATOM     11  N   UNL     1      -1.116  12.205  22.581  0.00  0.00    +0.000 N 
ATOM     12  H   UNL     1      -0.968  13.079  22.088  0.00  0.00    +0.000 HD
ATOM     13  H   UNL     1      -2.102  11.979  22.682  0.00  0.00    +0.000 HD
ENDBRANCH   8  11
BRANCH   9  14
ATOM     14  C   UNL     1       0.592  12.490  20.250  0.00  0.00    +0.000 C 
ATOM     15  C   UNL     1       0.765  13.542  19.693  0.00  0.00    +0.000 C 
BRANCH  15  16
ATOM     16  C   UNL     1       1.032  14.802  19.070  0.00  0.00    +0.000 A 
ATOM     17  C   UNL     1       2.326  15.135  18.654  0.00  0.00    +0.000 A 
ATOM     18  C   UNL     1       2.571  16.375  18.051  0.00  0.00    +0.000 A 
ATOM     19  C   UNL     1       1.517  17.267  17.868  0.00  0.00    +0.000 A 
ATOM     20  C   UNL     1       0.231  16.947  18.286  0.00  0.00    +0.000 A 
ATOM     21  C   UNL     1      -0.012  15.710  18.889  0.00  0.00    +0.000 A 
BRANCH  19  22
ATOM     22  O   UNL     1       1.704  18.479  17.274  0.00  0.00    +0.000 OA
ATOM     23  H   UNL     1       1.782  18.350  16.314  0.00  0.00    +0.000 HD
ENDBRANCH  19  22
ENDBRANCH  15  16
ENDBRANCH   9  14
ENDBRANCH   2   5
BRANCH   1  24
ATOM     24  C   UNL     1       2.786   6.459  18.698  0.00  0.00    +0.000 C 
BRANCH  24  25
ATOM     25  C   UNL     1       4.019   6.875  17.904  0.00  0.00    +0.000 C 
ATOM     26  O   UNL     1       3.987   7.731  17.029  0.00  0.00    +0.000 OA
BRANCH  25  27
ATOM     27  O   UNL     1       5.123   6.182  18.312  0.00  0.00    +0.000 OA
BRANCH  27  29
ATOM     28  C   UNL     1       7.196   6.904  17.217  0.00  0.00    +0.000 C 
ATOM     29  C   UNL     1       6.133   5.807  17.340  0.00  0.00    +0.000 C 
ATOM     30  C   UNL     1       5.497   5.469  15.987  0.00  0.00    +0.000 C 
ATOM     31  C   UNL     1       6.823   4.543  17.887  0.00  0.00    +0.000 C 
ENDBRANCH  27  29
ENDBRANCH  25  27
ENDBRANCH  24  25
BRANCH  24  32
ATOM     32  C   UNL     1       1.788   5.770  17.768  0.00  0.00    +0.000 C 
BRANCH  32  33
ATOM     33  C   UNL     1       1.995   4.254  17.701  0.00  0.00    +0.000 C 
BRANCH  33  34
ATOM     34  C   UNL     1       2.157   3.704  19.093  0.00  0.00    +0.000 A 
ATOM     35  C   UNL     1       3.405   3.246  19.538  0.00  0.00    +0.000 A 
ATOM     36  C   UNL     1       3.522   2.618  20.776  0.00  0.00    +0.000 A 
ATOM     37  C   UNL     1       2.395   2.446  21.580  0.00  0.00    +0.000 A 
ATOM     38  C   UNL     1       1.156   2.918  21.155  0.00  0.00    +0.000 A 
ATOM     39  C   UNL     1       1.037   3.546  19.917  0.00  0.00    +0.000 A 
ENDBRANCH  33  34
ENDBRANCH  32  33
ENDBRANCH  24  32
ENDBRANCH   1  24
TORSDOF 12
ENDMDL
MODEL 8
REMARK VINA RESULT:      -8.1      0.470      1.455
REMARK  Name = 
REMARK  15 active torsions:
REMARK  status: ('A' for Active; 'I' for Inactive)
REMARK    1  A    between atoms: C_1  and  C_2
REMARK    2  A    between atoms: C_2  and  C_3
REMARK    3  A    between atoms: C_2  and  C_4
REMARK    4  A    between atoms: C_2  and  O_5
REMARK    5  A    between atoms: O_5  and  C_6
REMARK    6  A    between atoms: C_6  and  C_8
REMARK    7  A    between atoms: C_8  and  C_9
REMARK    8  A    between atoms: C_8  and  N_17
REMARK    9  A    between atoms: C_9  and  C_10
REMARK   10  A    between atoms: C_10  and  C_11
REMARK   11  A    between atoms: C_18  and  C_20
REMARK   12  A    between atoms: C_23  and  N_24
REMARK   13  A    between atoms: C_25  and  C_26
REMARK   14  A    between atoms: C_27  and  C_28
REMARK   15  A    between atoms: C_31  and  O_32
REMARK                            x       y       z     vdW  Elec       q    Type
REMARK                         _______ _______ _______ _____ _____    ______ ____
ROOT
ATOM      1  N   UNL     1       3.112   6.734  18.467  0.00  0.00    +0.000 N 
ATOM      2  C   UNL     1       2.263   7.270  19.409  0.00  0.00    +0.000 C 
ATOM      3  O   UNL     1       1.877   6.634  20.390  0.00  0.00    +0.000 OA
ATOM      4  H   UNL     1       3.258   7.204  17.580  0.00  0.00    +0.000 HD
ENDROOT
BRANCH   2   5
ATOM      5  C   UNL     1       1.785   8.662  19.200  0.00  0.00    +0.000 A 
ATOM      6  C   UNL     1       2.190   9.320  18.034  0.00  0.00    +0.000 A 
ATOM      7  C   UNL     1       1.768  10.625  17.774  0.00  0.00    +0.000 A 
ATOM      8  C   UNL     1       0.894  11.283  18.648  0.00  0.00    +0.000 A 
ATOM      9  C   UNL     1       0.515  10.631  19.840  0.00  0.00    +0.000 A 
ATOM     10  C   UNL     1       0.939   9.317  20.102  0.00  0.00    +0.000 A 
BRANCH   8  11
ATOM     11  N   UNL     1       0.616  12.643  18.415  0.00  0.00    +0.000 N 
ATOM     12  H   UNL     1       1.400  13.263  18.591  0.00  0.00    +0.000 HD
ATOM     13  H   UNL     1       0.175  12.821  17.517  0.00  0.00    +0.000 HD
ENDBRANCH   8  11
BRANCH   9  14
ATOM     14  C   UNL     1      -0.309  11.294  20.814  0.00  0.00    +0.000 C 
ATOM     15  C   UNL     1      -0.962  11.881  21.637  0.00  0.00    +0.000 C 
BRANCH  15  16
ATOM     16  C   UNL     1      -1.675  12.609  22.640  0.00  0.00    +0.000 A 
ATOM     17  C   UNL     1      -2.919  12.165  23.099  0.00  0.00    +0.000 A 
ATOM     18  C   UNL     1      -3.606  12.894  24.079  0.00  0.00    +0.000 A 
ATOM     19  C   UNL     1      -3.039  14.058  24.589  0.00  0.00    +0.000 A 
ATOM     20  C   UNL     1      -1.807  14.511  24.131  0.00  0.00    +0.000 A 
ATOM     21  C   UNL     1      -1.123  13.784  23.154  0.00  0.00    +0.000 A 
BRANCH  19  22
ATOM     22  O   UNL     1      -3.664  14.793  25.551  0.00  0.00    +0.000 OA
ATOM     23  H   UNL     1      -3.006  15.070  26.211  0.00  0.00    +0.000 HD
ENDBRANCH  19  22
ENDBRANCH  15  16
ENDBRANCH   9  14
ENDBRANCH   2   5
BRANCH   1  24
ATOM     24  C   UNL     1       3.557   5.338  18.572  0.00  0.00    +0.000 C 
BRANCH  24  25
ATOM     25  C   UNL     1       5.081   5.319  18.546  0.00  0.00    +0.000 C 
ATOM     26  O   UNL     1       5.764   5.527  19.541  0.00  0.00    +0.000 OA
BRANCH  25  27
ATOM     27  O   UNL     1       5.547   5.035  17.295  0.00  0.00    +0.000 OA
BRANCH  27  29
ATOM     28  C   UNL     1       7.188   5.082  15.471  0.00  0.00    +0.000 C 
ATOM     29  C   UNL     1       6.930   5.328  16.962  0.00  0.00    +0.000 C 
ATOM     30  C   UNL     1       7.891   4.532  17.851  0.00  0.00    +0.000 C 
ATOM     31  C   UNL     1       7.140   6.829  17.233  0.00  0.00    +0.000 C 
ENDBRANCH  27  29
ENDBRANCH  25  27
ENDBRANCH  24  25
BRANCH  24  32
ATOM     32  C   UNL     1       3.016   4.521  17.399  0.00  0.00    +0.000 C 
BRANCH  32  33
ATOM     33  C   UNL     1       1.909   3.550  17.819  0.00  0.00    +0.000 C 
BRANCH  33  34
ATOM     34  C   UNL     1       2.064   3.206  19.276  0.00  0.00    +0.000 A 
ATOM     35  C   UNL     1       3.238   2.598  19.744  0.00  0.00    +0.000 A 
ATOM     36  C   UNL     1       3.326   2.163  21.065  0.00  0.00    +0.000 A 
ATOM     37  C   UNL     1       2.243   2.334  21.928  0.00  0.00    +0.000 A 
ATOM     38  C   UNL     1       1.082   2.956  21.477  0.00  0.00    +0.000 A 
ATOM     39  C   UNL     1       0.993   3.393  20.156  0.00  0.00    +0.000 A 
ENDBRANCH  33  34
ENDBRANCH  32  33
ENDBRANCH  24  32
ENDBRANCH   1  24
TORSDOF 12
ENDMDL
MODEL 9
REMARK VINA RESULT:      -8.0      2.779      4.914
REMARK  Name = 
REMARK  15 active torsions:
REMARK  status: ('A' for Active; 'I' for Inactive)
REMARK    1  A    between atoms: C_1  and  C_2
REMARK    2  A    between atoms: C_2  and  C_3
REMARK    3  A    between atoms: C_2  and  C_4
REMARK    4  A    between atoms: C_2  and  O_5
REMARK    5  A    between atoms: O_5  and  C_6
REMARK    6  A    between atoms: C_6  and  C_8
REMARK    7  A    between atoms: C_8  and  C_9
REMARK    8  A    between atoms: C_8  and  N_17
REMARK    9  A    between atoms: C_9  and  C_10
REMARK   10  A    between atoms: C_10  and  C_11
REMARK   11  A    between atoms: C_18  and  C_20
REMARK   12  A    between atoms: C_23  and  N_24
REMARK   13  A    between atoms: C_25  and  C_26
REMARK   14  A    between atoms: C_27  and  C_28
REMARK   15  A    between atoms: C_31  and  O_32
REMARK                            x       y       z     vdW  Elec       q    Type
REMARK                         _______ _______ _______ _____ _____    ______ ____
ROOT
ATOM      1  N   UNL     1       2.531   6.805  19.684  0.00  0.00    +0.000 N 
ATOM      2  C   UNL     1       1.964   7.969  19.215  0.00  0.00    +0.000 C 
ATOM      3  O   UNL     1       2.069   8.331  18.042  0.00  0.00    +0.000 OA
ATOM      4  H   UNL     1       2.595   6.630  20.680  0.00  0.00    +0.000 HD
ENDROOT
BRANCH   2   5
ATOM      5  C   UNL     1       1.224   8.821  20.183  0.00  0.00    +0.000 A 
ATOM      6  C   UNL     1       0.838   8.239  21.395  0.00  0.00    +0.000 A 
ATOM      7  C   UNL     1       0.149   8.987  22.351  0.00  0.00    +0.000 A 
ATOM      8  C   UNL     1      -0.126  10.343  22.139  0.00  0.00    +0.000 A 
ATOM      9  C   UNL     1       0.234  10.918  20.902  0.00  0.00    +0.000 A 
ATOM     10  C   UNL     1       0.928  10.166  19.939  0.00  0.00    +0.000 A 
BRANCH   8  11
ATOM     11  N   UNL     1      -0.948  11.011  23.067  0.00  0.00    +0.000 N 
ATOM     12  H   UNL     1      -1.939  10.950  22.863  0.00  0.00    +0.000 HD
ATOM     13  H   UNL     1      -0.736  10.785  24.035  0.00  0.00    +0.000 HD
ENDBRANCH   8  11
BRANCH   9  14
ATOM     14  C   UNL     1      -0.103  12.282  20.596  0.00  0.00    +0.000 C 
ATOM     15  C   UNL     1      -0.393  13.410  20.293  0.00  0.00    +0.000 C 
BRANCH  15  16
ATOM     16  C   UNL     1      -0.724  14.733  19.862  0.00  0.00    +0.000 A 
ATOM     17  C   UNL     1      -0.060  15.321  18.780  0.00  0.00    +0.000 A 
ATOM     18  C   UNL     1      -0.395  16.620  18.375  0.00  0.00    +0.000 A 
ATOM     19  C   UNL     1      -1.391  17.313  19.055  0.00  0.00    +0.000 A 
ATOM     20  C   UNL     1      -2.050  16.739  20.136  0.00  0.00    +0.000 A 
ATOM     21  C   UNL     1      -1.715  15.445  20.540  0.00  0.00    +0.000 A 
BRANCH  19  22
ATOM     22  O   UNL     1      -1.759  18.573  18.689  0.00  0.00    +0.000 OA
ATOM     23  H   UNL     1      -1.782  18.624  17.718  0.00  0.00    +0.000 HD
ENDBRANCH  19  22
ENDBRANCH  15  16
ENDBRANCH   9  14
ENDBRANCH   2   5
BRANCH   1  24
ATOM     24  C   UNL     1       3.342   5.961  18.797  0.00  0.00    +0.000 C 
BRANCH  24  25
ATOM     25  C   UNL     1       2.478   4.798  18.322  0.00  0.00    +0.000 C 
ATOM     26  O   UNL     1       2.539   4.347  17.185  0.00  0.00    +0.000 OA
BRANCH  25  27
ATOM     27  O   UNL     1       1.667   4.348  19.324  0.00  0.00    +0.000 OA
BRANCH  27  29
ATOM     28  C   UNL     1       3.097   2.364  19.520  0.00  0.00    +0.000 C 
ATOM     29  C   UNL     1       1.687   2.942  19.685  0.00  0.00    +0.000 C 
ATOM     30  C   UNL     1       0.645   2.154  18.884  0.00  0.00    +0.000 C 
ATOM     31  C   UNL     1       1.319   2.865  21.179  0.00  0.00    +0.000 C 
ENDBRANCH  27  29
ENDBRANCH  25  27
ENDBRANCH  24  25
BRANCH  24  32
ATOM     32  C   UNL     1       4.558   5.420  19.549  0.00  0.00    +0.000 C 
BRANCH  32  33
ATOM     33  C   UNL     1       5.883   5.824  18.894  0.00  0.00    +0.000 C 
BRANCH  33  34
ATOM     34  C   UNL     1       5.857   5.459  17.434  0.00  0.00    +0.000 A 
ATOM     35  C   UNL     1       5.549   6.423  16.465  0.00  0.00    +0.000 A 
ATOM     36  C   UNL     1       5.398   6.053  15.129  0.00  0.00    +0.000 A 
ATOM     37  C   UNL     1       5.555   4.719  14.754  0.00  0.00    +0.000 A 
ATOM     38  C   UNL     1       5.883   3.759  15.708  0.00  0.00    +0.000 A 
ATOM     39  C   UNL     1       6.035   4.128  17.043  0.00  0.00    +0.000 A 
ENDBRANCH  33  34
ENDBRANCH  32  33
ENDBRANCH  24  32
ENDBRANCH   1  24
TORSDOF 12
ENDMDL
