MODEL 1
REMARK VINA RESULT:      -7.5      0.000      0.000
REMARK  Name = 
REMARK  9 active torsions:
REMARK  status: ('A' for Active; 'I' for Inactive)
REMARK    1  A    between atoms: C_1  and  C_2
REMARK    2  A    between atoms: C_2  and  C_3
REMARK    3  A    between atoms: C_2  and  O_4
REMARK    4  A    between atoms: C_2  and  C_5
REMARK    5  A    between atoms: C_10  and  O_11
REMARK    6  A    between atoms: O_11  and  C_12
REMARK    7  A    between atoms: C_12  and  C_14
REMARK    8  A    between atoms: C_16  and  O_17
REMARK    9  A    between atoms: C_19  and  O_20
REMARK                            x       y       z     vdW  Elec       q    Type
REMARK                         _______ _______ _______ _____ _____    ______ ____
ROOT
ATOM      1  C   UNL     1       0.802  10.946  19.210  0.00  0.00    +0.000 C 
ATOM      2  C   UNL     1       1.010  10.197  20.541  0.00  0.00    +0.000 C 
ATOM      3  C   UNL     1       1.458   8.889  20.014  0.00  0.00    +0.000 A 
ATOM      4  C   UNL     1       1.552   7.668  20.655  0.00  0.00    +0.000 A 
ATOM      5  C   UNL     1       1.997   6.568  19.916  0.00  0.00    +0.000 A 
ATOM      6  C   UNL     1       2.332   6.716  18.561  0.00  0.00    +0.000 A 
ATOM      7  C   UNL     1       2.278   7.965  17.932  0.00  0.00    +0.000 A 
ATOM      8  C   UNL     1       1.819   9.029  18.683  0.00  0.00    +0.000 A 
ATOM      9  O   UNL     1       1.615  10.294  18.190  0.00  0.00    +0.000 OA
ENDROOT
BRANCH   1  11
ATOM     10  C   UNL     1      -1.075  10.036  17.668  0.00  0.00    +0.000 C 
ATOM     11  C   UNL     1      -0.685  11.052  18.750  0.00  0.00    +0.000 C 
ATOM     12  C   UNL     1      -0.971  12.468  18.231  0.00  0.00    +0.000 C 
BRANCH  11  13
ATOM     13  O   UNL     1      -1.534  10.833  19.887  0.00  0.00    +0.000 OA
ATOM     14  H   UNL     1      -1.912  11.693  20.146  0.00  0.00    +0.000 HD
ENDBRANCH  11  13
ENDBRANCH   1  11
BRANCH   6  15
ATOM     15  O   UNL     1       2.772   5.643  17.750  0.00  0.00    +0.000 OA
BRANCH  15  16
ATOM     16  C   UNL     1       3.555   4.610  18.248  0.00  0.00    +0.000 C 
ATOM     17  O   UNL     1       3.181   3.512  18.634  0.00  0.00    +0.000 OA
BRANCH  16  18
ATOM     18  C   UNL     1       4.992   4.994  18.216  0.00  0.00    +0.000 A 
ATOM     19  C   UNL     1       5.559   5.316  16.972  0.00  0.00    +0.000 A 
ATOM     20  C   UNL     1       6.885   5.740  16.906  0.00  0.00    +0.000 A 
ATOM     21  C   UNL     1       7.661   5.841  18.056  0.00  0.00    +0.000 A 
ATOM     22  C   UNL     1       7.096   5.509  19.282  0.00  0.00    +0.000 A 
ATOM     23  C   UNL     1       5.774   5.082  19.374  0.00  0.00    +0.000 A 
BRANCH  20  24
ATOM     24  O   UNL     1       7.466   6.076  15.720  0.00  0.00    +0.000 OA
ATOM     25  H   UNL     1       8.090   6.808  15.867  0.00  0.00    +0.000 HD
ENDBRANCH  20  24
BRANCH  22  26
ATOM     26  O   UNL     1       7.812   5.602  20.440  0.00  0.00    +0.000 OA
ATOM     27  H   UNL     1       7.203   5.809  21.168  0.00  0.00    +0.000 HD
ENDBRANCH  22  26
ENDBRANCH  16  18
ENDBRANCH  15  16
ENDBRANCH   6  15
TORSDOF 7
ENDMDL
MODEL 2
REMARK VINA RESULT:      -7.5      3.536      5.245
REMARK  Name = 
REMARK  9 active torsions:
REMARK  status: ('A' for Active; 'I' for Inactive)
REMARK    1  A    between atoms: C_1  and  C_2
REMARK    2  A    between atoms: C_2  and  C_3
REMARK    3  A    between atoms: C_2  and  O_4
REMARK    4  A    between atoms: C_2  and  C_5
REMARK    5  A    between atoms: C_10  and  O_11
REMARK    6  A    between atoms: O_11  and  C_12
REMARK    7  A    between atoms: C_12  and  C_14
REMARK    8  A    between atoms: C_16  and  O_17
REMARK    9  A    between atoms: C_19  and  O_20
REMARK                            x       y       z     vdW  Elec       q    Type
REMARK                         _______ _______ _______ _____ _____    ______ ____
ROOT
ATOM      1  C   UNL     1       1.673   3.768  19.555  0.00  0.00    +0.000 C 
ATOM      2  C   UNL     1       1.427   5.287  19.484  0.00  0.00    +0.000 C 
ATOM      3  C   UNL     1       2.467   5.653  18.497  0.00  0.00    +0.000 A 
ATOM      4  C   UNL     1       2.979   6.897  18.180  0.00  0.00    +0.000 A 
ATOM      5  C   UNL     1       3.981   6.969  17.208  0.00  0.00    +0.000 A 
ATOM      6  C   UNL     1       4.443   5.801  16.582  0.00  0.00    +0.000 A 
ATOM      7  C   UNL     1       3.887   4.551  16.876  0.00  0.00    +0.000 A 
ATOM      8  C   UNL     1       2.912   4.509  17.853  0.00  0.00    +0.000 A 
ATOM      9  O   UNL     1       2.336   3.355  18.323  0.00  0.00    +0.000 OA
ENDROOT
BRANCH   1  11
ATOM     10  C   UNL     1       3.743   2.493  20.462  0.00  0.00    +0.000 C 
ATOM     11  C   UNL     1       2.482   3.298  20.804  0.00  0.00    +0.000 C 
ATOM     12  C   UNL     1       1.585   2.454  21.721  0.00  0.00    +0.000 C 
BRANCH  11  13
ATOM     13  O   UNL     1       2.887   4.456  21.551  0.00  0.00    +0.000 OA
ATOM     14  H   UNL     1       2.440   5.230  21.165  0.00  0.00    +0.000 HD
ENDBRANCH  11  13
ENDBRANCH   1  11
BRANCH   6  15
ATOM     15  O   UNL     1       5.465   5.799  15.603  0.00  0.00    +0.000 OA
BRANCH  15  16
ATOM     16  C   UNL     1       6.731   5.287  15.853  0.00  0.00    +0.000 C 
ATOM     17  O   UNL     1       7.336   4.447  15.203  0.00  0.00    +0.000 OA
BRANCH  16  18
ATOM     18  C   UNL     1       7.325   5.947  17.048  0.00  0.00    +0.000 A 
ATOM     19  C   UNL     1       7.631   7.315  16.959  0.00  0.00    +0.000 A 
ATOM     20  C   UNL     1       8.130   7.984  18.074  0.00  0.00    +0.000 A 
ATOM     21  C   UNL     1       8.341   7.315  19.275  0.00  0.00    +0.000 A 
ATOM     22  C   UNL     1       8.047   5.959  19.351  0.00  0.00    +0.000 A 
ATOM     23  C   UNL     1       7.549   5.267  18.251  0.00  0.00    +0.000 A 
BRANCH  20  24
ATOM     24  O   UNL     1       8.424   9.315  18.033  0.00  0.00    +0.000 OA
ATOM     25  H   UNL     1       8.870   9.569  18.859  0.00  0.00    +0.000 HD
ENDBRANCH  20  24
BRANCH  22  26
ATOM     26  O   UNL     1       8.226   5.260  20.509  0.00  0.00    +0.000 OA
ATOM     27  H   UNL     1       8.081   5.858  21.261  0.00  0.00    +0.000 HD
ENDBRANCH  22  26
ENDBRANCH  16  18
ENDBRANCH  15  16
ENDBRANCH   6  15
TORSDOF 7
ENDMDL
MODEL 3
REMARK VINA RESULT:      -7.4      4.313      5.869
REMARK  Name = 
REMARK  9 active torsions:
REMARK  status: ('A' for Active; 'I' for Inactive)
REMARK    1  A    between atoms: C_1  and  C_2
REMARK    2  A    between atoms: C_2  and  C_3
REMARK    3  A    between atoms: C_2  and  O_4
REMARK    4  A    between atoms: C_2  and  C_5
REMARK    5  A    between atoms: C_10  and  O_11
REMARK    6  A    between atoms: O_11  and  C_12
REMARK    7  A    between atoms: C_12  and  C_14
REMARK    8  A    between atoms: C_16  and  O_17
REMARK    9  A    between atoms: C_19  and  O_20
REMARK                            x       y       z     vdW  Elec       q    Type
REMARK                         _______ _______ _______ _____ _____    ______ ____
ROOT
ATOM      1  C   UNL     1       1.461   2.752  19.805  0.00  0.00    +0.000 C 
ATOM      2  C   UNL     1       1.128   4.087  19.110  0.00  0.00    +0.000 C 
ATOM      3  C   UNL     1       2.345   4.235  18.281  0.00  0.00    +0.000 A 
ATOM      4  C   UNL     1       2.826   5.348  17.617  0.00  0.00    +0.000 A 
ATOM      5  C   UNL     1       4.023   5.225  16.906  0.00  0.00    +0.000 A 
ATOM      6  C   UNL     1       4.706   3.999  16.880  0.00  0.00    +0.000 A 
ATOM      7  C   UNL     1       4.188   2.866  17.517  0.00  0.00    +0.000 A 
ATOM      8  C   UNL     1       3.014   3.022  18.225  0.00  0.00    +0.000 A 
ATOM      9  O   UNL     1       2.428   2.037  18.981  0.00  0.00    +0.000 OA
ENDROOT
BRANCH   1  11
ATOM     10  C   UNL     1       2.328   4.335  21.670  0.00  0.00    +0.000 C 
ATOM     11  C   UNL     1       1.979   2.894  21.270  0.00  0.00    +0.000 C 
ATOM     12  C   UNL     1       3.213   2.006  21.477  0.00  0.00    +0.000 C 
BRANCH  11  13
ATOM     13  O   UNL     1       0.959   2.423  22.166  0.00  0.00    +0.000 OA
ATOM     14  H   UNL     1       0.145   2.923  21.977  0.00  0.00    +0.000 HD
ENDBRANCH  11  13
ENDBRANCH   1  11
BRANCH   6  15
ATOM     15  O   UNL     1       5.930   3.809  16.195  0.00  0.00    +0.000 OA
BRANCH  15  16
ATOM     16  C   UNL     1       6.688   4.872  15.723  0.00  0.00    +0.000 C 
ATOM     17  O   UNL     1       6.919   5.162  14.558  0.00  0.00    +0.000 OA
BRANCH  16  18
ATOM     18  C   UNL     1       7.184   5.695  16.860  0.00  0.00    +0.000 A 
ATOM     19  C   UNL     1       7.595   5.026  18.025  0.00  0.00    +0.000 A 
ATOM     20  C   UNL     1       8.122   5.754  19.089  0.00  0.00    +0.000 A 
ATOM     21  C   UNL     1       8.242   7.138  19.019  0.00  0.00    +0.000 A 
ATOM     22  C   UNL     1       7.822   7.793  17.868  0.00  0.00    +0.000 A 
ATOM     23  C   UNL     1       7.290   7.089  16.791  0.00  0.00    +0.000 A 
BRANCH  20  24
ATOM     24  O   UNL     1       8.546   5.140  20.230  0.00  0.00    +0.000 OA
ATOM     25  H   UNL     1       8.662   4.190  20.056  0.00  0.00    +0.000 HD
ENDBRANCH  20  24
BRANCH  22  26
ATOM     26  O   UNL     1       7.929   9.148  17.746  0.00  0.00    +0.000 OA
ATOM     27  H   UNL     1       8.452   9.350  16.953  0.00  0.00    +0.000 HD
ENDBRANCH  22  26
ENDBRANCH  16  18
ENDBRANCH  15  16
ENDBRANCH   6  15
TORSDOF 7
ENDMDL
MODEL 4
REMARK VINA RESULT:      -7.4      1.111      1.408
REMARK  Name = 
REMARK  9 active torsions:
REMARK  status: ('A' for Active; 'I' for Inactive)
REMARK    1  A    between atoms: C_1  and  C_2
REMARK    2  A    between atoms: C_2  and  C_3
REMARK    3  A    between atoms: C_2  and  O_4
REMARK    4  A    between atoms: C_2  and  C_5
REMARK    5  A    between atoms: C_10  and  O_11
REMARK    6  A    between atoms: O_11  and  C_12
REMARK    7  A    between atoms: C_12  and  C_14
REMARK    8  A    between atoms: C_16  and  O_17
REMARK    9  A    between atoms: C_19  and  O_20
REMARK                            x       y       z     vdW  Elec       q    Type
REMARK                         _______ _______ _______ _____ _____    ______ ____
ROOT
ATOM      1  C   UNL     1      -0.083  11.832  19.253  0.00  0.00    +0.000 C 
ATOM      2  C   UNL     1       0.146  11.040  20.555  0.00  0.00    +0.000 C 
ATOM      3  C   UNL     1       0.884   9.881  20.005  0.00  0.00    +0.000 A 
ATOM      4  C   UNL     1       1.155   8.656  20.584  0.00  0.00    +0.000 A 
ATOM      5  C   UNL     1       1.868   7.715  19.834  0.00  0.00    +0.000 A 
ATOM      6  C   UNL     1       2.287   8.023  18.530  0.00  0.00    +0.000 A 
ATOM      7  C   UNL     1       2.048   9.283  17.969  0.00  0.00    +0.000 A 
ATOM      8  C   UNL     1       1.327  10.184  18.726  0.00  0.00    +0.000 A 
ATOM      9  O   UNL     1       0.928  11.421  18.286  0.00  0.00    +0.000 OA
ENDROOT
BRANCH   1  11
ATOM     10  C   UNL     1      -2.624  12.263  19.546  0.00  0.00    +0.000 C 
ATOM     11  C   UNL     1      -1.516  11.693  18.651  0.00  0.00    +0.000 C 
ATOM     12  C   UNL     1      -1.819  10.217  18.361  0.00  0.00    +0.000 C 
BRANCH  11  13
ATOM     13  O   UNL     1      -1.557  12.392  17.398  0.00  0.00    +0.000 OA
ATOM     14  H   UNL     1      -0.964  13.161  17.467  0.00  0.00    +0.000 HD
ENDBRANCH  11  13
ENDBRANCH   1  11
BRANCH   6  15
ATOM     15  O   UNL     1       2.996   7.114  17.710  0.00  0.00    +0.000 OA
BRANCH  15  16
ATOM     16  C   UNL     1       3.369   5.852  18.152  0.00  0.00    +0.000 C 
ATOM     17  O   UNL     1       2.635   4.936  18.495  0.00  0.00    +0.000 OA
BRANCH  16  18
ATOM     18  C   UNL     1       4.850   5.712  18.119  0.00  0.00    +0.000 A 
ATOM     19  C   UNL     1       5.487   5.755  16.867  0.00  0.00    +0.000 A 
ATOM     20  C   UNL     1       6.876   5.690  16.797  0.00  0.00    +0.000 A 
ATOM     21  C   UNL     1       7.646   5.575  17.950  0.00  0.00    +0.000 A 
ATOM     22  C   UNL     1       7.008   5.522  19.183  0.00  0.00    +0.000 A 
ATOM     23  C   UNL     1       5.621   5.583  19.281  0.00  0.00    +0.000 A 
BRANCH  20  24
ATOM     24  O   UNL     1       7.531   5.744  15.603  0.00  0.00    +0.000 OA
ATOM     25  H   UNL     1       6.968   5.353  14.913  0.00  0.00    +0.000 HD
ENDBRANCH  20  24
BRANCH  22  26
ATOM     26  O   UNL     1       7.719   5.421  20.344  0.00  0.00    +0.000 OA
ATOM     27  H   UNL     1       8.455   4.801  20.207  0.00  0.00    +0.000 HD
ENDBRANCH  22  26
ENDBRANCH  16  18
ENDBRANCH  15  16
ENDBRANCH   6  15
TORSDOF 7
ENDMDL
MODEL 5
REMARK VINA RESULT:      -7.4      2.400      8.169
REMARK  Name = 
REMARK  9 active torsions:
REMARK  status: ('A' for Active; 'I' for Inactive)
REMARK    1  A    between atoms: C_1  and  C_2
REMARK    2  A    between atoms: C_2  and  C_3
REMARK    3  A    between atoms: C_2  and  O_4
REMARK    4  A    between atoms: C_2  and  C_5
REMARK    5  A    between atoms: C_10  and  O_11
REMARK    6  A    between atoms: O_11  and  C_12
REMARK    7  A    between atoms: C_12  and  C_14
REMARK    8  A    between atoms: C_16  and  O_17
REMARK    9  A    between atoms: C_19  and  O_20
REMARK                            x       y       z     vdW  Elec       q    Type
REMARK                         _______ _______ _______ _____ _____    ______ ____
ROOT
ATOM      1  C   UNL     1       3.348   4.253  19.164  0.00  0.00    +0.000 C 
ATOM      2  C   UNL     1       3.968   5.173  18.095  0.00  0.00    +0.000 C 
ATOM      3  C   UNL     1       3.220   6.416  18.384  0.00  0.00    +0.000 A 
ATOM      4  C   UNL     1       3.086   7.560  17.620  0.00  0.00    +0.000 A 
ATOM      5  C   UNL     1       2.300   8.601  18.123  0.00  0.00    +0.000 A 
ATOM      6  C   UNL     1       1.669   8.470  19.371  0.00  0.00    +0.000 A 
ATOM      7  C   UNL     1       1.848   7.327  20.158  0.00  0.00    +0.000 A 
ATOM      8  C   UNL     1       2.615   6.310  19.627  0.00  0.00    +0.000 A 
ATOM      9  O   UNL     1       2.807   5.090  20.228  0.00  0.00    +0.000 OA
ENDROOT
BRANCH   1  11
ATOM     10  C   UNL     1       1.042   3.127  19.546  0.00  0.00    +0.000 C 
ATOM     11  C   UNL     1       2.261   3.271  18.625  0.00  0.00    +0.000 C 
ATOM     12  C   UNL     1       2.877   1.885  18.393  0.00  0.00    +0.000 C 
BRANCH  11  13
ATOM     13  O   UNL     1       1.798   3.752  17.354  0.00  0.00    +0.000 OA
ATOM     14  H   UNL     1       1.158   4.466  17.521  0.00  0.00    +0.000 HD
ENDBRANCH  11  13
ENDBRANCH   1  11
BRANCH   6  15
ATOM     15  O   UNL     1       0.847   9.476  19.931  0.00  0.00    +0.000 OA
BRANCH  15  16
ATOM     16  C   UNL     1       0.662  10.709  19.320  0.00  0.00    +0.000 C 
ATOM     17  O   UNL     1       1.475  11.615  19.211  0.00  0.00    +0.000 OA
BRANCH  16  18
ATOM     18  C   UNL     1      -0.706  10.794  18.739  0.00  0.00    +0.000 A 
ATOM     19  C   UNL     1      -1.633  11.645  19.364  0.00  0.00    +0.000 A 
ATOM     20  C   UNL     1      -2.904  11.801  18.816  0.00  0.00    +0.000 A 
ATOM     21  C   UNL     1      -3.274  11.119  17.662  0.00  0.00    +0.000 A 
ATOM     22  C   UNL     1      -2.355  10.271  17.057  0.00  0.00    +0.000 A 
ATOM     23  C   UNL     1      -1.079  10.096  17.585  0.00  0.00    +0.000 A 
BRANCH  20  24
ATOM     24  O   UNL     1      -3.827  12.629  19.384  0.00  0.00    +0.000 OA
ATOM     25  H   UNL     1      -4.111  12.253  20.235  0.00  0.00    +0.000 HD
ENDBRANCH  20  24
BRANCH  22  26
ATOM     26  O   UNL     1      -2.665   9.588  15.917  0.00  0.00    +0.000 OA
ATOM     27  H   UNL     1      -1.861   9.159  15.580  0.00  0.00    +0.000 HD
ENDBRANCH  22  26
ENDBRANCH  16  18
ENDBRANCH  15  16
ENDBRANCH   6  15
TORSDOF 7
ENDMDL
MODEL 6
REMARK VINA RESULT:      -7.4      4.494      5.804
REMARK  Name = 
REMARK  9 active torsions:
REMARK  status: ('A' for Active; 'I' for Inactive)
REMARK    1  A    between atoms: C_1  and  C_2
REMARK    2  A    between atoms: C_2  and  C_3
REMARK    3  A    between atoms: C_2  and  O_4
REMARK    4  A    between atoms: C_2  and  C_5
REMARK    5  A    between atoms: C_10  and  O_11
REMARK    6  A    between atoms: O_11  and  C_12
REMARK    7  A    between atoms: C_12  and  C_14
REMARK    8  A    between atoms: C_16  and  O_17
REMARK    9  A    between atoms: C_19  and  O_20
REMARK                            x       y       z     vdW  Elec       q    Type
REMARK                         _______ _______ _______ _____ _____    ______ ____
ROOT
ATOM      1  C   UNL     1       1.614   2.511  19.822  0.00  0.00    +0.000 C 
ATOM      2  C   UNL     1       1.161   3.750  19.025  0.00  0.00    +0.000 C 
ATOM      3  C   UNL     1       2.370   3.959  18.198  0.00  0.00    +0.000 A 
ATOM      4  C   UNL     1       2.748   5.062  17.456  0.00  0.00    +0.000 A 
ATOM      5  C   UNL     1       3.963   5.008  16.766  0.00  0.00    +0.000 A 
ATOM      6  C   UNL     1       4.765   3.859  16.838  0.00  0.00    +0.000 A 
ATOM      7  C   UNL     1       4.353   2.729  17.554  0.00  0.00    +0.000 A 
ATOM      8  C   UNL     1       3.157   2.819  18.238  0.00  0.00    +0.000 A 
ATOM      9  O   UNL     1       2.661   1.838  19.061  0.00  0.00    +0.000 OA
ENDROOT
BRANCH   1  11
ATOM     10  C   UNL     1       1.159   2.260  22.364  0.00  0.00    +0.000 C 
ATOM     11  C   UNL     1       2.092   2.812  21.276  0.00  0.00    +0.000 C 
ATOM     12  C   UNL     1       2.246   4.326  21.473  0.00  0.00    +0.000 C 
BRANCH  11  13
ATOM     13  O   UNL     1       3.387   2.222  21.465  0.00  0.00    +0.000 OA
ATOM     14  H   UNL     1       3.979   2.578  20.779  0.00  0.00    +0.000 HD
ENDBRANCH  11  13
ENDBRANCH   1  11
BRANCH   6  15
ATOM     15  O   UNL     1       6.012   3.743  16.180  0.00  0.00    +0.000 OA
BRANCH  15  16
ATOM     16  C   UNL     1       6.712   4.849  15.717  0.00  0.00    +0.000 C 
ATOM     17  O   UNL     1       6.854   5.209  14.558  0.00  0.00    +0.000 OA
BRANCH  16  18
ATOM     18  C   UNL     1       7.269   5.621  16.862  0.00  0.00    +0.000 A 
ATOM     19  C   UNL     1       7.352   7.018  16.735  0.00  0.00    +0.000 A 
ATOM     20  C   UNL     1       7.809   7.782  17.806  0.00  0.00    +0.000 A 
ATOM     21  C   UNL     1       8.194   7.182  19.000  0.00  0.00    +0.000 A 
ATOM     22  C   UNL     1       8.120   5.799  19.114  0.00  0.00    +0.000 A 
ATOM     23  C   UNL     1       7.668   5.012  18.058  0.00  0.00    +0.000 A 
BRANCH  20  24
ATOM     24  O   UNL     1       7.889   9.141  17.726  0.00  0.00    +0.000 OA
ATOM     25  H   UNL     1       8.060   9.502  18.613  0.00  0.00    +0.000 HD
ENDBRANCH  20  24
BRANCH  22  26
ATOM     26  O   UNL     1       8.476   5.164  20.268  0.00  0.00    +0.000 OA
ATOM     27  H   UNL     1       8.261   5.740  21.021  0.00  0.00    +0.000 HD
ENDBRANCH  22  26
ENDBRANCH  16  18
ENDBRANCH  15  16
ENDBRANCH   6  15
TORSDOF 7
ENDMDL
MODEL 7
REMARK VINA RESULT:      -7.3      0.987      2.038
REMARK  Name = 
REMARK  9 active torsions:
REMARK  status: ('A' for Active; 'I' for Inactive)
REMARK    1  A    between atoms: C_1  and  C_2
REMARK    2  A    between atoms: C_2  and  C_3
REMARK    3  A    between atoms: C_2  and  O_4
REMARK    4  A    between atoms: C_2  and  C_5
REMARK    5  A    between atoms: C_10  and  O_11
REMARK    6  A    between atoms: O_11  and  C_12
REMARK    7  A    between atoms: C_12  and  C_14
REMARK    8  A    between atoms: C_16  and  O_17
REMARK    9  A    between atoms: C_19  and  O_20
REMARK                            x       y       z     vdW  Elec       q    Type
REMARK                         _______ _______ _______ _____ _____    ______ ____
ROOT
ATOM      1  C   UNL     1       1.447   9.770  19.770  0.00  0.00    +0.000 C 
ATOM      2  C   UNL     1       1.524   8.808  20.971  0.00  0.00    +0.000 C 
ATOM      3  C   UNL     1       1.782   7.542  20.250  0.00  0.00    +0.000 A 
ATOM      4  C   UNL     1       1.687   6.239  20.699  0.00  0.00    +0.000 A 
ATOM      5  C   UNL     1       1.975   5.208  19.799  0.00  0.00    +0.000 A 
ATOM      6  C   UNL     1       2.347   5.508  18.479  0.00  0.00    +0.000 A 
ATOM      7  C   UNL     1       2.485   6.831  18.046  0.00  0.00    +0.000 A 
ATOM      8  C   UNL     1       2.177   7.826  18.951  0.00  0.00    +0.000 A 
ATOM      9  O   UNL     1       2.169   9.167  18.656  0.00  0.00    +0.000 OA
ENDROOT
BRANCH   1  11
ATOM     10  C   UNL     1      -0.371   9.725  17.920  0.00  0.00    +0.000 C 
ATOM     11  C   UNL     1      -0.002  10.163  19.344  0.00  0.00    +0.000 C 
ATOM     12  C   UNL     1      -0.189  11.682  19.463  0.00  0.00    +0.000 C 
BRANCH  11  13
ATOM     13  O   UNL     1      -0.930   9.546  20.249  0.00  0.00    +0.000 OA
ATOM     14  H   UNL     1      -1.820   9.878  20.035  0.00  0.00    +0.000 HD
ENDBRANCH  11  13
ENDBRANCH   1  11
BRANCH   6  15
ATOM     15  O   UNL     1       2.635   4.515  17.512  0.00  0.00    +0.000 OA
BRANCH  15  16
ATOM     16  C   UNL     1       3.687   3.621  17.658  0.00  0.00    +0.000 C 
ATOM     17  O   UNL     1       3.624   2.403  17.732  0.00  0.00    +0.000 OA
BRANCH  16  18
ATOM     18  C   UNL     1       4.984   4.352  17.670  0.00  0.00    +0.000 A 
ATOM     19  C   UNL     1       5.589   4.596  18.915  0.00  0.00    +0.000 A 
ATOM     20  C   UNL     1       6.832   5.221  18.966  0.00  0.00    +0.000 A 
ATOM     21  C   UNL     1       7.483   5.617  17.803  0.00  0.00    +0.000 A 
ATOM     22  C   UNL     1       6.872   5.382  16.576  0.00  0.00    +0.000 A 
ATOM     23  C   UNL     1       5.629   4.760  16.497  0.00  0.00    +0.000 A 
BRANCH  20  24
ATOM     24  O   UNL     1       7.458   5.462  20.153  0.00  0.00    +0.000 OA
ATOM     25  H   UNL     1       6.951   5.045  20.871  0.00  0.00    +0.000 HD
ENDBRANCH  20  24
BRANCH  22  26
ATOM     26  O   UNL     1       7.474   5.742  15.406  0.00  0.00    +0.000 OA
ATOM     27  H   UNL     1       7.001   5.320  14.669  0.00  0.00    +0.000 HD
ENDBRANCH  22  26
ENDBRANCH  16  18
ENDBRANCH  15  16
ENDBRANCH   6  15
TORSDOF 7
ENDMDL
MODEL 8
REMARK VINA RESULT:      -7.2      2.550      3.363
REMARK  Name = 
REMARK  9 active torsions:
REMARK  status: ('A' for Active; 'I' for Inactive)
REMARK    1  A    between atoms: C_1  and  C_2
REMARK    2  A    between atoms: C_2  and  C_3
REMARK    3  A    between atoms: C_2  and  O_4
REMARK    4  A    between atoms: C_2  and  C_5
REMARK    5  A    between atoms: C_10  and  O_11
REMARK    6  A    between atoms: O_11  and  C_12
REMARK    7  A    between atoms: C_12  and  C_14
REMARK    8  A    between atoms: C_16  and  O_17
REMARK    9  A    between atoms: C_19  and  O_20
REMARK                            x       y       z     vdW  Elec       q    Type
REMARK                         _______ _______ _______ _____ _____    ______ ____
ROOT
ATOM      1  C   UNL     1       0.594  11.037  18.871  0.00  0.00    +0.000 C 
ATOM      2  C   UNL     1       0.926  10.485  20.271  0.00  0.00    +0.000 C 
ATOM      3  C   UNL     1       1.380   9.128  19.893  0.00  0.00    +0.000 A 
ATOM      4  C   UNL     1       1.566   8.011  20.685  0.00  0.00    +0.000 A 
ATOM      5  C   UNL     1       1.994   6.830  20.070  0.00  0.00    +0.000 A 
ATOM      6  C   UNL     1       2.222   6.798  18.685  0.00  0.00    +0.000 A 
ATOM      7  C   UNL     1       2.076   7.946  17.898  0.00  0.00    +0.000 A 
ATOM      8  C   UNL     1       1.636   9.092  18.531  0.00  0.00    +0.000 A 
ATOM      9  O   UNL     1       1.351  10.271  17.888  0.00  0.00    +0.000 OA
ENDROOT
BRANCH   1  11
ATOM     10  C   UNL     1      -1.312  10.045  17.416  0.00  0.00    +0.000 C 
ATOM     11  C   UNL     1      -0.926  11.041  18.518  0.00  0.00    +0.000 C 
ATOM     12  C   UNL     1      -1.360  12.450  18.092  0.00  0.00    +0.000 C 
BRANCH  11  13
ATOM     13  O   UNL     1      -1.672  10.702  19.698  0.00  0.00    +0.000 OA
ATOM     14  H   UNL     1      -1.155  10.046  20.198  0.00  0.00    +0.000 HD
ENDBRANCH  11  13
ENDBRANCH   1  11
BRANCH   6  15
ATOM     15  O   UNL     1       2.638   5.634  17.996  0.00  0.00    +0.000 OA
BRANCH  15  16
ATOM     16  C   UNL     1       1.902   4.457  18.015  0.00  0.00    +0.000 C 
ATOM     17  O   UNL     1       1.049   4.099  17.216  0.00  0.00    +0.000 OA
BRANCH  16  18
ATOM     18  C   UNL     1       2.323   3.607  19.162  0.00  0.00    +0.000 A 
ATOM     19  C   UNL     1       3.601   3.025  19.115  0.00  0.00    +0.000 A 
ATOM     20  C   UNL     1       4.057   2.273  20.195  0.00  0.00    +0.000 A 
ATOM     21  C   UNL     1       3.262   2.083  21.320  0.00  0.00    +0.000 A 
ATOM     22  C   UNL     1       1.995   2.653  21.355  0.00  0.00    +0.000 A 
ATOM     23  C   UNL     1       1.515   3.407  20.288  0.00  0.00    +0.000 A 
BRANCH  20  24
ATOM     24  O   UNL     1       5.296   1.705  20.193  0.00  0.00    +0.000 OA
ATOM     25  H   UNL     1       5.546   1.489  19.278  0.00  0.00    +0.000 HD
ENDBRANCH  20  24
BRANCH  22  26
ATOM     26  O   UNL     1       1.181   2.504  22.440  0.00  0.00    +0.000 OA
ATOM     27  H   UNL     1       1.453   1.709  22.928  0.00  0.00    +0.000 HD
ENDBRANCH  22  26
ENDBRANCH  16  18
ENDBRANCH  15  16
ENDBRANCH   6  15
TORSDOF 7
ENDMDL
MODEL 9
REMARK VINA RESULT:      -7.2      2.861      4.217
REMARK  Name = 
REMARK  9 active torsions:
REMARK  status: ('A' for Active; 'I' for Inactive)
REMARK    1  A    between atoms: C_1  and  C_2
REMARK    2  A    between atoms: C_2  and  C_3
REMARK    3  A    between atoms: C_2  and  O_4
REMARK    4  A    between atoms: C_2  and  C_5
REMARK    5  A    between atoms: C_10  and  O_11
REMARK    6  A    between atoms: O_11  and  C_12
REMARK    7  A    between atoms: C_12  and  C_14
REMARK    8  A    between atoms: C_16  and  O_17
REMARK    9  A    between atoms: C_19  and  O_20
REMARK                            x       y       z     vdW  Elec       q    Type
REMARK                         _______ _______ _______ _____ _____    ______ ____
ROOT
ATOM      1  C   UNL     1      -0.747  11.855  19.244  0.00  0.00    +0.000 C 
ATOM      2  C   UNL     1      -1.093  11.389  20.672  0.00  0.00    +0.000 C 
ATOM      3  C   UNL     1      -0.255  10.171  20.737  0.00  0.00    +0.000 A 
ATOM      4  C   UNL     1      -0.296   9.122  21.636  0.00  0.00    +0.000 A 
ATOM      5  C   UNL     1       0.610   8.071  21.465  0.00  0.00    +0.000 A 
ATOM      6  C   UNL     1       1.527   8.095  20.402  0.00  0.00    +0.000 A 
ATOM      7  C   UNL     1       1.592   9.182  19.525  0.00  0.00    +0.000 A 
ATOM      8  C   UNL     1       0.675  10.197  19.708  0.00  0.00    +0.000 A 
ATOM      9  O   UNL     1       0.544  11.283  18.879  0.00  0.00    +0.000 OA
ENDROOT
BRANCH   1  11
ATOM     10  C   UNL     1      -3.270  11.723  18.653  0.00  0.00    +0.000 C 
ATOM     11  C   UNL     1      -1.827  11.516  18.170  0.00  0.00    +0.000 C 
ATOM     12  C   UNL     1      -1.661  10.065  17.700  0.00  0.00    +0.000 C 
BRANCH  11  13
ATOM     13  O   UNL     1      -1.620  12.362  17.028  0.00  0.00    +0.000 OA
ATOM     14  H   UNL     1      -0.898  11.977  16.500  0.00  0.00    +0.000 HD
ENDBRANCH  11  13
ENDBRANCH   1  11
BRANCH   6  15
ATOM     15  O   UNL     1       2.458   7.057  20.161  0.00  0.00    +0.000 OA
BRANCH  15  16
ATOM     16  C   UNL     1       2.482   6.344  18.970  0.00  0.00    +0.000 C 
ATOM     17  O   UNL     1       2.687   6.779  17.846  0.00  0.00    +0.000 OA
BRANCH  16  18
ATOM     18  C   UNL     1       2.261   4.896  19.234  0.00  0.00    +0.000 A 
ATOM     19  C   UNL     1       1.995   4.503  20.556  0.00  0.00    +0.000 A 
ATOM     20  C   UNL     1       1.722   3.166  20.837  0.00  0.00    +0.000 A 
ATOM     21  C   UNL     1       1.715   2.210  19.826  0.00  0.00    +0.000 A 
ATOM     22  C   UNL     1       1.990   2.606  18.523  0.00  0.00    +0.000 A 
ATOM     23  C   UNL     1       2.269   3.935  18.216  0.00  0.00    +0.000 A 
BRANCH  20  24
ATOM     24  O   UNL     1       1.444   2.747  22.104  0.00  0.00    +0.000 OA
ATOM     25  H   UNL     1       0.480   2.740  22.233  0.00  0.00    +0.000 HD
ENDBRANCH  20  24
BRANCH  22  26
ATOM     26  O   UNL     1       1.985   1.709  17.495  0.00  0.00    +0.000 OA
ATOM     27  H   UNL     1       2.653   1.025  17.673  0.00  0.00    +0.000 HD
ENDBRANCH  22  26
ENDBRANCH  16  18
ENDBRANCH  15  16
ENDBRANCH   6  15
TORSDOF 7
ENDMDL
