MODEL 1
REMARK VINA RESULT:      -6.5      0.000      0.000
REMARK  Name = 
REMARK  3 active torsions:
REMARK  status: ('A' for Active; 'I' for Inactive)
REMARK    1  A    between atoms: C_1  and  C_2
REMARK    2  A    between atoms: C_2  and  C_3
REMARK    3  A    between atoms: C_2  and  N_17
REMARK                            x       y       z     vdW  Elec       q    Type
REMARK                         _______ _______ _______ _____ _____    ______ ____
ROOT
ATOM      1  C   UNL     1       0.499  12.471  20.811  0.00  0.00    +0.000 C 
ATOM      2  O   UNL     1       1.441  11.788  21.231  0.00  0.00    +0.000 OA
ATOM      3  N   UNL     1       0.745  13.510  19.911  0.00  0.00    +0.000 N 
ATOM      4  C   UNL     1       2.097  13.566  19.327  0.00  0.00    +0.000 C 
ATOM      5  C   UNL     1       3.194  13.990  20.315  0.00  0.00    +0.000 C 
ATOM      6  O   UNL     1       3.712  15.239  19.858  0.00  0.00    +0.000 OA
ATOM      7  C   UNL     1       4.055  16.158  20.894  0.00  0.00    +0.000 C 
ATOM      8  C   UNL     1       3.625  17.548  20.419  0.00  0.00    +0.000 C 
ATOM      9  O   UNL     1       2.521  17.980  21.219  0.00  0.00    +0.000 OA
ATOM     10  C   UNL     1       1.383  18.437  20.483  0.00  0.00    +0.000 C 
ATOM     11  C   UNL     1       0.158  17.648  20.952  0.00  0.00    +0.000 C 
ATOM     12  O   UNL     1      -0.183  16.742  19.900  0.00  0.00    +0.000 OA
ATOM     13  C   UNL     1      -0.718  15.501  20.346  0.00  0.00    +0.000 C 
ATOM     14  C   UNL     1      -0.275  14.417  19.355  0.00  0.00    +0.000 C 
ENDROOT
BRANCH   1  16
ATOM     15  C   UNL     1      -1.052  11.229  22.452  0.00  0.00    +0.000 C 
ATOM     16  C   UNL     1      -0.954  12.151  21.244  0.00  0.00    +0.000 C 
BRANCH  16  17
ATOM     17  N   UNL     1      -1.595  11.599  20.049  0.00  0.00    +0.000 N 
ATOM     18  C   UNL     1      -2.740  12.136  19.534  0.00  0.00    +0.000 C 
ATOM     19  O   UNL     1      -3.436  13.029  19.991  0.00  0.00    +0.000 OA
ATOM     20  C   UNL     1      -2.990  11.457  18.267  0.00  0.00    +0.000 A 
ATOM     21  C   UNL     1      -4.027  11.594  17.366  0.00  0.00    +0.000 A 
ATOM     22  C   UNL     1      -3.980  10.799  16.216  0.00  0.00    +0.000 A 
ATOM     23  C   UNL     1      -2.910   9.906  15.995  0.00  0.00    +0.000 A 
ATOM     24  C   UNL     1      -1.873   9.787  16.922  0.00  0.00    +0.000 A 
ATOM     25  C   UNL     1      -1.949  10.574  18.054  0.00  0.00    +0.000 A 
ATOM     26  C   UNL     1      -1.048  10.671  19.202  0.00  0.00    +0.000 C 
ATOM     27  O   UNL     1      -0.033  10.009  19.299  0.00  0.00    +0.000 OA
ENDBRANCH  16  17
ENDBRANCH   1  16
TORSDOF 2
ENDMDL
MODEL 2
REMARK VINA RESULT:      -6.5      2.984      4.107
REMARK  Name = 
REMARK  3 active torsions:
REMARK  status: ('A' for Active; 'I' for Inactive)
REMARK    1  A    between atoms: C_1  and  C_2
REMARK    2  A    between atoms: C_2  and  C_3
REMARK    3  A    between atoms: C_2  and  N_17
REMARK                            x       y       z     vdW  Elec       q    Type
REMARK                         _______ _______ _______ _____ _____    ______ ____
ROOT
ATOM      1  C   UNL     1       1.260  12.069  20.307  0.00  0.00    +0.000 C 
ATOM      2  O   UNL     1       1.769  11.713  21.378  0.00  0.00    +0.000 OA
ATOM      3  N   UNL     1       1.691  13.247  19.695  0.00  0.00    +0.000 N 
ATOM      4  C   UNL     1       2.908  13.868  20.248  0.00  0.00    +0.000 C 
ATOM      5  C   UNL     1       2.717  14.505  21.633  0.00  0.00    +0.000 C 
ATOM      6  O   UNL     1       2.922  15.910  21.481  0.00  0.00    +0.000 OA
ATOM      7  C   UNL     1       2.068  16.727  22.281  0.00  0.00    +0.000 C 
ATOM      8  C   UNL     1       1.663  17.925  21.419  0.00  0.00    +0.000 C 
ATOM      9  O   UNL     1       0.271  17.811  21.108  0.00  0.00    +0.000 OA
ATOM     10  C   UNL     1      -0.050  17.936  19.721  0.00  0.00    +0.000 C 
ATOM     11  C   UNL     1      -0.852  16.702  19.300  0.00  0.00    +0.000 C 
ATOM     12  O   UNL     1       0.010  15.899  18.490  0.00  0.00    +0.000 OA
ATOM     13  C   UNL     1      -0.200  14.498  18.620  0.00  0.00    +0.000 C 
ATOM     14  C   UNL     1       1.155  13.802  18.438  0.00  0.00    +0.000 C 
ENDROOT
BRANCH   1  16
ATOM     15  C   UNL     1      -1.128  11.103  20.393  0.00  0.00    +0.000 C 
ATOM     16  C   UNL     1       0.183  11.191  19.622  0.00  0.00    +0.000 C 
BRANCH  16  17
ATOM     17  N   UNL     1       0.820   9.888  19.426  0.00  0.00    +0.000 N 
ATOM     18  C   UNL     1       1.640   9.640  18.361  0.00  0.00    +0.000 C 
ATOM     19  O   UNL     1       1.888  10.360  17.407  0.00  0.00    +0.000 OA
ATOM     20  C   UNL     1       2.226   8.322  18.579  0.00  0.00    +0.000 A 
ATOM     21  C   UNL     1       3.090   7.585  17.796  0.00  0.00    +0.000 A 
ATOM     22  C   UNL     1       3.492   6.339  18.289  0.00  0.00    +0.000 A 
ATOM     23  C   UNL     1       3.033   5.872  19.540  0.00  0.00    +0.000 A 
ATOM     24  C   UNL     1       2.159   6.639  20.313  0.00  0.00    +0.000 A 
ATOM     25  C   UNL     1       1.768   7.859  19.798  0.00  0.00    +0.000 A 
ATOM     26  C   UNL     1       0.867   8.872  20.345  0.00  0.00    +0.000 C 
ATOM     27  O   UNL     1       0.306   8.745  21.416  0.00  0.00    +0.000 OA
ENDBRANCH  16  17
ENDBRANCH   1  16
TORSDOF 2
ENDMDL
MODEL 3
REMARK VINA RESULT:      -6.2      3.653      6.085
REMARK  Name = 
REMARK  3 active torsions:
REMARK  status: ('A' for Active; 'I' for Inactive)
REMARK    1  A    between atoms: C_1  and  C_2
REMARK    2  A    between atoms: C_2  and  C_3
REMARK    3  A    between atoms: C_2  and  N_17
REMARK                            x       y       z     vdW  Elec       q    Type
REMARK                         _______ _______ _______ _____ _____    ______ ____
ROOT
ATOM      1  C   UNL     1      -2.177  13.010  21.024  0.00  0.00    +0.000 C 
ATOM      2  O   UNL     1      -2.697  12.862  19.910  0.00  0.00    +0.000 OA
ATOM      3  N   UNL     1      -2.983  13.056  22.163  0.00  0.00    +0.000 N 
ATOM      4  C   UNL     1      -4.396  12.676  21.982  0.00  0.00    +0.000 C 
ATOM      5  C   UNL     1      -5.229  13.699  21.195  0.00  0.00    +0.000 C 
ATOM      6  O   UNL     1      -6.216  14.214  22.087  0.00  0.00    +0.000 OA
ATOM      7  C   UNL     1      -6.505  15.602  21.920  0.00  0.00    +0.000 C 
ATOM      8  C   UNL     1      -6.682  16.193  23.320  0.00  0.00    +0.000 C 
ATOM      9  O   UNL     1      -5.580  17.064  23.589  0.00  0.00    +0.000 OA
ATOM     10  C   UNL     1      -4.908  16.826  24.828  0.00  0.00    +0.000 C 
ATOM     11  C   UNL     1      -3.419  16.625  24.536  0.00  0.00    +0.000 C 
ATOM     12  O   UNL     1      -3.140  15.235  24.720  0.00  0.00    +0.000 OA
ATOM     13  C   UNL     1      -2.144  14.715  23.847  0.00  0.00    +0.000 C 
ATOM     14  C   UNL     1      -2.503  13.255  23.542  0.00  0.00    +0.000 C 
ENDROOT
BRANCH   1  16
ATOM     15  C   UNL     1      -0.001  14.205  20.332  0.00  0.00    +0.000 C 
ATOM     16  C   UNL     1      -0.637  13.099  21.164  0.00  0.00    +0.000 C 
BRANCH  16  17
ATOM     17  N   UNL     1      -0.144  11.765  20.814  0.00  0.00    +0.000 N 
ATOM     18  C   UNL     1       0.309  11.471  19.560  0.00  0.00    +0.000 C 
ATOM     19  O   UNL     1       0.292  12.171  18.560  0.00  0.00    +0.000 OA
ATOM     20  C   UNL     1       0.876  10.129  19.621  0.00  0.00    +0.000 A 
ATOM     21  C   UNL     1       1.434   9.345  18.632  0.00  0.00    +0.000 A 
ATOM     22  C   UNL     1       1.911   8.086  19.010  0.00  0.00    +0.000 A 
ATOM     23  C   UNL     1       1.826   7.650  20.350  0.00  0.00    +0.000 A 
ATOM     24  C   UNL     1       1.257   8.463  21.332  0.00  0.00    +0.000 A 
ATOM     25  C   UNL     1       0.783   9.696  20.930  0.00  0.00    +0.000 A 
ATOM     26  C   UNL     1       0.131  10.755  21.699  0.00  0.00    +0.000 C 
ATOM     27  O   UNL     1      -0.090  10.663  22.891  0.00  0.00    +0.000 OA
ENDBRANCH  16  17
ENDBRANCH   1  16
TORSDOF 2
ENDMDL
MODEL 4
REMARK VINA RESULT:      -6.2      1.698      1.820
REMARK  Name = 
REMARK  3 active torsions:
REMARK  status: ('A' for Active; 'I' for Inactive)
REMARK    1  A    between atoms: C_1  and  C_2
REMARK    2  A    between atoms: C_2  and  C_3
REMARK    3  A    between atoms: C_2  and  N_17
REMARK                            x       y       z     vdW  Elec       q    Type
REMARK                         _______ _______ _______ _____ _____    ______ ____
ROOT
ATOM      1  C   UNL     1       1.410  12.326  19.297  0.00  0.00    +0.000 C 
ATOM      2  O   UNL     1       2.188  11.687  18.578  0.00  0.00    +0.000 OA
ATOM      3  N   UNL     1       1.434  13.721  19.273  0.00  0.00    +0.000 N 
ATOM      4  C   UNL     1       2.227  14.346  18.200  0.00  0.00    +0.000 C 
ATOM      5  C   UNL     1       3.746  14.194  18.369  0.00  0.00    +0.000 C 
ATOM      6  O   UNL     1       4.281  15.504  18.560  0.00  0.00    +0.000 OA
ATOM      7  C   UNL     1       5.364  15.577  19.486  0.00  0.00    +0.000 C 
ATOM      8  C   UNL     1       5.170  16.859  20.299  0.00  0.00    +0.000 C 
ATOM      9  O   UNL     1       4.829  16.498  21.641  0.00  0.00    +0.000 OA
ATOM     10  C   UNL     1       3.663  17.141  22.162  0.00  0.00    +0.000 C 
ATOM     11  C   UNL     1       2.700  16.061  22.661  0.00  0.00    +0.000 C 
ATOM     12  O   UNL     1       1.614  16.008  21.732  0.00  0.00    +0.000 OA
ATOM     13  C   UNL     1       1.062  14.709  21.549  0.00  0.00    +0.000 C 
ATOM     14  C   UNL     1       0.586  14.603  20.095  0.00  0.00    +0.000 C 
ENDROOT
BRANCH   1  16
ATOM     15  C   UNL     1       0.948  10.377  20.920  0.00  0.00    +0.000 C 
ATOM     16  C   UNL     1       0.380  11.585  20.186  0.00  0.00    +0.000 C 
BRANCH  16  17
ATOM     17  N   UNL     1      -0.724  11.241  19.288  0.00  0.00    +0.000 N 
ATOM     18  C   UNL     1      -1.899  11.938  19.291  0.00  0.00    +0.000 C 
ATOM     19  O   UNL     1      -2.254  12.829  20.046  0.00  0.00    +0.000 OA
ATOM     20  C   UNL     1      -2.685  11.442  18.168  0.00  0.00    +0.000 A 
ATOM     21  C   UNL     1      -3.954  11.779  17.744  0.00  0.00    +0.000 A 
ATOM     22  C   UNL     1      -4.440  11.128  16.605  0.00  0.00    +0.000 A 
ATOM     23  C   UNL     1      -3.653  10.175  15.924  0.00  0.00    +0.000 A 
ATOM     24  C   UNL     1      -2.371   9.852  16.374  0.00  0.00    +0.000 A 
ATOM     25  C   UNL     1      -1.920  10.500  17.506  0.00  0.00    +0.000 A 
ATOM     26  C   UNL     1      -0.654  10.376  18.227  0.00  0.00    +0.000 C 
ATOM     27  O   UNL     1       0.230   9.618  17.878  0.00  0.00    +0.000 OA
ENDBRANCH  16  17
ENDBRANCH   1  16
TORSDOF 2
ENDMDL
MODEL 5
REMARK VINA RESULT:      -6.2      3.464      6.472
REMARK  Name = 
REMARK  3 active torsions:
REMARK  status: ('A' for Active; 'I' for Inactive)
REMARK    1  A    between atoms: C_1  and  C_2
REMARK    2  A    between atoms: C_2  and  C_3
REMARK    3  A    between atoms: C_2  and  N_17
REMARK                            x       y       z     vdW  Elec       q    Type
REMARK                         _______ _______ _______ _____ _____    ______ ____
ROOT
ATOM      1  C   UNL     1      -2.079  12.059  18.575  0.00  0.00    +0.000 C 
ATOM      2  O   UNL     1      -1.955  11.670  17.407  0.00  0.00    +0.000 OA
ATOM      3  N   UNL     1      -3.334  12.031  19.185  0.00  0.00    +0.000 N 
ATOM      4  C   UNL     1      -4.396  11.304  18.467  0.00  0.00    +0.000 C 
ATOM      5  C   UNL     1      -4.888  12.003  17.191  0.00  0.00    +0.000 C 
ATOM      6  O   UNL     1      -6.254  12.358  17.406  0.00  0.00    +0.000 OA
ATOM      7  C   UNL     1      -6.642  13.608  16.837  0.00  0.00    +0.000 C 
ATOM      8  C   UNL     1      -7.574  14.286  17.843  0.00  0.00    +0.000 C 
ATOM      9  O   UNL     1      -6.900  15.423  18.392  0.00  0.00    +0.000 OA
ATOM     10  C   UNL     1      -6.891  15.490  19.820  0.00  0.00    +0.000 C 
ATOM     11  C   UNL     1      -5.439  15.624  20.286  0.00  0.00    +0.000 C 
ATOM     12  O   UNL     1      -5.068  14.371  20.866  0.00  0.00    +0.000 OA
ATOM     13  C   UNL     1      -3.704  14.017  20.673  0.00  0.00    +0.000 C 
ATOM     14  C   UNL     1      -3.628  12.489  20.555  0.00  0.00    +0.000 C 
ENDROOT
BRANCH   1  16
ATOM     15  C   UNL     1      -0.035  13.625  18.688  0.00  0.00    +0.000 C 
ATOM     16  C   UNL     1      -0.840  12.532  19.377  0.00  0.00    +0.000 C 
BRANCH  16  17
ATOM     17  N   UNL     1      -0.061  11.319  19.628  0.00  0.00    +0.000 N 
ATOM     18  C   UNL     1      -0.278  10.536  20.726  0.00  0.00    +0.000 C 
ATOM     19  O   UNL     1      -1.024  10.740  21.670  0.00  0.00    +0.000 OA
ATOM     20  C   UNL     1       0.541   9.341  20.561  0.00  0.00    +0.000 A 
ATOM     21  C   UNL     1       0.719   8.254  21.392  0.00  0.00    +0.000 A 
ATOM     22  C   UNL     1       1.574   7.242  20.943  0.00  0.00    +0.000 A 
ATOM     23  C   UNL     1       2.215   7.337  19.689  0.00  0.00    +0.000 A 
ATOM     24  C   UNL     1       2.017   8.448  18.867  0.00  0.00    +0.000 A 
ATOM     25  C   UNL     1       1.178   9.438  19.338  0.00  0.00    +0.000 A 
ATOM     26  C   UNL     1       0.785  10.711  18.736  0.00  0.00    +0.000 C 
ATOM     27  O   UNL     1       1.188  11.077  17.649  0.00  0.00    +0.000 OA
ENDBRANCH  16  17
ENDBRANCH   1  16
TORSDOF 2
ENDMDL
MODEL 6
REMARK VINA RESULT:      -6.2      2.962      4.063
REMARK  Name = 
REMARK  3 active torsions:
REMARK  status: ('A' for Active; 'I' for Inactive)
REMARK    1  A    between atoms: C_1  and  C_2
REMARK    2  A    between atoms: C_2  and  C_3
REMARK    3  A    between atoms: C_2  and  N_17
REMARK                            x       y       z     vdW  Elec       q    Type
REMARK                         _______ _______ _______ _____ _____    ______ ____
ROOT
ATOM      1  C   UNL     1       1.326  12.232  20.349  0.00  0.00    +0.000 C 
ATOM      2  O   UNL     1       1.822  11.907  21.436  0.00  0.00    +0.000 OA
ATOM      3  N   UNL     1       1.679  13.449  19.764  0.00  0.00    +0.000 N 
ATOM      4  C   UNL     1       2.818  14.163  20.370  0.00  0.00    +0.000 C 
ATOM      5  C   UNL     1       2.522  14.766  21.751  0.00  0.00    +0.000 C 
ATOM      6  O   UNL     1       2.614  16.184  21.620  0.00  0.00    +0.000 OA
ATOM      7  C   UNL     1       1.666  16.918  22.393  0.00  0.00    +0.000 C 
ATOM      8  C   UNL     1       1.194  18.088  21.527  0.00  0.00    +0.000 C 
ATOM      9  O   UNL     1      -0.171  17.862  21.162  0.00  0.00    +0.000 OA
ATOM     10  C   UNL     1      -0.450  17.975  19.764  0.00  0.00    +0.000 C 
ATOM     11  C   UNL     1      -1.129  16.683  19.303  0.00  0.00    +0.000 C 
ATOM     12  O   UNL     1      -0.173  15.965  18.519  0.00  0.00    +0.000 OA
ATOM     13  C   UNL     1      -0.269  14.550  18.629  0.00  0.00    +0.000 C 
ATOM     14  C   UNL     1       1.146  13.972  18.493  0.00  0.00    +0.000 C 
ENDROOT
BRANCH   1  16
ATOM     15  C   UNL     1      -1.019  11.165  20.269  0.00  0.00    +0.000 C 
ATOM     16  C   UNL     1       0.353  11.275  19.616  0.00  0.00    +0.000 C 
BRANCH  16  17
ATOM     17  N   UNL     1       1.058   9.994  19.545  0.00  0.00    +0.000 N 
ATOM     18  C   UNL     1       0.896   9.030  20.499  0.00  0.00    +0.000 C 
ATOM     19  O   UNL     1       0.273   9.091  21.547  0.00  0.00    +0.000 OA
ATOM     20  C   UNL     1       1.598   7.844  20.021  0.00  0.00    +0.000 A 
ATOM     21  C   UNL     1       1.777   6.609  20.611  0.00  0.00    +0.000 A 
ATOM     22  C   UNL     1       2.497   5.655  19.887  0.00  0.00    +0.000 A 
ATOM     23  C   UNL     1       3.008   5.951  18.604  0.00  0.00    +0.000 A 
ATOM     24  C   UNL     1       2.812   7.208  18.030  0.00  0.00    +0.000 A 
ATOM     25  C   UNL     1       2.108   8.136  18.771  0.00  0.00    +0.000 A 
ATOM     26  C   UNL     1       1.754   9.521  18.463  0.00  0.00    +0.000 C 
ATOM     27  O   UNL     1       2.067  10.065  17.422  0.00  0.00    +0.000 OA
ENDBRANCH  16  17
ENDBRANCH   1  16
TORSDOF 2
ENDMDL
MODEL 7
REMARK VINA RESULT:      -6.1      2.672      3.456
REMARK  Name = 
REMARK  3 active torsions:
REMARK  status: ('A' for Active; 'I' for Inactive)
REMARK    1  A    between atoms: C_1  and  C_2
REMARK    2  A    between atoms: C_2  and  C_3
REMARK    3  A    between atoms: C_2  and  N_17
REMARK                            x       y       z     vdW  Elec       q    Type
REMARK                         _______ _______ _______ _____ _____    ______ ____
ROOT
ATOM      1  C   UNL     1      -0.239  13.365  21.414  0.00  0.00    +0.000 C 
ATOM      2  O   UNL     1       0.860  13.251  20.856  0.00  0.00    +0.000 OA
ATOM      3  N   UNL     1      -0.672  14.621  21.841  0.00  0.00    +0.000 N 
ATOM      4  C   UNL     1       0.114  15.779  21.376  0.00  0.00    +0.000 C 
ATOM      5  C   UNL     1       1.504  15.897  22.017  0.00  0.00    +0.000 C 
ATOM      6  O   UNL     1       1.512  17.098  22.787  0.00  0.00    +0.000 OA
ATOM      7  C   UNL     1       2.243  17.017  24.010  0.00  0.00    +0.000 C 
ATOM      8  C   UNL     1       1.441  17.789  25.061  0.00  0.00    +0.000 C 
ATOM      9  O   UNL     1       0.913  16.853  26.007  0.00  0.00    +0.000 OA
ATOM     10  C   UNL     1      -0.490  16.969  26.253  0.00  0.00    +0.000 C 
ATOM     11  C   UNL     1      -1.136  15.603  26.009  0.00  0.00    +0.000 C 
ATOM     12  O   UNL     1      -1.875  15.702  24.790  0.00  0.00    +0.000 OA
ATOM     13  C   UNL     1      -1.904  14.503  24.023  0.00  0.00    +0.000 C 
ATOM     14  C   UNL     1      -1.940  14.896  22.540  0.00  0.00    +0.000 C 
ENDROOT
BRANCH   1  16
ATOM     15  C   UNL     1      -0.475  10.947  22.274  0.00  0.00    +0.000 C 
ATOM     16  C   UNL     1      -1.156  12.129  21.597  0.00  0.00    +0.000 C 
BRANCH  16  17
ATOM     17  N   UNL     1      -1.646  11.814  20.254  0.00  0.00    +0.000 N 
ATOM     18  C   UNL     1      -1.035  10.881  19.465  0.00  0.00    +0.000 C 
ATOM     19  O   UNL     1      -0.000  10.268  19.672  0.00  0.00    +0.000 OA
ATOM     20  C   UNL     1      -1.882  10.704  18.291  0.00  0.00    +0.000 A 
ATOM     21  C   UNL     1      -1.712   9.910  17.174  0.00  0.00    +0.000 A 
ATOM     22  C   UNL     1      -2.721   9.946  16.207  0.00  0.00    +0.000 A 
ATOM     23  C   UNL     1      -3.864  10.757  16.381  0.00  0.00    +0.000 A 
ATOM     24  C   UNL     1      -4.011  11.550  17.521  0.00  0.00    +0.000 A 
ATOM     25  C   UNL     1      -2.995  11.506  18.454  0.00  0.00    +0.000 A 
ATOM     26  C   UNL     1      -2.844  12.216  19.723  0.00  0.00    +0.000 C 
ATOM     27  O   UNL     1      -3.674  13.000  20.141  0.00  0.00    +0.000 OA
ENDBRANCH  16  17
ENDBRANCH   1  16
TORSDOF 2
ENDMDL
MODEL 8
REMARK VINA RESULT:      -6.1      1.053      1.100
REMARK  Name = 
REMARK  3 active torsions:
REMARK  status: ('A' for Active; 'I' for Inactive)
REMARK    1  A    between atoms: C_1  and  C_2
REMARK    2  A    between atoms: C_2  and  C_3
REMARK    3  A    between atoms: C_2  and  N_17
REMARK                            x       y       z     vdW  Elec       q    Type
REMARK                         _______ _______ _______ _____ _____    ______ ____
ROOT
ATOM      1  C   UNL     1       0.313  12.757  21.054  0.00  0.00    +0.000 C 
ATOM      2  O   UNL     1       1.363  12.108  21.148  0.00  0.00    +0.000 OA
ATOM      3  N   UNL     1       0.343  14.049  20.527  0.00  0.00    +0.000 N 
ATOM      4  C   UNL     1       1.602  14.467  19.885  0.00  0.00    +0.000 C 
ATOM      5  C   UNL     1       2.762  14.701  20.865  0.00  0.00    +0.000 C 
ATOM      6  O   UNL     1       3.094  16.088  20.801  0.00  0.00    +0.000 OA
ATOM      7  C   UNL     1       3.466  16.670  22.049  0.00  0.00    +0.000 C 
ATOM      8  C   UNL     1       2.845  18.068  22.093  0.00  0.00    +0.000 C 
ATOM      9  O   UNL     1       1.808  18.073  23.078  0.00  0.00    +0.000 OA
ATOM     10  C   UNL     1       0.550  18.583  22.629  0.00  0.00    +0.000 C 
ATOM     11  C   UNL     1      -0.525  17.530  22.912  0.00  0.00    +0.000 C 
ATOM     12  O   UNL     1      -0.898  16.965  21.653  0.00  0.00    +0.000 OA
ATOM     13  C   UNL     1      -1.248  15.587  21.709  0.00  0.00    +0.000 C 
ATOM     14  C   UNL     1      -0.822  14.940  20.385  0.00  0.00    +0.000 C 
ENDROOT
BRANCH   1  16
ATOM     15  C   UNL     1      -0.919  11.091  22.587  0.00  0.00    +0.000 C 
ATOM     16  C   UNL     1      -1.037  12.125  21.475  0.00  0.00    +0.000 C 
BRANCH  16  17
ATOM     17  N   UNL     1      -1.604  11.577  20.242  0.00  0.00    +0.000 N 
ATOM     18  C   UNL     1      -2.739  12.089  19.680  0.00  0.00    +0.000 C 
ATOM     19  O   UNL     1      -3.482  12.953  20.118  0.00  0.00    +0.000 OA
ATOM     20  C   UNL     1      -2.907  11.427  18.391  0.00  0.00    +0.000 A 
ATOM     21  C   UNL     1      -3.902  11.550  17.443  0.00  0.00    +0.000 A 
ATOM     22  C   UNL     1      -3.776  10.778  16.284  0.00  0.00    +0.000 A 
ATOM     23  C   UNL     1      -2.670   9.921  16.100  0.00  0.00    +0.000 A 
ATOM     24  C   UNL     1      -1.676   9.816  17.074  0.00  0.00    +0.000 A 
ATOM     25  C   UNL     1      -1.830  10.579  18.215  0.00  0.00    +0.000 A 
ATOM     26  C   UNL     1      -0.989  10.681  19.406  0.00  0.00    +0.000 C 
ATOM     27  O   UNL     1       0.040  10.047  19.541  0.00  0.00    +0.000 OA
ENDBRANCH  16  17
ENDBRANCH   1  16
TORSDOF 2
ENDMDL
MODEL 9
REMARK VINA RESULT:      -6.1      3.570      6.210
REMARK  Name = 
REMARK  3 active torsions:
REMARK  status: ('A' for Active; 'I' for Inactive)
REMARK    1  A    between atoms: C_1  and  C_2
REMARK    2  A    between atoms: C_2  and  C_3
REMARK    3  A    between atoms: C_2  and  N_17
REMARK                            x       y       z     vdW  Elec       q    Type
REMARK                         _______ _______ _______ _____ _____    ______ ____
ROOT
ATOM      1  C   UNL     1      -2.141  13.027  20.970  0.00  0.00    +0.000 C 
ATOM      2  O   UNL     1      -2.430  12.865  19.778  0.00  0.00    +0.000 OA
ATOM      3  N   UNL     1      -3.143  12.972  21.940  0.00  0.00    +0.000 N 
ATOM      4  C   UNL     1      -4.459  12.477  21.495  0.00  0.00    +0.000 C 
ATOM      5  C   UNL     1      -5.220  13.446  20.578  0.00  0.00    +0.000 C 
ATOM      6  O   UNL     1      -6.397  13.850  21.277  0.00  0.00    +0.000 OA
ATOM      7  C   UNL     1      -6.773  15.212  21.074  0.00  0.00    +0.000 C 
ATOM      8  C   UNL     1      -7.258  15.747  22.424  0.00  0.00    +0.000 C 
ATOM      9  O   UNL     1      -6.306  16.702  22.902  0.00  0.00    +0.000 OA
ATOM     10  C   UNL     1      -5.855  16.488  24.242  0.00  0.00    +0.000 C 
ATOM     11  C   UNL     1      -4.326  16.424  24.230  0.00  0.00    +0.000 C 
ATOM     12  O   UNL     1      -3.963  15.058  24.447  0.00  0.00    +0.000 OA
ATOM     13  C   UNL     1      -2.780  14.650  23.769  0.00  0.00    +0.000 C 
ATOM     14  C   UNL     1      -2.945  13.174  23.386  0.00  0.00    +0.000 C 
ENDROOT
BRANCH   1  16
ATOM     15  C   UNL     1      -0.035  14.507  20.825  0.00  0.00    +0.000 C 
ATOM     16  C   UNL     1      -0.666  13.243  21.395  0.00  0.00    +0.000 C 
BRANCH  16  17
ATOM     17  N   UNL     1       0.031  12.022  20.989  0.00  0.00    +0.000 N 
ATOM     18  C   UNL     1       0.132  10.941  21.818  0.00  0.00    +0.000 C 
ATOM     19  O   UNL     1      -0.218  10.839  22.982  0.00  0.00    +0.000 OA
ATOM     20  C   UNL     1       0.725   9.863  21.034  0.00  0.00    +0.000 A 
ATOM     21  C   UNL     1       1.074   8.578  21.396  0.00  0.00    +0.000 A 
ATOM     22  C   UNL     1       1.620   7.761  20.400  0.00  0.00    +0.000 A 
ATOM     23  C   UNL     1       1.794   8.241  19.084  0.00  0.00    +0.000 A 
ATOM     24  C   UNL     1       1.433   9.545  18.744  0.00  0.00    +0.000 A 
ATOM     25  C   UNL     1       0.907  10.335  19.747  0.00  0.00    +0.000 A 
ATOM     26  C   UNL     1       0.454  11.724  19.719  0.00  0.00    +0.000 C 
ATOM     27  O   UNL     1       0.490  12.408  18.714  0.00  0.00    +0.000 OA
ENDBRANCH  16  17
ENDBRANCH   1  16
TORSDOF 2
ENDMDL
