MODEL 1
REMARK VINA RESULT:      -8.9      0.000      0.000
REMARK  Name = 
REMARK  3 active torsions:
REMARK  status: ('A' for Active; 'I' for Inactive)
REMARK    1  A    between atoms: C_2  and  O_3
REMARK    2  A    between atoms: C_2  and  C_21
REMARK    3  A    between atoms: O_3  and  C_4
REMARK                            x       y       z     vdW  Elec       q    Type
REMARK                         _______ _______ _______ _____ _____    ______ ____
ROOT
ATOM      1  C   UNL     1       6.216   5.177  15.606  0.00  0.00    +0.000 A 
ATOM      2  C   UNL     1       5.624   6.425  15.320  0.00  0.00    +0.000 A 
ATOM      3  C   UNL     1       4.612   6.935  16.137  0.00  0.00    +0.000 A 
ATOM      4  C   UNL     1       4.236   6.176  17.227  0.00  0.00    +0.000 A 
ATOM      5  C   UNL     1       4.808   4.929  17.527  0.00  0.00    +0.000 A 
ATOM      6  C   UNL     1       5.814   4.420  16.718  0.00  0.00    +0.000 A 
ATOM      7  C   UNL     1       4.184   4.412  18.724  0.00  0.00    +0.000 A 
ATOM      8  N   UNL     1       4.468   3.217  19.292  0.00  0.00    +0.000 NA
ATOM      9  C   UNL     1       3.675   3.040  20.405  0.00  0.00    +0.000 A 
ATOM     10  N   UNL     1       3.668   1.980  21.211  0.00  0.00    +0.000 NA
ATOM     11  O   UNL     1       2.707   2.273  22.178  0.00  0.00    +0.000 OA
ATOM     12  N   UNL     1       2.108   3.517  21.978  0.00  0.00    +0.000 NA
ATOM     13  C   UNL     1       2.695   4.005  20.885  0.00  0.00    +0.000 A 
ATOM     14  N   UNL     1       2.433   5.214  20.290  0.00  0.00    +0.000 NA
ATOM     15  C   UNL     1       3.229   5.331  19.200  0.00  0.00    +0.000 A 
ATOM     16  C   UNL     1       3.230   6.483  18.271  0.00  0.00    +0.000 C 
ATOM     17  O   UNL     1       2.563   7.494  18.332  0.00  0.00    +0.000 OA
ENDROOT
BRANCH   1  18
ATOM     18  O   UNL     1       7.310   4.656  14.862  0.00  0.00    +0.000 OA
BRANCH  18  20
ATOM     19  O   UNL     1       8.152   5.766  12.989  0.00  0.00    +0.000 OA
ATOM     20  C   UNL     1       7.464   4.893  13.499  0.00  0.00    +0.000 C 
BRANCH  20  21
ATOM     21  C   UNL     1       6.672   3.921  12.686  0.00  0.00    +0.000 A 
ATOM     22  C   UNL     1       7.380   2.937  11.976  0.00  0.00    +0.000 A 
ATOM     23  C   UNL     1       6.706   1.987  11.205  0.00  0.00    +0.000 A 
ATOM     24  C   UNL     1       5.315   2.010  11.137  0.00  0.00    +0.000 A 
ATOM     25  C   UNL     1       4.601   2.985  11.833  0.00  0.00    +0.000 A 
ATOM     26  C   UNL     1       5.274   3.941  12.607  0.00  0.00    +0.000 A 
ENDBRANCH  20  21
ENDBRANCH  18  20
ENDBRANCH   1  18
TORSDOF 3
ENDMDL
MODEL 2
REMARK VINA RESULT:      -8.7      3.612      8.348
REMARK  Name = 
REMARK  3 active torsions:
REMARK  status: ('A' for Active; 'I' for Inactive)
REMARK    1  A    between atoms: C_2  and  O_3
REMARK    2  A    between atoms: C_2  and  C_21
REMARK    3  A    between atoms: O_3  and  C_4
REMARK                            x       y       z     vdW  Elec       q    Type
REMARK                         _______ _______ _______ _____ _____    ______ ____
ROOT
ATOM      1  C   UNL     1       1.757   6.416  20.444  0.00  0.00    +0.000 A 
ATOM      2  C   UNL     1       0.962   5.252  20.415  0.00  0.00    +0.000 A 
ATOM      3  C   UNL     1       1.286   4.190  19.567  0.00  0.00    +0.000 A 
ATOM      4  C   UNL     1       2.413   4.329  18.782  0.00  0.00    +0.000 A 
ATOM      5  C   UNL     1       3.217   5.481  18.792  0.00  0.00    +0.000 A 
ATOM      6  C   UNL     1       2.897   6.538  19.633  0.00  0.00    +0.000 A 
ATOM      7  C   UNL     1       4.303   5.293  17.857  0.00  0.00    +0.000 A 
ATOM      8  N   UNL     1       5.259   6.211  17.584  0.00  0.00    +0.000 NA
ATOM      9  C   UNL     1       6.121   5.706  16.635  0.00  0.00    +0.000 A 
ATOM     10  N   UNL     1       7.177   6.327  16.114  0.00  0.00    +0.000 NA
ATOM     11  O   UNL     1       7.718   5.414  15.209  0.00  0.00    +0.000 OA
ATOM     12  N   UNL     1       7.000   4.219  15.160  0.00  0.00    +0.000 NA
ATOM     13  C   UNL     1       6.008   4.382  16.036  0.00  0.00    +0.000 A 
ATOM     14  N   UNL     1       5.028   3.469  16.337  0.00  0.00    +0.000 NA
ATOM     15  C   UNL     1       4.207   4.019  17.263  0.00  0.00    +0.000 A 
ATOM     16  C   UNL     1       3.009   3.361  17.831  0.00  0.00    +0.000 C 
ATOM     17  O   UNL     1       2.583   2.251  17.595  0.00  0.00    +0.000 OA
ENDROOT
BRANCH   1  18
ATOM     18  O   UNL     1       1.524   7.485  21.352  0.00  0.00    +0.000 OA
BRANCH  18  20
ATOM     19  O   UNL     1      -0.700   8.090  21.718  0.00  0.00    +0.000 OA
ATOM     20  C   UNL     1       0.411   8.314  21.258  0.00  0.00    +0.000 C 
BRANCH  20  21
ATOM     21  C   UNL     1       0.728   9.566  20.506  0.00  0.00    +0.000 A 
ATOM     22  C   UNL     1       0.722  10.774  21.223  0.00  0.00    +0.000 A 
ATOM     23  C   UNL     1       1.022  11.983  20.590  0.00  0.00    +0.000 A 
ATOM     24  C   UNL     1       1.333  11.996  19.233  0.00  0.00    +0.000 A 
ATOM     25  C   UNL     1       1.337  10.804  18.509  0.00  0.00    +0.000 A 
ATOM     26  C   UNL     1       1.035   9.589  19.140  0.00  0.00    +0.000 A 
ENDBRANCH  20  21
ENDBRANCH  18  20
ENDBRANCH   1  18
TORSDOF 3
ENDMDL
MODEL 3
REMARK VINA RESULT:      -8.6      4.339      7.990
REMARK  Name = 
REMARK  3 active torsions:
REMARK  status: ('A' for Active; 'I' for Inactive)
REMARK    1  A    between atoms: C_2  and  O_3
REMARK    2  A    between atoms: C_2  and  C_21
REMARK    3  A    between atoms: O_3  and  C_4
REMARK                            x       y       z     vdW  Elec       q    Type
REMARK                         _______ _______ _______ _____ _____    ______ ____
ROOT
ATOM      1  C   UNL     1       1.222   9.446  19.223  0.00  0.00    +0.000 A 
ATOM      2  C   UNL     1       1.923   9.644  18.016  0.00  0.00    +0.000 A 
ATOM      3  C   UNL     1       2.748   8.641  17.500  0.00  0.00    +0.000 A 
ATOM      4  C   UNL     1       2.830   7.461  18.212  0.00  0.00    +0.000 A 
ATOM      5  C   UNL     1       2.144   7.245  19.419  0.00  0.00    +0.000 A 
ATOM      6  C   UNL     1       1.324   8.239  19.934  0.00  0.00    +0.000 A 
ATOM      7  C   UNL     1       2.455   5.915  19.893  0.00  0.00    +0.000 A 
ATOM      8  N   UNL     1       1.992   5.375  21.044  0.00  0.00    +0.000 NA
ATOM      9  C   UNL     1       2.502   4.103  21.190  0.00  0.00    +0.000 A 
ATOM     10  N   UNL     1       2.275   3.270  22.204  0.00  0.00    +0.000 NA
ATOM     11  O   UNL     1       3.005   2.123  21.895  0.00  0.00    +0.000 OA
ATOM     12  N   UNL     1       3.693   2.236  20.687  0.00  0.00    +0.000 NA
ATOM     13  C   UNL     1       3.394   3.455  20.237  0.00  0.00    +0.000 A 
ATOM     14  N   UNL     1       3.843   4.028  19.073  0.00  0.00    +0.000 NA
ATOM     15  C   UNL     1       3.321   5.274  18.986  0.00  0.00    +0.000 A 
ATOM     16  C   UNL     1       3.586   6.229  17.886  0.00  0.00    +0.000 C 
ATOM     17  O   UNL     1       4.270   6.062  16.899  0.00  0.00    +0.000 OA
ENDROOT
BRANCH   1  18
ATOM     18  O   UNL     1       0.301  10.397  19.743  0.00  0.00    +0.000 OA
BRANCH  18  20
ATOM     19  O   UNL     1       0.430  12.492  18.722  0.00  0.00    +0.000 OA
ATOM     20  C   UNL     1      -0.176  11.463  18.986  0.00  0.00    +0.000 C 
BRANCH  20  21
ATOM     21  C   UNL     1      -1.566  11.207  18.502  0.00  0.00    +0.000 A 
ATOM     22  C   UNL     1      -1.746  10.195  17.544  0.00  0.00    +0.000 A 
ATOM     23  C   UNL     1      -3.018   9.891  17.055  0.00  0.00    +0.000 A 
ATOM     24  C   UNL     1      -4.126  10.593  17.521  0.00  0.00    +0.000 A 
ATOM     25  C   UNL     1      -3.961  11.604  18.468  0.00  0.00    +0.000 A 
ATOM     26  C   UNL     1      -2.685  11.913  18.961  0.00  0.00    +0.000 A 
ENDBRANCH  20  21
ENDBRANCH  18  20
ENDBRANCH   1  18
TORSDOF 3
ENDMDL
MODEL 4
REMARK VINA RESULT:      -8.6      3.042      5.294
REMARK  Name = 
REMARK  3 active torsions:
REMARK  status: ('A' for Active; 'I' for Inactive)
REMARK    1  A    between atoms: C_2  and  O_3
REMARK    2  A    between atoms: C_2  and  C_21
REMARK    3  A    between atoms: O_3  and  C_4
REMARK                            x       y       z     vdW  Elec       q    Type
REMARK                         _______ _______ _______ _____ _____    ______ ____
ROOT
ATOM      1  C   UNL     1       4.409   4.309  17.022  0.00  0.00    +0.000 A 
ATOM      2  C   UNL     1       4.319   3.262  17.962  0.00  0.00    +0.000 A 
ATOM      3  C   UNL     1       3.650   3.450  19.175  0.00  0.00    +0.000 A 
ATOM      4  C   UNL     1       3.081   4.688  19.396  0.00  0.00    +0.000 A 
ATOM      5  C   UNL     1       3.162   5.746  18.476  0.00  0.00    +0.000 A 
ATOM      6  C   UNL     1       3.826   5.561  17.271  0.00  0.00    +0.000 A 
ATOM      7  C   UNL     1       2.465   6.888  19.024  0.00  0.00    +0.000 A 
ATOM      8  N   UNL     1       2.363   8.095  18.422  0.00  0.00    +0.000 NA
ATOM      9  C   UNL     1       1.648   8.951  19.232  0.00  0.00    +0.000 A 
ATOM     10  N   UNL     1       1.355  10.224  18.974  0.00  0.00    +0.000 NA
ATOM     11  O   UNL     1       0.627  10.654  20.083  0.00  0.00    +0.000 OA
ATOM     12  N   UNL     1       0.464   9.650  21.039  0.00  0.00    +0.000 NA
ATOM     13  C   UNL     1       1.090   8.590  20.529  0.00  0.00    +0.000 A 
ATOM     14  N   UNL     1       1.206   7.353  21.112  0.00  0.00    +0.000 NA
ATOM     15  C   UNL     1       1.922   6.558  20.281  0.00  0.00    +0.000 A 
ATOM     16  C   UNL     1       2.289   5.152  20.561  0.00  0.00    +0.000 C 
ATOM     17  O   UNL     1       2.005   4.483  21.531  0.00  0.00    +0.000 OA
ENDROOT
BRANCH   1  18
ATOM     18  O   UNL     1       4.997   4.141  15.738  0.00  0.00    +0.000 OA
BRANCH  18  20
ATOM     19  O   UNL     1       6.966   4.134  14.485  0.00  0.00    +0.000 OA
ATOM     20  C   UNL     1       6.333   4.439  15.486  0.00  0.00    +0.000 C 
BRANCH  20  21
ATOM     21  C   UNL     1       6.940   5.209  16.613  0.00  0.00    +0.000 A 
ATOM     22  C   UNL     1       6.937   6.611  16.520  0.00  0.00    +0.000 A 
ATOM     23  C   UNL     1       7.475   7.396  17.541  0.00  0.00    +0.000 A 
ATOM     24  C   UNL     1       8.021   6.789  18.669  0.00  0.00    +0.000 A 
ATOM     25  C   UNL     1       8.035   5.398  18.772  0.00  0.00    +0.000 A 
ATOM     26  C   UNL     1       7.497   4.605  17.748  0.00  0.00    +0.000 A 
ENDBRANCH  20  21
ENDBRANCH  18  20
ENDBRANCH   1  18
TORSDOF 3
ENDMDL
MODEL 5
REMARK VINA RESULT:      -8.5      4.457      8.507
REMARK  Name = 
REMARK  3 active torsions:
REMARK  status: ('A' for Active; 'I' for Inactive)
REMARK    1  A    between atoms: C_2  and  O_3
REMARK    2  A    between atoms: C_2  and  C_21
REMARK    3  A    between atoms: O_3  and  C_4
REMARK                            x       y       z     vdW  Elec       q    Type
REMARK                         _______ _______ _______ _____ _____    ______ ____
ROOT
ATOM      1  C   UNL     1       1.452   9.242  19.002  0.00  0.00    +0.000 A 
ATOM      2  C   UNL     1       1.081   8.552  20.174  0.00  0.00    +0.000 A 
ATOM      3  C   UNL     1       1.612   7.290  20.455  0.00  0.00    +0.000 A 
ATOM      4  C   UNL     1       2.514   6.768  19.549  0.00  0.00    +0.000 A 
ATOM      5  C   UNL     1       2.893   7.436  18.373  0.00  0.00    +0.000 A 
ATOM      6  C   UNL     1       2.367   8.689  18.092  0.00  0.00    +0.000 A 
ATOM      7  C   UNL     1       3.842   6.610  17.660  0.00  0.00    +0.000 A 
ATOM      8  N   UNL     1       4.401   6.924  16.468  0.00  0.00    +0.000 NA
ATOM      9  C   UNL     1       5.240   5.905  16.074  0.00  0.00    +0.000 A 
ATOM     10  N   UNL     1       5.955   5.858  14.952  0.00  0.00    +0.000 NA
ATOM     11  O   UNL     1       6.633   4.640  15.011  0.00  0.00    +0.000 OA
ATOM     12  N   UNL     1       6.342   3.922  16.171  0.00  0.00    +0.000 NA
ATOM     13  C   UNL     1       5.482   4.689  16.840  0.00  0.00    +0.000 A 
ATOM     14  N   UNL     1       4.902   4.400  18.051  0.00  0.00    +0.000 NA
ATOM     15  C   UNL     1       4.083   5.426  18.384  0.00  0.00    +0.000 A 
ATOM     16  C   UNL     1       3.254   5.485  19.608  0.00  0.00    +0.000 C 
ATOM     17  O   UNL     1       3.183   4.671  20.503  0.00  0.00    +0.000 OA
ENDROOT
BRANCH   1  18
ATOM     18  O   UNL     1       1.013  10.564  18.715  0.00  0.00    +0.000 OA
BRANCH  18  20
ATOM     19  O   UNL     1      -0.128  11.731  20.384  0.00  0.00    +0.000 OA
ATOM     20  C   UNL     1      -0.107  11.125  19.323  0.00  0.00    +0.000 C 
BRANCH  20  21
ATOM     21  C   UNL     1      -1.337  10.904  18.503  0.00  0.00    +0.000 A 
ATOM     22  C   UNL     1      -2.481  11.651  18.832  0.00  0.00    +0.000 A 
ATOM     23  C   UNL     1      -3.663  11.507  18.102  0.00  0.00    +0.000 A 
ATOM     24  C   UNL     1      -3.713  10.617  17.033  0.00  0.00    +0.000 A 
ATOM     25  C   UNL     1      -2.587   9.866  16.699  0.00  0.00    +0.000 A 
ATOM     26  C   UNL     1      -1.398  10.006  17.430  0.00  0.00    +0.000 A 
ENDBRANCH  20  21
ENDBRANCH  18  20
ENDBRANCH   1  18
TORSDOF 3
ENDMDL
MODEL 6
REMARK VINA RESULT:      -8.5      4.236      9.037
REMARK  Name = 
REMARK  3 active torsions:
REMARK  status: ('A' for Active; 'I' for Inactive)
REMARK    1  A    between atoms: C_2  and  O_3
REMARK    2  A    between atoms: C_2  and  C_21
REMARK    3  A    between atoms: O_3  and  C_4
REMARK                            x       y       z     vdW  Elec       q    Type
REMARK                         _______ _______ _______ _____ _____    ______ ____
ROOT
ATOM      1  C   UNL     1       1.839   7.593  20.096  0.00  0.00    +0.000 A 
ATOM      2  C   UNL     1       1.343   6.495  20.828  0.00  0.00    +0.000 A 
ATOM      3  C   UNL     1       1.715   5.190  20.493  0.00  0.00    +0.000 A 
ATOM      4  C   UNL     1       2.588   5.034  19.435  0.00  0.00    +0.000 A 
ATOM      5  C   UNL     1       3.091   6.114  18.690  0.00  0.00    +0.000 A 
ATOM      6  C   UNL     1       2.723   7.410  19.021  0.00  0.00    +0.000 A 
ATOM      7  C   UNL     1       3.969   5.596  17.664  0.00  0.00    +0.000 A 
ATOM      8  N   UNL     1       4.610   6.349  16.740  0.00  0.00    +0.000 NA
ATOM      9  C   UNL     1       5.344   5.529  15.911  0.00  0.00    +0.000 A 
ATOM     10  N   UNL     1       6.095   5.913  14.881  0.00  0.00    +0.000 NA
ATOM     11  O   UNL     1       6.627   4.730  14.367  0.00  0.00    +0.000 OA
ATOM     12  N   UNL     1       6.207   3.603  15.073  0.00  0.00    +0.000 NA
ATOM     13  C   UNL     1       5.412   4.078  16.032  0.00  0.00    +0.000 A 
ATOM     14  N   UNL     1       4.753   3.341  16.985  0.00  0.00    +0.000 NA
ATOM     15  C   UNL     1       4.043   4.193  17.762  0.00  0.00    +0.000 A 
ATOM     16  C   UNL     1       3.175   3.787  18.890  0.00  0.00    +0.000 C 
ATOM     17  O   UNL     1       2.973   2.669  19.314  0.00  0.00    +0.000 OA
ENDROOT
BRANCH   1  18
ATOM     18  O   UNL     1       1.566   8.942  20.453  0.00  0.00    +0.000 OA
BRANCH  18  20
ATOM     19  O   UNL     1       0.252   9.737  18.695  0.00  0.00    +0.000 OA
ATOM     20  C   UNL     1       0.521   9.666  19.886  0.00  0.00    +0.000 C 
BRANCH  20  21
ATOM     21  C   UNL     1      -0.279  10.374  20.931  0.00  0.00    +0.000 A 
ATOM     22  C   UNL     1      -0.310   9.812  22.218  0.00  0.00    +0.000 A 
ATOM     23  C   UNL     1      -1.026  10.425  23.249  0.00  0.00    +0.000 A 
ATOM     24  C   UNL     1      -1.717  11.609  23.004  0.00  0.00    +0.000 A 
ATOM     25  C   UNL     1      -1.698  12.175  21.729  0.00  0.00    +0.000 A 
ATOM     26  C   UNL     1      -0.982  11.561  20.691  0.00  0.00    +0.000 A 
ENDBRANCH  20  21
ENDBRANCH  18  20
ENDBRANCH   1  18
TORSDOF 3
ENDMDL
MODEL 7
REMARK VINA RESULT:      -8.5      4.050      8.253
REMARK  Name = 
REMARK  3 active torsions:
REMARK  status: ('A' for Active; 'I' for Inactive)
REMARK    1  A    between atoms: C_2  and  O_3
REMARK    2  A    between atoms: C_2  and  C_21
REMARK    3  A    between atoms: O_3  and  C_4
REMARK                            x       y       z     vdW  Elec       q    Type
REMARK                         _______ _______ _______ _____ _____    ______ ____
ROOT
ATOM      1  C   UNL     1       1.512   8.368  19.949  0.00  0.00    +0.000 A 
ATOM      2  C   UNL     1       1.108   7.399  20.890  0.00  0.00    +0.000 A 
ATOM      3  C   UNL     1       1.573   6.084  20.801  0.00  0.00    +0.000 A 
ATOM      4  C   UNL     1       2.443   5.790  19.770  0.00  0.00    +0.000 A 
ATOM      5  C   UNL     1       2.855   6.739  18.820  0.00  0.00    +0.000 A 
ATOM      6  C   UNL     1       2.396   8.045  18.906  0.00  0.00    +0.000 A 
ATOM      7  C   UNL     1       3.758   6.097  17.890  0.00  0.00    +0.000 A 
ATOM      8  N   UNL     1       4.330   6.701  16.823  0.00  0.00    +0.000 NA
ATOM      9  C   UNL     1       5.114   5.791  16.148  0.00  0.00    +0.000 A 
ATOM     10  N   UNL     1       5.823   6.022  15.045  0.00  0.00    +0.000 NA
ATOM     11  O   UNL     1       6.436   4.804  14.753  0.00  0.00    +0.000 OA
ATOM     12  N   UNL     1       6.110   3.806  15.673  0.00  0.00    +0.000 NA
ATOM     13  C   UNL     1       5.293   4.399  16.543  0.00  0.00    +0.000 A 
ATOM     14  N   UNL     1       4.701   3.816  17.635  0.00  0.00    +0.000 NA
ATOM     15  C   UNL     1       3.938   4.748  18.253  0.00  0.00    +0.000 A 
ATOM     16  C   UNL     1       3.115   4.506  19.460  0.00  0.00    +0.000 C 
ATOM     17  O   UNL     1       3.003   3.480  20.095  0.00  0.00    +0.000 OA
ENDROOT
BRANCH   1  18
ATOM     18  O   UNL     1       1.143   9.738  20.048  0.00  0.00    +0.000 OA
BRANCH  18  20
ATOM     19  O   UNL     1       1.854  11.139  18.322  0.00  0.00    +0.000 OA
ATOM     20  C   UNL     1       0.973  10.546  18.928  0.00  0.00    +0.000 C 
BRANCH  20  21
ATOM     21  C   UNL     1      -0.463  10.615  18.520  0.00  0.00    +0.000 A 
ATOM     22  C   UNL     1      -1.273  11.576  19.148  0.00  0.00    +0.000 A 
ATOM     23  C   UNL     1      -2.621  11.708  18.809  0.00  0.00    +0.000 A 
ATOM     24  C   UNL     1      -3.175  10.880  17.837  0.00  0.00    +0.000 A 
ATOM     25  C   UNL     1      -2.384   9.918  17.209  0.00  0.00    +0.000 A 
ATOM     26  C   UNL     1      -1.030   9.782  17.548  0.00  0.00    +0.000 A 
ENDBRANCH  20  21
ENDBRANCH  18  20
ENDBRANCH   1  18
TORSDOF 3
ENDMDL
MODEL 8
REMARK VINA RESULT:      -8.4      4.461      9.248
REMARK  Name = 
REMARK  3 active torsions:
REMARK  status: ('A' for Active; 'I' for Inactive)
REMARK    1  A    between atoms: C_2  and  O_3
REMARK    2  A    between atoms: C_2  and  C_21
REMARK    3  A    between atoms: O_3  and  C_4
REMARK                            x       y       z     vdW  Elec       q    Type
REMARK                         _______ _______ _______ _____ _____    ______ ____
ROOT
ATOM      1  C   UNL     1       1.602   7.833  20.186  0.00  0.00    +0.000 A 
ATOM      2  C   UNL     1       1.174   6.760  20.994  0.00  0.00    +0.000 A 
ATOM      3  C   UNL     1       1.614   5.458  20.739  0.00  0.00    +0.000 A 
ATOM      4  C   UNL     1       2.485   5.281  19.682  0.00  0.00    +0.000 A 
ATOM      5  C   UNL     1       2.919   6.336  18.862  0.00  0.00    +0.000 A 
ATOM      6  C   UNL     1       2.484   7.629  19.113  0.00  0.00    +0.000 A 
ATOM      7  C   UNL     1       3.815   5.801  17.860  0.00  0.00    +0.000 A 
ATOM      8  N   UNL     1       4.404   6.526  16.881  0.00  0.00    +0.000 NA
ATOM      9  C   UNL     1       5.174   5.694  16.097  0.00  0.00    +0.000 A 
ATOM     10  N   UNL     1       5.893   6.051  15.035  0.00  0.00    +0.000 NA
ATOM     11  O   UNL     1       6.484   4.868  14.591  0.00  0.00    +0.000 OA
ATOM     12  N   UNL     1       6.135   3.768  15.374  0.00  0.00    +0.000 NA
ATOM     13  C   UNL     1       5.324   4.260  16.311  0.00  0.00    +0.000 A 
ATOM     14  N   UNL     1       4.716   3.553  17.318  0.00  0.00    +0.000 NA
ATOM     15  C   UNL     1       3.968   4.413  18.048  0.00  0.00    +0.000 A 
ATOM     16  C   UNL     1       3.134   4.035  19.211  0.00  0.00    +0.000 C 
ATOM     17  O   UNL     1       2.999   2.938  19.709  0.00  0.00    +0.000 OA
ENDROOT
BRANCH   1  18
ATOM     18  O   UNL     1       1.257   9.186  20.458  0.00  0.00    +0.000 OA
BRANCH  18  20
ATOM     19  O   UNL     1       1.759   9.396  22.728  0.00  0.00    +0.000 OA
ATOM     20  C   UNL     1       1.071   9.661  21.753  0.00  0.00    +0.000 C 
BRANCH  20  21
ATOM     21  C   UNL     1      -0.108  10.576  21.831  0.00  0.00    +0.000 A 
ATOM     22  C   UNL     1      -0.519  11.211  20.646  0.00  0.00    +0.000 A 
ATOM     23  C   UNL     1      -1.620  12.069  20.640  0.00  0.00    +0.000 A 
ATOM     24  C   UNL     1      -2.325  12.301  21.818  0.00  0.00    +0.000 A 
ATOM     25  C   UNL     1      -1.925  11.681  23.002  0.00  0.00    +0.000 A 
ATOM     26  C   UNL     1      -0.819  10.820  23.013  0.00  0.00    +0.000 A 
ENDBRANCH  20  21
ENDBRANCH  18  20
ENDBRANCH   1  18
TORSDOF 3
ENDMDL
MODEL 9
REMARK VINA RESULT:      -8.4      4.048      8.897
REMARK  Name = 
REMARK  3 active torsions:
REMARK  status: ('A' for Active; 'I' for Inactive)
REMARK    1  A    between atoms: C_2  and  O_3
REMARK    2  A    between atoms: C_2  and  C_21
REMARK    3  A    between atoms: O_3  and  C_4
REMARK                            x       y       z     vdW  Elec       q    Type
REMARK                         _______ _______ _______ _____ _____    ______ ____
ROOT
ATOM      1  C   UNL     1       1.805   6.550  20.229  0.00  0.00    +0.000 A 
ATOM      2  C   UNL     1       1.110   5.337  20.412  0.00  0.00    +0.000 A 
ATOM      3  C   UNL     1       1.496   4.186  19.720  0.00  0.00    +0.000 A 
ATOM      4  C   UNL     1       2.583   4.291  18.875  0.00  0.00    +0.000 A 
ATOM      5  C   UNL     1       3.286   5.490  18.675  0.00  0.00    +0.000 A 
ATOM      6  C   UNL     1       2.905   6.635  19.360  0.00  0.00    +0.000 A 
ATOM      7  C   UNL     1       4.355   5.246  17.732  0.00  0.00    +0.000 A 
ATOM      8  N   UNL     1       5.220   6.183  17.283  0.00  0.00    +0.000 NA
ATOM      9  C   UNL     1       6.092   5.607  16.384  0.00  0.00    +0.000 A 
ATOM     10  N   UNL     1       7.075   6.222  15.729  0.00  0.00    +0.000 NA
ATOM     11  O   UNL     1       7.663   5.226  14.950  0.00  0.00    +0.000 OA
ATOM     12  N   UNL     1       7.047   3.985  15.114  0.00  0.00    +0.000 NA
ATOM     13  C   UNL     1       6.073   4.202  15.997  0.00  0.00    +0.000 A 
ATOM     14  N   UNL     1       5.184   3.272  16.476  0.00  0.00    +0.000 NA
ATOM     15  C   UNL     1       4.348   3.892  17.343  0.00  0.00    +0.000 A 
ATOM     16  C   UNL     1       3.228   3.238  18.056  0.00  0.00    +0.000 C 
ATOM     17  O   UNL     1       2.890   2.074  18.009  0.00  0.00    +0.000 OA
ENDROOT
BRANCH   1  18
ATOM     18  O   UNL     1       1.511   7.725  20.975  0.00  0.00    +0.000 OA
BRANCH  18  20
ATOM     19  O   UNL     1       1.387   9.261  19.223  0.00  0.00    +0.000 OA
ATOM     20  C   UNL     1       1.131   8.918  20.368  0.00  0.00    +0.000 C 
BRANCH  20  21
ATOM     21  C   UNL     1       0.337   9.773  21.301  0.00  0.00    +0.000 A 
ATOM     22  C   UNL     1       0.117  11.110  20.930  0.00  0.00    +0.000 A 
ATOM     23  C   UNL     1      -0.627  11.966  21.746  0.00  0.00    +0.000 A 
ATOM     24  C   UNL     1      -1.162  11.493  22.941  0.00  0.00    +0.000 A 
ATOM     25  C   UNL     1      -0.947  10.168  23.324  0.00  0.00    +0.000 A 
ATOM     26  C   UNL     1      -0.199   9.307  22.509  0.00  0.00    +0.000 A 
ENDBRANCH  20  21
ENDBRANCH  18  20
ENDBRANCH   1  18
TORSDOF 3
ENDMDL
