MODEL 1
REMARK VINA RESULT:      -8.0      0.000      0.000
REMARK  Name = 
REMARK  7 active torsions:
REMARK  status: ('A' for Active; 'I' for Inactive)
REMARK    1  A    between atoms: C_1  and  C_2
REMARK    2  A    between atoms: C_6  and  C_7
REMARK    3  A    between atoms: C_7  and  N_8
REMARK    4  A    between atoms: C_9  and  C_11
REMARK    5  A    between atoms: C_11  and  C_12
REMARK    6  A    between atoms: C_12  and  C_13
REMARK    7  A    between atoms: C_13  and  N_14
REMARK                            x       y       z     vdW  Elec       q    Type
REMARK                         _______ _______ _______ _____ _____    ______ ____
ROOT
ATOM      1  C   UNL     1       2.353   4.636  19.817  0.00  0.00    +0.000 C 
ATOM      2  C   UNL     1       2.751   4.324  21.277  0.00  0.00    +0.000 C 
ATOM      3  C   UNL     1       2.309   2.891  21.536  0.00  0.00    +0.000 C 
ATOM      4  C   UNL     1       1.084   2.672  20.661  0.00  0.00    +0.000 C 
ATOM      5  C   UNL     1       1.013   3.863  19.703  0.00  0.00    +0.000 C 
ENDROOT
BRANCH   1  11
ATOM      6  C   UNL     1       0.927   9.225  21.466  0.00  0.00    +0.000 C 
ATOM      7  C   UNL     1       1.455   8.362  20.358  0.00  0.00    +0.000 A 
ATOM      8  C   UNL     1       1.757   8.908  19.110  0.00  0.00    +0.000 A 
ATOM      9  C   UNL     1       2.223   8.088  18.084  0.00  0.00    +0.000 A 
ATOM     10  C   UNL     1       2.407   6.720  18.299  0.00  0.00    +0.000 A 
ATOM     11  C   UNL     1       2.151   6.143  19.555  0.00  0.00    +0.000 A 
ATOM     12  C   UNL     1       1.643   6.985  20.566  0.00  0.00    +0.000 A 
ENDBRANCH   1  11
BRANCH   1  13
ATOM     13  N   UNL     1       3.409   4.203  18.880  0.00  0.00    +0.000 N 
ATOM     14  C   UNL     1       3.259   3.599  17.657  0.00  0.00    +0.000 C 
ATOM     15  O   UNL     1       2.192   3.373  17.101  0.00  0.00    +0.000 OA
ATOM     16  H   UNL     1       4.339   4.197  19.280  0.00  0.00    +0.000 HD
BRANCH  14  17
ATOM     17  C   UNL     1       4.563   3.320  16.938  0.00  0.00    +0.000 C 
BRANCH  17  18
ATOM     18  C   UNL     1       5.033   4.582  16.211  0.00  0.00    +0.000 C 
BRANCH  18  19
ATOM     19  C   UNL     1       6.558   4.648  16.108  0.00  0.00    +0.000 C 
BRANCH  19  20
ATOM     20  N   UNL     1       7.143   5.359  17.224  0.00  0.00    +0.000 N 
ATOM     21  C   UNL     1       7.391   6.689  17.326  0.00  0.00    +0.000 A 
ATOM     22  N   UNL     1       7.918   6.948  18.499  0.00  0.00    +0.000 NA
ATOM     23  C   UNL     1       7.976   5.714  19.084  0.00  0.00    +0.000 A 
ATOM     24  N   UNL     1       7.509   4.707  18.339  0.00  0.00    +0.000 NA
ENDBRANCH  19  20
ENDBRANCH  18  19
ENDBRANCH  17  18
ENDBRANCH  14  17
ENDBRANCH   1  13
TORSDOF 6
ENDMDL
MODEL 2
REMARK VINA RESULT:      -7.8      2.277      6.674
REMARK  Name = 
REMARK  7 active torsions:
REMARK  status: ('A' for Active; 'I' for Inactive)
REMARK    1  A    between atoms: C_1  and  C_2
REMARK    2  A    between atoms: C_6  and  C_7
REMARK    3  A    between atoms: C_7  and  N_8
REMARK    4  A    between atoms: C_9  and  C_11
REMARK    5  A    between atoms: C_11  and  C_12
REMARK    6  A    between atoms: C_12  and  C_13
REMARK    7  A    between atoms: C_13  and  N_14
REMARK                            x       y       z     vdW  Elec       q    Type
REMARK                         _______ _______ _______ _____ _____    ______ ____
ROOT
ATOM      1  C   UNL     1       6.579   5.508  17.423  0.00  0.00    +0.000 C 
ATOM      2  C   UNL     1       7.680   4.788  18.233  0.00  0.00    +0.000 C 
ATOM      3  C   UNL     1       8.181   5.800  19.253  0.00  0.00    +0.000 C 
ATOM      4  C   UNL     1       8.012   7.163  18.599  0.00  0.00    +0.000 C 
ATOM      5  C   UNL     1       7.156   6.945  17.350  0.00  0.00    +0.000 C 
ENDROOT
BRANCH   1  11
ATOM      6  C   UNL     1       7.891   5.318  12.518  0.00  0.00    +0.000 C 
ATOM      7  C   UNL     1       7.018   4.829  13.638  0.00  0.00    +0.000 A 
ATOM      8  C   UNL     1       6.043   3.859  13.411  0.00  0.00    +0.000 A 
ATOM      9  C   UNL     1       5.224   3.435  14.456  0.00  0.00    +0.000 A 
ATOM     10  C   UNL     1       5.383   3.964  15.739  0.00  0.00    +0.000 A 
ATOM     11  C   UNL     1       6.382   4.914  16.012  0.00  0.00    +0.000 A 
ATOM     12  C   UNL     1       7.172   5.356  14.931  0.00  0.00    +0.000 A 
ENDBRANCH   1  11
BRANCH   1  13
ATOM     13  N   UNL     1       5.270   5.389  18.096  0.00  0.00    +0.000 N 
ATOM     14  C   UNL     1       4.168   6.193  17.948  0.00  0.00    +0.000 C 
ATOM     15  O   UNL     1       4.069   7.128  17.164  0.00  0.00    +0.000 OA
ATOM     16  H   UNL     1       5.265   4.748  18.878  0.00  0.00    +0.000 HD
BRANCH  14  17
ATOM     17  C   UNL     1       2.970   5.761  18.769  0.00  0.00    +0.000 C 
BRANCH  17  18
ATOM     18  C   UNL     1       2.104   4.797  17.955  0.00  0.00    +0.000 C 
BRANCH  18  19
ATOM     19  C   UNL     1       2.403   3.336  18.292  0.00  0.00    +0.000 C 
BRANCH  19  20
ATOM     20  N   UNL     1       2.251   3.067  19.705  0.00  0.00    +0.000 N 
ATOM     21  C   UNL     1       3.222   2.773  20.606  0.00  0.00    +0.000 A 
ATOM     22  N   UNL     1       2.686   2.607  21.791  0.00  0.00    +0.000 NA
ATOM     23  C   UNL     1       1.356   2.810  21.552  0.00  0.00    +0.000 A 
ATOM     24  N   UNL     1       1.040   3.097  20.285  0.00  0.00    +0.000 NA
ENDBRANCH  19  20
ENDBRANCH  18  19
ENDBRANCH  17  18
ENDBRANCH  14  17
ENDBRANCH   1  13
TORSDOF 6
ENDMDL
MODEL 3
REMARK VINA RESULT:      -7.8      1.689      2.551
REMARK  Name = 
REMARK  7 active torsions:
REMARK  status: ('A' for Active; 'I' for Inactive)
REMARK    1  A    between atoms: C_1  and  C_2
REMARK    2  A    between atoms: C_6  and  C_7
REMARK    3  A    between atoms: C_7  and  N_8
REMARK    4  A    between atoms: C_9  and  C_11
REMARK    5  A    between atoms: C_11  and  C_12
REMARK    6  A    between atoms: C_12  and  C_13
REMARK    7  A    between atoms: C_13  and  N_14
REMARK                            x       y       z     vdW  Elec       q    Type
REMARK                         _______ _______ _______ _____ _____    ______ ____
ROOT
ATOM      1  C   UNL     1       2.733   5.539  19.720  0.00  0.00    +0.000 C 
ATOM      2  C   UNL     1       2.226   4.995  21.074  0.00  0.00    +0.000 C 
ATOM      3  C   UNL     1       2.251   3.478  20.954  0.00  0.00    +0.000 C 
ATOM      4  C   UNL     1       1.997   3.176  19.485  0.00  0.00    +0.000 C 
ATOM      5  C   UNL     1       2.122   4.506  18.738  0.00  0.00    +0.000 C 
ENDROOT
BRANCH   1  11
ATOM      6  C   UNL     1       0.501   9.831  21.273  0.00  0.00    +0.000 C 
ATOM      7  C   UNL     1       1.143   9.039  20.171  0.00  0.00    +0.000 A 
ATOM      8  C   UNL     1       1.280   9.577  18.891  0.00  0.00    +0.000 A 
ATOM      9  C   UNL     1       1.855   8.818  17.873  0.00  0.00    +0.000 A 
ATOM     10  C   UNL     1       2.313   7.524  18.128  0.00  0.00    +0.000 A 
ATOM     11  C   UNL     1       2.228   6.965  19.414  0.00  0.00    +0.000 A 
ATOM     12  C   UNL     1       1.606   7.736  20.419  0.00  0.00    +0.000 A 
ENDBRANCH   1  11
BRANCH   1  13
ATOM     13  N   UNL     1       4.207   5.623  19.706  0.00  0.00    +0.000 N 
ATOM     14  C   UNL     1       5.097   4.770  19.102  0.00  0.00    +0.000 C 
ATOM     15  O   UNL     1       4.800   3.809  18.405  0.00  0.00    +0.000 OA
ATOM     16  H   UNL     1       4.589   6.287  20.367  0.00  0.00    +0.000 HD
BRANCH  14  17
ATOM     17  C   UNL     1       6.548   5.175  19.256  0.00  0.00    +0.000 C 
BRANCH  17  18
ATOM     18  C   UNL     1       7.321   4.831  17.981  0.00  0.00    +0.000 C 
BRANCH  18  19
ATOM     19  C   UNL     1       7.041   5.827  16.855  0.00  0.00    +0.000 C 
BRANCH  19  20
ATOM     20  N   UNL     1       6.858   5.166  15.583  0.00  0.00    +0.000 N 
ATOM     21  C   UNL     1       5.946   4.213  15.262  0.00  0.00    +0.000 A 
ATOM     22  N   UNL     1       6.091   3.872  14.004  0.00  0.00    +0.000 NA
ATOM     23  C   UNL     1       7.129   4.660  13.595  0.00  0.00    +0.000 A 
ATOM     24  N   UNL     1       7.632   5.474  14.529  0.00  0.00    +0.000 NA
ENDBRANCH  19  20
ENDBRANCH  18  19
ENDBRANCH  17  18
ENDBRANCH  14  17
ENDBRANCH   1  13
TORSDOF 6
ENDMDL
MODEL 4
REMARK VINA RESULT:      -7.7      1.773      4.296
REMARK  Name = 
REMARK  7 active torsions:
REMARK  status: ('A' for Active; 'I' for Inactive)
REMARK    1  A    between atoms: C_1  and  C_2
REMARK    2  A    between atoms: C_6  and  C_7
REMARK    3  A    between atoms: C_7  and  N_8
REMARK    4  A    between atoms: C_9  and  C_11
REMARK    5  A    between atoms: C_11  and  C_12
REMARK    6  A    between atoms: C_12  and  C_13
REMARK    7  A    between atoms: C_13  and  N_14
REMARK                            x       y       z     vdW  Elec       q    Type
REMARK                         _______ _______ _______ _____ _____    ______ ____
ROOT
ATOM      1  C   UNL     1       2.559   6.658  18.871  0.00  0.00    +0.000 C 
ATOM      2  C   UNL     1       1.950   7.381  17.649  0.00  0.00    +0.000 C 
ATOM      3  C   UNL     1       1.943   8.862  17.997  0.00  0.00    +0.000 C 
ATOM      4  C   UNL     1       1.778   8.931  19.507  0.00  0.00    +0.000 C 
ATOM      5  C   UNL     1       1.987   7.509  20.034  0.00  0.00    +0.000 C 
ENDROOT
BRANCH   1  11
ATOM      6  C   UNL     1       1.430   2.626  21.749  0.00  0.00    +0.000 C 
ATOM      7  C   UNL     1       1.571   3.236  20.384  0.00  0.00    +0.000 A 
ATOM      8  C   UNL     1       1.308   2.486  19.237  0.00  0.00    +0.000 A 
ATOM      9  C   UNL     1       1.469   3.060  17.978  0.00  0.00    +0.000 A 
ATOM     10  C   UNL     1       1.877   4.390  17.852  0.00  0.00    +0.000 A 
ATOM     11  C   UNL     1       2.113   5.185  18.986  0.00  0.00    +0.000 A 
ATOM     12  C   UNL     1       1.981   4.572  20.250  0.00  0.00    +0.000 A 
ENDBRANCH   1  11
BRANCH   1  13
ATOM     13  N   UNL     1       4.033   6.626  18.782  0.00  0.00    +0.000 N 
ATOM     14  C   UNL     1       4.810   6.561  17.653  0.00  0.00    +0.000 C 
ATOM     15  O   UNL     1       4.395   6.583  16.502  0.00  0.00    +0.000 OA
ATOM     16  H   UNL     1       4.496   6.455  19.665  0.00  0.00    +0.000 HD
BRANCH  14  17
ATOM     17  C   UNL     1       6.300   6.583  17.923  0.00  0.00    +0.000 C 
BRANCH  17  18
ATOM     18  C   UNL     1       6.756   5.211  18.423  0.00  0.00    +0.000 C 
BRANCH  18  19
ATOM     19  C   UNL     1       7.703   4.527  17.436  0.00  0.00    +0.000 C 
BRANCH  19  20
ATOM     20  N   UNL     1       7.140   4.460  16.106  0.00  0.00    +0.000 N 
ATOM     21  C   UNL     1       6.102   3.697  15.679  0.00  0.00    +0.000 A 
ATOM     22  N   UNL     1       5.883   3.926  14.406  0.00  0.00    +0.000 NA
ATOM     23  C   UNL     1       6.839   4.853  14.098  0.00  0.00    +0.000 A 
ATOM     24  N   UNL     1       7.633   5.213  15.111  0.00  0.00    +0.000 NA
ENDBRANCH  19  20
ENDBRANCH  18  19
ENDBRANCH  17  18
ENDBRANCH  14  17
ENDBRANCH   1  13
TORSDOF 6
ENDMDL
MODEL 5
REMARK VINA RESULT:      -7.7      1.656      2.439
REMARK  Name = 
REMARK  7 active torsions:
REMARK  status: ('A' for Active; 'I' for Inactive)
REMARK    1  A    between atoms: C_1  and  C_2
REMARK    2  A    between atoms: C_6  and  C_7
REMARK    3  A    between atoms: C_7  and  N_8
REMARK    4  A    between atoms: C_9  and  C_11
REMARK    5  A    between atoms: C_11  and  C_12
REMARK    6  A    between atoms: C_12  and  C_13
REMARK    7  A    between atoms: C_13  and  N_14
REMARK                            x       y       z     vdW  Elec       q    Type
REMARK                         _______ _______ _______ _____ _____    ______ ____
ROOT
ATOM      1  C   UNL     1       2.337   4.703  19.787  0.00  0.00    +0.000 C 
ATOM      2  C   UNL     1       2.745   4.360  21.237  0.00  0.00    +0.000 C 
ATOM      3  C   UNL     1       2.323   2.916  21.463  0.00  0.00    +0.000 C 
ATOM      4  C   UNL     1       1.098   2.702  20.588  0.00  0.00    +0.000 C 
ATOM      5  C   UNL     1       1.007   3.916  19.659  0.00  0.00    +0.000 C 
ENDROOT
BRANCH   1  11
ATOM      6  C   UNL     1       0.869   9.233  21.558  0.00  0.00    +0.000 C 
ATOM      7  C   UNL     1       1.399   8.403  20.424  0.00  0.00    +0.000 A 
ATOM      8  C   UNL     1       1.683   8.982  19.187  0.00  0.00    +0.000 A 
ATOM      9  C   UNL     1       2.149   8.193  18.138  0.00  0.00    +0.000 A 
ATOM     10  C   UNL     1       2.352   6.823  18.319  0.00  0.00    +0.000 A 
ATOM     11  C   UNL     1       2.114   6.213  19.563  0.00  0.00    +0.000 A 
ATOM     12  C   UNL     1       1.605   7.025  20.598  0.00  0.00    +0.000 A 
ENDBRANCH   1  11
BRANCH   1  13
ATOM     13  N   UNL     1       3.395   4.306  18.836  0.00  0.00    +0.000 N 
ATOM     14  C   UNL     1       3.252   3.667  17.630  0.00  0.00    +0.000 C 
ATOM     15  O   UNL     1       2.188   3.369  17.105  0.00  0.00    +0.000 OA
ATOM     16  H   UNL     1       4.332   4.361  19.215  0.00  0.00    +0.000 HD
BRANCH  14  17
ATOM     17  C   UNL     1       4.553   3.444  16.888  0.00  0.00    +0.000 C 
BRANCH  17  18
ATOM     18  C   UNL     1       5.030   4.760  16.271  0.00  0.00    +0.000 C 
BRANCH  18  19
ATOM     19  C   UNL     1       6.534   4.750  15.993  0.00  0.00    +0.000 C 
BRANCH  19  20
ATOM     20  N   UNL     1       6.821   4.656  14.579  0.00  0.00    +0.000 N 
ATOM     21  C   UNL     1       6.255   3.825  13.667  0.00  0.00    +0.000 A 
ATOM     22  N   UNL     1       6.774   4.052  12.485  0.00  0.00    +0.000 NA
ATOM     23  C   UNL     1       7.673   5.049  12.735  0.00  0.00    +0.000 A 
ATOM     24  N   UNL     1       7.736   5.455  14.007  0.00  0.00    +0.000 NA
ENDBRANCH  19  20
ENDBRANCH  18  19
ENDBRANCH  17  18
ENDBRANCH  14  17
ENDBRANCH   1  13
TORSDOF 6
ENDMDL
MODEL 6
REMARK VINA RESULT:      -7.7      0.963      1.196
REMARK  Name = 
REMARK  7 active torsions:
REMARK  status: ('A' for Active; 'I' for Inactive)
REMARK    1  A    between atoms: C_1  and  C_2
REMARK    2  A    between atoms: C_6  and  C_7
REMARK    3  A    between atoms: C_7  and  N_8
REMARK    4  A    between atoms: C_9  and  C_11
REMARK    5  A    between atoms: C_11  and  C_12
REMARK    6  A    between atoms: C_12  and  C_13
REMARK    7  A    between atoms: C_13  and  N_14
REMARK                            x       y       z     vdW  Elec       q    Type
REMARK                         _______ _______ _______ _____ _____    ______ ____
ROOT
ATOM      1  C   UNL     1       2.254   4.531  19.756  0.00  0.00    +0.000 C 
ATOM      2  C   UNL     1       3.014   4.152  21.047  0.00  0.00    +0.000 C 
ATOM      3  C   UNL     1       2.561   2.743  21.403  0.00  0.00    +0.000 C 
ATOM      4  C   UNL     1       1.131   2.630  20.897  0.00  0.00    +0.000 C 
ATOM      5  C   UNL     1       0.884   3.851  20.008  0.00  0.00    +0.000 C 
ENDROOT
BRANCH   1  11
ATOM      6  C   UNL     1       1.003   9.070  21.666  0.00  0.00    +0.000 C 
ATOM      7  C   UNL     1       1.484   8.250  20.504  0.00  0.00    +0.000 A 
ATOM      8  C   UNL     1       1.780   8.850  19.280  0.00  0.00    +0.000 A 
ATOM      9  C   UNL     1       2.201   8.070  18.205  0.00  0.00    +0.000 A 
ATOM     10  C   UNL     1       2.346   6.689  18.346  0.00  0.00    +0.000 A 
ATOM     11  C   UNL     1       2.095   6.056  19.576  0.00  0.00    +0.000 A 
ATOM     12  C   UNL     1       1.633   6.859  20.639  0.00  0.00    +0.000 A 
ENDBRANCH   1  11
BRANCH   1  13
ATOM     13  N   UNL     1       2.980   4.058  18.561  0.00  0.00    +0.000 N 
ATOM     14  C   UNL     1       4.311   3.740  18.451  0.00  0.00    +0.000 C 
ATOM     15  O   UNL     1       5.120   3.738  19.369  0.00  0.00    +0.000 OA
ATOM     16  H   UNL     1       2.462   4.156  17.697  0.00  0.00    +0.000 HD
BRANCH  14  17
ATOM     17  C   UNL     1       4.720   3.249  17.077  0.00  0.00    +0.000 C 
BRANCH  17  18
ATOM     18  C   UNL     1       5.206   4.427  16.230  0.00  0.00    +0.000 C 
BRANCH  18  19
ATOM     19  C   UNL     1       6.731   4.540  16.228  0.00  0.00    +0.000 C 
BRANCH  19  20
ATOM     20  N   UNL     1       7.192   5.642  17.042  0.00  0.00    +0.000 N 
ATOM     21  C   UNL     1       7.717   5.592  18.293  0.00  0.00    +0.000 A 
ATOM     22  N   UNL     1       8.025   6.804  18.689  0.00  0.00    +0.000 NA
ATOM     23  C   UNL     1       7.655   7.573  17.622  0.00  0.00    +0.000 A 
ATOM     24  N   UNL     1       7.139   6.904  16.586  0.00  0.00    +0.000 NA
ENDBRANCH  19  20
ENDBRANCH  18  19
ENDBRANCH  17  18
ENDBRANCH  14  17
ENDBRANCH   1  13
TORSDOF 6
ENDMDL
MODEL 7
REMARK VINA RESULT:      -7.7      1.291      1.973
REMARK  Name = 
REMARK  7 active torsions:
REMARK  status: ('A' for Active; 'I' for Inactive)
REMARK    1  A    between atoms: C_1  and  C_2
REMARK    2  A    between atoms: C_6  and  C_7
REMARK    3  A    between atoms: C_7  and  N_8
REMARK    4  A    between atoms: C_9  and  C_11
REMARK    5  A    between atoms: C_11  and  C_12
REMARK    6  A    between atoms: C_12  and  C_13
REMARK    7  A    between atoms: C_13  and  N_14
REMARK                            x       y       z     vdW  Elec       q    Type
REMARK                         _______ _______ _______ _____ _____    ______ ____
ROOT
ATOM      1  C   UNL     1       2.429   5.071  19.778  0.00  0.00    +0.000 C 
ATOM      2  C   UNL     1       1.924   4.709  21.193  0.00  0.00    +0.000 C 
ATOM      3  C   UNL     1       1.649   3.213  21.171  0.00  0.00    +0.000 C 
ATOM      4  C   UNL     1       1.239   2.889  19.743  0.00  0.00    +0.000 C 
ATOM      5  C   UNL     1       1.564   4.128  18.904  0.00  0.00    +0.000 C 
ENDROOT
BRANCH   1  11
ATOM      6  C   UNL     1       0.752   9.694  21.057  0.00  0.00    +0.000 C 
ATOM      7  C   UNL     1       1.370   8.785  20.034  0.00  0.00    +0.000 A 
ATOM      8  C   UNL     1       1.717   9.264  18.770  0.00  0.00    +0.000 A 
ATOM      9  C   UNL     1       2.265   8.401  17.824  0.00  0.00    +0.000 A 
ATOM     10  C   UNL     1       2.487   7.058  18.135  0.00  0.00    +0.000 A 
ATOM     11  C   UNL     1       2.187   6.550  19.411  0.00  0.00    +0.000 A 
ATOM     12  C   UNL     1       1.596   7.433  20.339  0.00  0.00    +0.000 A 
ENDBRANCH   1  11
BRANCH   1  13
ATOM     13  N   UNL     1       3.888   4.864  19.672  0.00  0.00    +0.000 N 
ATOM     14  C   UNL     1       4.569   4.105  18.754  0.00  0.00    +0.000 C 
ATOM     15  O   UNL     1       4.067   3.510  17.810  0.00  0.00    +0.000 OA
ATOM     16  H   UNL     1       4.409   5.180  20.480  0.00  0.00    +0.000 HD
BRANCH  14  17
ATOM     17  C   UNL     1       6.075   4.143  18.913  0.00  0.00    +0.000 C 
BRANCH  17  18
ATOM     18  C   UNL     1       6.539   5.587  19.112  0.00  0.00    +0.000 C 
BRANCH  18  19
ATOM     19  C   UNL     1       7.469   6.049  17.990  0.00  0.00    +0.000 C 
BRANCH  19  20
ATOM     20  N   UNL     1       6.928   5.751  16.683  0.00  0.00    +0.000 N 
ATOM     21  C   UNL     1       5.810   6.261  16.107  0.00  0.00    +0.000 A 
ATOM     22  N   UNL     1       5.662   5.751  14.909  0.00  0.00    +0.000 NA
ATOM     23  C   UNL     1       6.736   4.914  14.801  0.00  0.00    +0.000 A 
ATOM     24  N   UNL     1       7.544   4.881  15.865  0.00  0.00    +0.000 NA
ENDBRANCH  19  20
ENDBRANCH  18  19
ENDBRANCH  17  18
ENDBRANCH  14  17
ENDBRANCH   1  13
TORSDOF 6
ENDMDL
MODEL 8
REMARK VINA RESULT:      -7.7      3.055      7.038
REMARK  Name = 
REMARK  7 active torsions:
REMARK  status: ('A' for Active; 'I' for Inactive)
REMARK    1  A    between atoms: C_1  and  C_2
REMARK    2  A    between atoms: C_6  and  C_7
REMARK    3  A    between atoms: C_7  and  N_8
REMARK    4  A    between atoms: C_9  and  C_11
REMARK    5  A    between atoms: C_11  and  C_12
REMARK    6  A    between atoms: C_12  and  C_13
REMARK    7  A    between atoms: C_13  and  N_14
REMARK                            x       y       z     vdW  Elec       q    Type
REMARK                         _______ _______ _______ _____ _____    ______ ____
ROOT
ATOM      1  C   UNL     1       6.342   4.893  16.095  0.00  0.00    +0.000 C 
ATOM      2  C   UNL     1       7.519   4.470  17.003  0.00  0.00    +0.000 C 
ATOM      3  C   UNL     1       7.357   5.255  18.295  0.00  0.00    +0.000 C 
ATOM      4  C   UNL     1       6.690   6.565  17.902  0.00  0.00    +0.000 C 
ATOM      5  C   UNL     1       6.215   6.395  16.457  0.00  0.00    +0.000 C 
ENDROOT
BRANCH   1  11
ATOM      6  C   UNL     1       5.450   2.484  11.712  0.00  0.00    +0.000 C 
ATOM      7  C   UNL     1       6.207   3.532  12.474  0.00  0.00    +0.000 A 
ATOM      8  C   UNL     1       7.166   4.323  11.841  0.00  0.00    +0.000 A 
ATOM      9  C   UNL     1       7.877   5.275  12.569  0.00  0.00    +0.000 A 
ATOM     10  C   UNL     1       7.626   5.457  13.931  0.00  0.00    +0.000 A 
ATOM     11  C   UNL     1       6.640   4.705  14.593  0.00  0.00    +0.000 A 
ATOM     12  C   UNL     1       5.961   3.721  13.844  0.00  0.00    +0.000 A 
ENDBRANCH   1  11
BRANCH   1  13
ATOM     13  N   UNL     1       5.144   4.076  16.373  0.00  0.00    +0.000 N 
ATOM     14  C   UNL     1       3.971   4.471  16.967  0.00  0.00    +0.000 C 
ATOM     15  O   UNL     1       3.698   5.611  17.315  0.00  0.00    +0.000 OA
ATOM     16  H   UNL     1       5.290   3.080  16.270  0.00  0.00    +0.000 HD
BRANCH  14  17
ATOM     17  C   UNL     1       2.927   3.377  17.065  0.00  0.00    +0.000 C 
BRANCH  17  18
ATOM     18  C   UNL     1       1.666   3.924  17.738  0.00  0.00    +0.000 C 
BRANCH  18  19
ATOM     19  C   UNL     1       1.027   2.898  18.674  0.00  0.00    +0.000 C 
BRANCH  19  20
ATOM     20  N   UNL     1       1.706   2.833  19.949  0.00  0.00    +0.000 N 
ATOM     21  C   UNL     1       2.979   2.431  20.196  0.00  0.00    +0.000 A 
ATOM     22  N   UNL     1       3.229   2.527  21.479  0.00  0.00    +0.000 NA
ATOM     23  C   UNL     1       2.049   2.999  21.982  0.00  0.00    +0.000 A 
ATOM     24  N   UNL     1       1.084   3.204  21.080  0.00  0.00    +0.000 NA
ENDBRANCH  19  20
ENDBRANCH  18  19
ENDBRANCH  17  18
ENDBRANCH  14  17
ENDBRANCH   1  13
TORSDOF 6
ENDMDL
MODEL 9
REMARK VINA RESULT:      -7.6      1.744      2.980
REMARK  Name = 
REMARK  7 active torsions:
REMARK  status: ('A' for Active; 'I' for Inactive)
REMARK    1  A    between atoms: C_1  and  C_2
REMARK    2  A    between atoms: C_6  and  C_7
REMARK    3  A    between atoms: C_7  and  N_8
REMARK    4  A    between atoms: C_9  and  C_11
REMARK    5  A    between atoms: C_11  and  C_12
REMARK    6  A    between atoms: C_12  and  C_13
REMARK    7  A    between atoms: C_13  and  N_14
REMARK                            x       y       z     vdW  Elec       q    Type
REMARK                         _______ _______ _______ _____ _____    ______ ____
ROOT
ATOM      1  C   UNL     1       2.686   5.163  19.233  0.00  0.00    +0.000 C 
ATOM      2  C   UNL     1       2.047   4.052  20.097  0.00  0.00    +0.000 C 
ATOM      3  C   UNL     1       2.177   2.767  19.293  0.00  0.00    +0.000 C 
ATOM      4  C   UNL     1       2.127   3.187  17.831  0.00  0.00    +0.000 C 
ATOM      5  C   UNL     1       2.264   4.711  17.811  0.00  0.00    +0.000 C 
ENDROOT
BRANCH   1  11
ATOM      6  C   UNL     1       1.667   9.920  17.768  0.00  0.00    +0.000 C 
ATOM      7  C   UNL     1       1.651   8.872  18.843  0.00  0.00    +0.000 A 
ATOM      8  C   UNL     1       1.155   9.161  20.114  0.00  0.00    +0.000 A 
ATOM      9  C   UNL     1       1.171   8.183  21.107  0.00  0.00    +0.000 A 
ATOM     10  C   UNL     1       1.667   6.907  20.837  0.00  0.00    +0.000 A 
ATOM     11  C   UNL     1       2.138   6.569  19.556  0.00  0.00    +0.000 A 
ATOM     12  C   UNL     1       2.149   7.585  18.578  0.00  0.00    +0.000 A 
ENDBRANCH   1  11
BRANCH   1  13
ATOM     13  N   UNL     1       4.142   5.235  19.463  0.00  0.00    +0.000 N 
ATOM     14  C   UNL     1       5.107   5.735  18.624  0.00  0.00    +0.000 C 
ATOM     15  O   UNL     1       4.902   6.273  17.545  0.00  0.00    +0.000 OA
ATOM     16  H   UNL     1       4.463   4.691  20.254  0.00  0.00    +0.000 HD
BRANCH  14  17
ATOM     17  C   UNL     1       6.510   5.687  19.194  0.00  0.00    +0.000 C 
BRANCH  17  18
ATOM     18  C   UNL     1       7.531   5.645  18.055  0.00  0.00    +0.000 C 
BRANCH  18  19
ATOM     19  C   UNL     1       7.535   4.292  17.341  0.00  0.00    +0.000 C 
BRANCH  19  20
ATOM     20  N   UNL     1       7.083   4.403  15.973  0.00  0.00    +0.000 N 
ATOM     21  C   UNL     1       6.093   3.702  15.363  0.00  0.00    +0.000 A 
ATOM     22  N   UNL     1       5.976   4.100  14.119  0.00  0.00    +0.000 NA
ATOM     23  C   UNL     1       6.940   5.062  14.017  0.00  0.00    +0.000 A 
ATOM     24  N   UNL     1       7.645   5.285  15.131  0.00  0.00    +0.000 NA
ENDBRANCH  19  20
ENDBRANCH  18  19
ENDBRANCH  17  18
ENDBRANCH  14  17
ENDBRANCH   1  13
TORSDOF 6
ENDMDL
