MODEL 1
REMARK VINA RESULT:      -9.1      0.000      0.000
REMARK  Name = 
REMARK  7 active torsions:
REMARK  status: ('A' for Active; 'I' for Inactive)
REMARK    1  A    between atoms: C_1  and  C_2
REMARK    2  A    between atoms: C_6  and  N_7
REMARK    3  A    between atoms: C_11  and  N_12
REMARK    4  A    between atoms: N_12  and  C_13
REMARK    5  A    between atoms: C_14  and  C_15
REMARK    6  A    between atoms: N_16  and  C_17
REMARK    7  A    between atoms: N_18  and  C_19
REMARK                            x       y       z     vdW  Elec       q    Type
REMARK                         _______ _______ _______ _____ _____    ______ ____
ROOT
ATOM      1  N   UNL     1       4.594   4.956  16.803  0.00  0.00    +0.000 N 
ATOM      2  C   UNL     1       4.484   6.220  17.404  0.00  0.00    +0.000 C 
ATOM      3  O   UNL     1       5.309   7.131  17.374  0.00  0.00    +0.000 OA
ATOM      4  C   UNL     1       3.204   6.405  18.185  0.00  0.00    +0.000 C 
ATOM      5  C   UNL     1       2.730   7.670  18.221  0.00  0.00    +0.000 C 
ATOM      6  C   UNL     1       2.552   5.221  18.772  0.00  0.00    +0.000 A 
ATOM      7  C   UNL     1       1.521   5.280  19.725  0.00  0.00    +0.000 A 
ATOM      8  C   UNL     1       0.941   4.122  20.247  0.00  0.00    +0.000 A 
ATOM      9  C   UNL     1       1.412   2.876  19.861  0.00  0.00    +0.000 A 
ATOM     10  C   UNL     1       2.470   2.791  18.968  0.00  0.00    +0.000 A 
ATOM     11  C   UNL     1       3.039   3.958  18.429  0.00  0.00    +0.000 A 
ATOM     12  C   UNL     1       4.174   3.816  17.485  0.00  0.00    +0.000 C 
ATOM     13  O   UNL     1       4.698   2.704  17.421  0.00  0.00    +0.000 OA
ENDROOT
BRANCH   1  19
ATOM     14  C   UNL     1       4.878   3.433  12.222  0.00  0.00    +0.000 C 
ATOM     15  C   UNL     1       5.588   4.024  13.401  0.00  0.00    +0.000 A 
ATOM     16  C   UNL     1       6.936   4.338  13.337  0.00  0.00    +0.000 A 
ATOM     17  C   UNL     1       7.528   4.886  14.458  0.00  0.00    +0.000 A 
ATOM     18  C   UNL     1       6.754   5.114  15.598  0.00  0.00    +0.000 A 
ATOM     19  C   UNL     1       5.388   4.803  15.607  0.00  0.00    +0.000 A 
ATOM     20  N   UNL     1       4.837   4.229  14.514  0.00  0.00    +0.000 NA
ENDBRANCH   1  19
BRANCH   5  21
ATOM     21  N   UNL     1       1.494   8.136  18.646  0.00  0.00    +0.000 N 
ATOM     22  H   UNL     1       0.757   7.963  17.956  0.00  0.00    +0.000 HD
BRANCH  21  23
ATOM     23  C   UNL     1       1.239   9.299  19.333  0.00  0.00    +0.000 A 
ATOM     24  C   UNL     1       0.699   9.613  20.524  0.00  0.00    +0.000 A 
ATOM     25  C   UNL     1      -0.003   8.648  21.423  0.00  0.00    +0.000 C 
ATOM     26  N   UNL     1       0.770  10.983  20.803  0.00  0.00    +0.000 N 
ATOM     27  C   UNL     1      -0.070  11.698  21.754  0.00  0.00    +0.000 C 
ATOM     28  N   UNL     1       1.103  11.617  19.586  0.00  0.00    +0.000 N 
ATOM     29  C   UNL     1       1.472  10.631  18.665  0.00  0.00    +0.000 A 
ATOM     30  O   UNL     1       1.932  10.728  17.535  0.00  0.00    +0.000 OA
BRANCH  28  31
ATOM     31  C   UNL     1       1.495  12.964  19.469  0.00  0.00    +0.000 A 
ATOM     32  C   UNL     1       0.630  13.874  18.845  0.00  0.00    +0.000 A 
ATOM     33  C   UNL     1       0.988  15.216  18.703  0.00  0.00    +0.000 A 
ATOM     34  C   UNL     1       2.230  15.653  19.155  0.00  0.00    +0.000 A 
ATOM     35  C   UNL     1       3.104  14.754  19.766  0.00  0.00    +0.000 A 
ATOM     36  C   UNL     1       2.733  13.417  19.935  0.00  0.00    +0.000 A 
ENDBRANCH  28  31
ENDBRANCH  21  23
ENDBRANCH   5  21
TORSDOF 4
ENDMDL
MODEL 2
REMARK VINA RESULT:      -8.9      1.867      2.587
REMARK  Name = 
REMARK  7 active torsions:
REMARK  status: ('A' for Active; 'I' for Inactive)
REMARK    1  A    between atoms: C_1  and  C_2
REMARK    2  A    between atoms: C_6  and  N_7
REMARK    3  A    between atoms: C_11  and  N_12
REMARK    4  A    between atoms: N_12  and  C_13
REMARK    5  A    between atoms: C_14  and  C_15
REMARK    6  A    between atoms: N_16  and  C_17
REMARK    7  A    between atoms: N_18  and  C_19
REMARK                            x       y       z     vdW  Elec       q    Type
REMARK                         _______ _______ _______ _____ _____    ______ ____
ROOT
ATOM      1  N   UNL     1       4.529   4.437  17.497  0.00  0.00    +0.000 N 
ATOM      2  C   UNL     1       4.621   5.357  18.554  0.00  0.00    +0.000 C 
ATOM      3  O   UNL     1       5.615   5.989  18.905  0.00  0.00    +0.000 OA
ATOM      4  C   UNL     1       3.331   5.518  19.324  0.00  0.00    +0.000 C 
ATOM      5  C   UNL     1       3.129   6.743  19.858  0.00  0.00    +0.000 C 
ATOM      6  C   UNL     1       2.388   4.387  19.375  0.00  0.00    +0.000 A 
ATOM      7  C   UNL     1       1.295   4.310  20.257  0.00  0.00    +0.000 A 
ATOM      8  C   UNL     1       0.435   3.210  20.260  0.00  0.00    +0.000 A 
ATOM      9  C   UNL     1       0.676   2.140  19.412  0.00  0.00    +0.000 A 
ATOM     10  C   UNL     1       1.783   2.164  18.576  0.00  0.00    +0.000 A 
ATOM     11  C   UNL     1       2.636   3.280  18.561  0.00  0.00    +0.000 A 
ATOM     12  C   UNL     1       3.811   3.255  17.656  0.00  0.00    +0.000 C 
ATOM     13  O   UNL     1       4.096   2.166  17.158  0.00  0.00    +0.000 OA
ENDROOT
BRANCH   1  19
ATOM     14  C   UNL     1       5.263   3.701  12.774  0.00  0.00    +0.000 C 
ATOM     15  C   UNL     1       5.820   4.189  14.076  0.00  0.00    +0.000 A 
ATOM     16  C   UNL     1       7.111   4.684  14.157  0.00  0.00    +0.000 A 
ATOM     17  C   UNL     1       7.562   5.124  15.387  0.00  0.00    +0.000 A 
ATOM     18  C   UNL     1       6.705   5.067  16.489  0.00  0.00    +0.000 A 
ATOM     19  C   UNL     1       5.398   4.580  16.353  0.00  0.00    +0.000 A 
ATOM     20  N   UNL     1       4.991   4.116  15.150  0.00  0.00    +0.000 NA
ENDBRANCH   1  19
BRANCH   5  21
ATOM     21  N   UNL     1       1.979   7.282  20.417  0.00  0.00    +0.000 N 
ATOM     22  H   UNL     1       1.223   6.594  20.484  0.00  0.00    +0.000 HD
BRANCH  21  23
ATOM     23  C   UNL     1       1.463   8.538  20.202  0.00  0.00    +0.000 A 
ATOM     24  C   UNL     1       1.219   9.304  19.124  0.00  0.00    +0.000 A 
ATOM     25  C   UNL     1       1.675   8.994  17.735  0.00  0.00    +0.000 C 
ATOM     26  N   UNL     1       0.567  10.500  19.450  0.00  0.00    +0.000 N 
ATOM     27  C   UNL     1       0.547  11.704  18.631  0.00  0.00    +0.000 C 
ATOM     28  N   UNL     1       0.675  10.638  20.852  0.00  0.00    +0.000 N 
ATOM     29  C   UNL     1       1.153   9.432  21.375  0.00  0.00    +0.000 A 
ATOM     30  O   UNL     1       1.295   9.068  22.535  0.00  0.00    +0.000 OA
BRANCH  28  31
ATOM     31  C   UNL     1      -0.037  11.581  21.617  0.00  0.00    +0.000 A 
ATOM     32  C   UNL     1      -1.171  11.164  22.328  0.00  0.00    +0.000 A 
ATOM     33  C   UNL     1      -1.907  12.073  23.092  0.00  0.00    +0.000 A 
ATOM     34  C   UNL     1      -1.534  13.414  23.122  0.00  0.00    +0.000 A 
ATOM     35  C   UNL     1      -0.416  13.842  22.408  0.00  0.00    +0.000 A 
ATOM     36  C   UNL     1       0.339  12.926  21.669  0.00  0.00    +0.000 A 
ENDBRANCH  28  31
ENDBRANCH  21  23
ENDBRANCH   5  21
TORSDOF 4
ENDMDL
MODEL 3
REMARK VINA RESULT:      -8.8      3.595     10.356
REMARK  Name = 
REMARK  7 active torsions:
REMARK  status: ('A' for Active; 'I' for Inactive)
REMARK    1  A    between atoms: C_1  and  C_2
REMARK    2  A    between atoms: C_6  and  N_7
REMARK    3  A    between atoms: C_11  and  N_12
REMARK    4  A    between atoms: N_12  and  C_13
REMARK    5  A    between atoms: C_14  and  C_15
REMARK    6  A    between atoms: N_16  and  C_17
REMARK    7  A    between atoms: N_18  and  C_19
REMARK                            x       y       z     vdW  Elec       q    Type
REMARK                         _______ _______ _______ _____ _____    ______ ____
ROOT
ATOM      1  N   UNL     1      -2.734  12.748  20.469  0.00  0.00    +0.000 N 
ATOM      2  C   UNL     1      -1.410  12.952  20.047  0.00  0.00    +0.000 C 
ATOM      3  O   UNL     1      -0.642  13.839  20.414  0.00  0.00    +0.000 OA
ATOM      4  C   UNL     1      -0.951  11.958  19.006  0.00  0.00    +0.000 C 
ATOM      5  C   UNL     1       0.367  11.662  19.035  0.00  0.00    +0.000 C 
ATOM      6  C   UNL     1      -1.953  11.353  18.112  0.00  0.00    +0.000 A 
ATOM      7  C   UNL     1      -1.637  10.628  16.949  0.00  0.00    +0.000 A 
ATOM      8  C   UNL     1      -2.632  10.077  16.138  0.00  0.00    +0.000 A 
ATOM      9  C   UNL     1      -3.968  10.279  16.447  0.00  0.00    +0.000 A 
ATOM     10  C   UNL     1      -4.307  11.042  17.555  0.00  0.00    +0.000 A 
ATOM     11  C   UNL     1      -3.304  11.579  18.380  0.00  0.00    +0.000 A 
ATOM     12  C   UNL     1      -3.717  12.396  19.548  0.00  0.00    +0.000 C 
ATOM     13  O   UNL     1      -4.895  12.749  19.581  0.00  0.00    +0.000 OA
ENDROOT
BRANCH   1  19
ATOM     14  C   UNL     1      -4.004  16.358  23.426  0.00  0.00    +0.000 C 
ATOM     15  C   UNL     1      -3.695  14.900  23.275  0.00  0.00    +0.000 A 
ATOM     16  C   UNL     1      -3.739  14.047  24.365  0.00  0.00    +0.000 A 
ATOM     17  C   UNL     1      -3.450  12.712  24.157  0.00  0.00    +0.000 A 
ATOM     18  C   UNL     1      -3.140  12.274  22.868  0.00  0.00    +0.000 A 
ATOM     19  C   UNL     1      -3.132  13.170  21.791  0.00  0.00    +0.000 A 
ATOM     20  N   UNL     1      -3.377  14.479  22.024  0.00  0.00    +0.000 NA
ENDBRANCH   1  19
BRANCH   5  21
ATOM     21  N   UNL     1       1.058  10.649  18.386  0.00  0.00    +0.000 N 
ATOM     22  H   UNL     1       0.806  10.584  17.394  0.00  0.00    +0.000 HD
BRANCH  21  23
ATOM     23  C   UNL     1       1.365   9.405  18.882  0.00  0.00    +0.000 A 
ATOM     24  C   UNL     1       1.160   8.756  20.043  0.00  0.00    +0.000 A 
ATOM     25  C   UNL     1       0.633   9.386  21.291  0.00  0.00    +0.000 C 
ATOM     26  N   UNL     1       1.593   7.425  19.999  0.00  0.00    +0.000 N 
ATOM     27  C   UNL     1       1.916   6.601  21.156  0.00  0.00    +0.000 C 
ATOM     28  N   UNL     1       2.394   7.309  18.842  0.00  0.00    +0.000 N 
ATOM     29  C   UNL     1       2.235   8.471  18.080  0.00  0.00    +0.000 A 
ATOM     30  O   UNL     1       2.649   8.755  16.964  0.00  0.00    +0.000 OA
BRANCH  28  31
ATOM     31  C   UNL     1       2.841   6.088  18.300  0.00  0.00    +0.000 A 
ATOM     32  C   UNL     1       1.897   5.109  17.959  0.00  0.00    +0.000 A 
ATOM     33  C   UNL     1       2.302   3.883  17.427  0.00  0.00    +0.000 A 
ATOM     34  C   UNL     1       3.659   3.613  17.264  0.00  0.00    +0.000 A 
ATOM     35  C   UNL     1       4.606   4.575  17.612  0.00  0.00    +0.000 A 
ATOM     36  C   UNL     1       4.199   5.814  18.115  0.00  0.00    +0.000 A 
ENDBRANCH  28  31
ENDBRANCH  21  23
ENDBRANCH   5  21
TORSDOF 4
ENDMDL
MODEL 4
REMARK VINA RESULT:      -8.8      1.315      2.707
REMARK  Name = 
REMARK  7 active torsions:
REMARK  status: ('A' for Active; 'I' for Inactive)
REMARK    1  A    between atoms: C_1  and  C_2
REMARK    2  A    between atoms: C_6  and  N_7
REMARK    3  A    between atoms: C_11  and  N_12
REMARK    4  A    between atoms: N_12  and  C_13
REMARK    5  A    between atoms: C_14  and  C_15
REMARK    6  A    between atoms: N_16  and  C_17
REMARK    7  A    between atoms: N_18  and  C_19
REMARK                            x       y       z     vdW  Elec       q    Type
REMARK                         _______ _______ _______ _____ _____    ______ ____
ROOT
ATOM      1  N   UNL     1       4.596   5.114  16.938  0.00  0.00    +0.000 N 
ATOM      2  C   UNL     1       4.457   6.404  17.475  0.00  0.00    +0.000 C 
ATOM      3  O   UNL     1       5.258   7.333  17.394  0.00  0.00    +0.000 OA
ATOM      4  C   UNL     1       3.176   6.597  18.252  0.00  0.00    +0.000 C 
ATOM      5  C   UNL     1       2.670   7.849  18.227  0.00  0.00    +0.000 C 
ATOM      6  C   UNL     1       2.556   5.428  18.902  0.00  0.00    +0.000 A 
ATOM      7  C   UNL     1       1.528   5.509  19.857  0.00  0.00    +0.000 A 
ATOM      8  C   UNL     1       0.979   4.365  20.439  0.00  0.00    +0.000 A 
ATOM      9  C   UNL     1       1.480   3.113  20.114  0.00  0.00    +0.000 A 
ATOM     10  C   UNL     1       2.536   3.010  19.220  0.00  0.00    +0.000 A 
ATOM     11  C   UNL     1       3.074   4.162  18.621  0.00  0.00    +0.000 A 
ATOM     12  C   UNL     1       4.208   4.000  17.678  0.00  0.00    +0.000 C 
ATOM     13  O   UNL     1       4.759   2.900  17.668  0.00  0.00    +0.000 OA
ENDROOT
BRANCH   1  19
ATOM     14  C   UNL     1       4.851   3.507  12.384  0.00  0.00    +0.000 C 
ATOM     15  C   UNL     1       5.574   4.099  13.555  0.00  0.00    +0.000 A 
ATOM     16  C   UNL     1       6.929   4.378  13.489  0.00  0.00    +0.000 A 
ATOM     17  C   UNL     1       7.533   4.930  14.602  0.00  0.00    +0.000 A 
ATOM     18  C   UNL     1       6.762   5.197  15.736  0.00  0.00    +0.000 A 
ATOM     19  C   UNL     1       5.389   4.921  15.747  0.00  0.00    +0.000 A 
ATOM     20  N   UNL     1       4.826   4.342  14.663  0.00  0.00    +0.000 NA
ENDBRANCH   1  19
BRANCH   5  21
ATOM     21  N   UNL     1       1.425   8.306  18.635  0.00  0.00    +0.000 N 
ATOM     22  H   UNL     1       0.663   7.891  18.088  0.00  0.00    +0.000 HD
BRANCH  21  23
ATOM     23  C   UNL     1       1.096   9.584  19.018  0.00  0.00    +0.000 A 
ATOM     24  C   UNL     1       1.462  10.823  18.645  0.00  0.00    +0.000 A 
ATOM     25  C   UNL     1       2.595  11.137  17.723  0.00  0.00    +0.000 C 
ATOM     26  N   UNL     1       0.728  11.821  19.299  0.00  0.00    +0.000 N 
ATOM     27  C   UNL     1       1.142  13.208  19.459  0.00  0.00    +0.000 C 
ATOM     28  N   UNL     1       0.066  11.184  20.371  0.00  0.00    +0.000 N 
ATOM     29  C   UNL     1       0.197   9.802  20.209  0.00  0.00    +0.000 A 
ATOM     30  O   UNL     1      -0.302   8.875  20.833  0.00  0.00    +0.000 OA
BRANCH  28  31
ATOM     31  C   UNL     1      -0.953  11.776  21.143  0.00  0.00    +0.000 A 
ATOM     32  C   UNL     1      -0.830  11.785  22.540  0.00  0.00    +0.000 A 
ATOM     33  C   UNL     1      -1.824  12.355  23.338  0.00  0.00    +0.000 A 
ATOM     34  C   UNL     1      -2.966  12.889  22.748  0.00  0.00    +0.000 A 
ATOM     35  C   UNL     1      -3.104  12.873  21.360  0.00  0.00    +0.000 A 
ATOM     36  C   UNL     1      -2.095  12.331  20.559  0.00  0.00    +0.000 A 
ENDBRANCH  28  31
ENDBRANCH  21  23
ENDBRANCH   5  21
TORSDOF 4
ENDMDL
MODEL 5
REMARK VINA RESULT:      -8.6      3.465     10.283
REMARK  Name = 
REMARK  7 active torsions:
REMARK  status: ('A' for Active; 'I' for Inactive)
REMARK    1  A    between atoms: C_1  and  C_2
REMARK    2  A    between atoms: C_6  and  N_7
REMARK    3  A    between atoms: C_11  and  N_12
REMARK    4  A    between atoms: N_12  and  C_13
REMARK    5  A    between atoms: C_14  and  C_15
REMARK    6  A    between atoms: N_16  and  C_17
REMARK    7  A    between atoms: N_18  and  C_19
REMARK                            x       y       z     vdW  Elec       q    Type
REMARK                         _______ _______ _______ _____ _____    ______ ____
ROOT
ATOM      1  N   UNL     1      -2.403  12.914  20.525  0.00  0.00    +0.000 N 
ATOM      2  C   UNL     1      -1.117  13.065  19.982  0.00  0.00    +0.000 C 
ATOM      3  O   UNL     1      -0.311  13.962  20.221  0.00  0.00    +0.000 OA
ATOM      4  C   UNL     1      -0.759  11.993  18.980  0.00  0.00    +0.000 C 
ATOM      5  C   UNL     1       0.553  11.676  18.920  0.00  0.00    +0.000 C 
ATOM      6  C   UNL     1      -1.839  11.345  18.216  0.00  0.00    +0.000 A 
ATOM      7  C   UNL     1      -1.630  10.536  17.085  0.00  0.00    +0.000 A 
ATOM      8  C   UNL     1      -2.696   9.948  16.400  0.00  0.00    +0.000 A 
ATOM      9  C   UNL     1      -4.000  10.194  16.804  0.00  0.00    +0.000 A 
ATOM     10  C   UNL     1      -4.235  11.038  17.879  0.00  0.00    +0.000 A 
ATOM     11  C   UNL     1      -3.161  11.613  18.579  0.00  0.00    +0.000 A 
ATOM     12  C   UNL     1      -3.465  12.516  19.716  0.00  0.00    +0.000 C 
ATOM     13  O   UNL     1      -4.632  12.892  19.821  0.00  0.00    +0.000 OA
ENDROOT
BRANCH   1  19
ATOM     14  C   UNL     1      -4.483  12.267  24.844  0.00  0.00    +0.000 C 
ATOM     15  C   UNL     1      -3.730  13.186  23.931  0.00  0.00    +0.000 A 
ATOM     16  C   UNL     1      -3.392  14.468  24.332  0.00  0.00    +0.000 A 
ATOM     17  C   UNL     1      -2.692  15.263  23.444  0.00  0.00    +0.000 A 
ATOM     18  C   UNL     1      -2.343  14.746  22.195  0.00  0.00    +0.000 A 
ATOM     19  C   UNL     1      -2.685  13.434  21.843  0.00  0.00    +0.000 A 
ATOM     20  N   UNL     1      -3.406  12.688  22.709  0.00  0.00    +0.000 NA
ENDBRANCH   1  19
BRANCH   5  21
ATOM     21  N   UNL     1       1.175  10.609  18.289  0.00  0.00    +0.000 N 
ATOM     22  H   UNL     1       0.894  10.523  17.307  0.00  0.00    +0.000 HD
BRANCH  21  23
ATOM     23  C   UNL     1       1.433   9.367  18.821  0.00  0.00    +0.000 A 
ATOM     24  C   UNL     1       1.177   8.750  19.988  0.00  0.00    +0.000 A 
ATOM     25  C   UNL     1       0.634   9.421  21.207  0.00  0.00    +0.000 C 
ATOM     26  N   UNL     1       1.574   7.407  19.985  0.00  0.00    +0.000 N 
ATOM     27  C   UNL     1       1.841   6.600  21.168  0.00  0.00    +0.000 C 
ATOM     28  N   UNL     1       2.404   7.244  18.854  0.00  0.00    +0.000 N 
ATOM     29  C   UNL     1       2.299   8.392  18.064  0.00  0.00    +0.000 A 
ATOM     30  O   UNL     1       2.752   8.641  16.954  0.00  0.00    +0.000 OA
BRANCH  28  31
ATOM     31  C   UNL     1       2.831   6.000  18.351  0.00  0.00    +0.000 A 
ATOM     32  C   UNL     1       4.206   5.752  18.227  0.00  0.00    +0.000 A 
ATOM     33  C   UNL     1       4.667   4.533  17.725  0.00  0.00    +0.000 A 
ATOM     34  C   UNL     1       3.756   3.565  17.310  0.00  0.00    +0.000 A 
ATOM     35  C   UNL     1       2.387   3.807  17.417  0.00  0.00    +0.000 A 
ATOM     36  C   UNL     1       1.926   5.015  17.948  0.00  0.00    +0.000 A 
ENDBRANCH  28  31
ENDBRANCH  21  23
ENDBRANCH   5  21
TORSDOF 4
ENDMDL
MODEL 6
REMARK VINA RESULT:      -8.4      6.128     10.437
REMARK  Name = 
REMARK  7 active torsions:
REMARK  status: ('A' for Active; 'I' for Inactive)
REMARK    1  A    between atoms: C_1  and  C_2
REMARK    2  A    between atoms: C_6  and  N_7
REMARK    3  A    between atoms: C_11  and  N_12
REMARK    4  A    between atoms: N_12  and  C_13
REMARK    5  A    between atoms: C_14  and  C_15
REMARK    6  A    between atoms: N_16  and  C_17
REMARK    7  A    between atoms: N_18  and  C_19
REMARK                            x       y       z     vdW  Elec       q    Type
REMARK                         _______ _______ _______ _____ _____    ______ ____
ROOT
ATOM      1  N   UNL     1       1.135  13.323  20.127  0.00  0.00    +0.000 N 
ATOM      2  C   UNL     1       2.389  13.754  20.586  0.00  0.00    +0.000 C 
ATOM      3  O   UNL     1       3.004  13.339  21.566  0.00  0.00    +0.000 OA
ATOM      4  C   UNL     1       2.980  14.872  19.759  0.00  0.00    +0.000 C 
ATOM      5  C   UNL     1       4.330  14.890  19.696  0.00  0.00    +0.000 C 
ATOM      6  C   UNL     1       2.070  15.788  19.050  0.00  0.00    +0.000 A 
ATOM      7  C   UNL     1       2.470  17.006  18.471  0.00  0.00    +0.000 A 
ATOM      8  C   UNL     1       1.560  17.835  17.811  0.00  0.00    +0.000 A 
ATOM      9  C   UNL     1       0.219  17.487  17.756  0.00  0.00    +0.000 A 
ATOM     10  C   UNL     1      -0.212  16.321  18.372  0.00  0.00    +0.000 A 
ATOM     11  C   UNL     1       0.709  15.479  19.019  0.00  0.00    +0.000 A 
ATOM     12  C   UNL     1       0.198  14.248  19.671  0.00  0.00    +0.000 C 
ATOM     13  O   UNL     1      -1.022  14.167  19.811  0.00  0.00    +0.000 OA
ENDROOT
BRANCH   1  19
ATOM     14  C   UNL     1      -0.659  10.094  23.249  0.00  0.00    +0.000 C 
ATOM     15  C   UNL     1      -0.101  10.353  21.883  0.00  0.00    +0.000 A 
ATOM     16  C   UNL     1       0.042   9.325  20.965  0.00  0.00    +0.000 A 
ATOM     17  C   UNL     1       0.557   9.632  19.721  0.00  0.00    +0.000 A 
ATOM     18  C   UNL     1       0.897  10.955  19.430  0.00  0.00    +0.000 A 
ATOM     19  C   UNL     1       0.711  11.967  20.382  0.00  0.00    +0.000 A 
ATOM     20  N   UNL     1       0.245  11.637  21.608  0.00  0.00    +0.000 NA
ENDBRANCH   1  19
BRANCH   5  21
ATOM     21  N   UNL     1       5.164  15.623  18.864  0.00  0.00    +0.000 N 
ATOM     22  H   UNL     1       4.847  15.610  17.889  0.00  0.00    +0.000 HD
BRANCH  21  23
ATOM     23  C   UNL     1       6.536  15.692  18.918  0.00  0.00    +0.000 A 
ATOM     24  C   UNL     1       7.435  16.545  19.440  0.00  0.00    +0.000 A 
ATOM     25  C   UNL     1       7.109  17.888  20.007  0.00  0.00    +0.000 C 
ATOM     26  N   UNL     1       8.752  16.087  19.305  0.00  0.00    +0.000 N 
ATOM     27  C   UNL     1       9.947  16.919  19.357  0.00  0.00    +0.000 C 
ATOM     28  N   UNL     1       8.707  15.025  18.376  0.00  0.00    +0.000 N 
ATOM     29  C   UNL     1       7.367  14.691  18.157  0.00  0.00    +0.000 A 
ATOM     30  O   UNL     1       6.869  13.772  17.520  0.00  0.00    +0.000 OA
BRANCH  28  31
ATOM     31  C   UNL     1       9.772  14.138  18.126  0.00  0.00    +0.000 A 
ATOM     32  C   UNL     1      10.034  13.112  19.045  0.00  0.00    +0.000 A 
ATOM     33  C   UNL     1      11.087  12.219  18.835  0.00  0.00    +0.000 A 
ATOM     34  C   UNL     1      11.909  12.367  17.721  0.00  0.00    +0.000 A 
ATOM     35  C   UNL     1      11.666  13.392  16.808  0.00  0.00    +0.000 A 
ATOM     36  C   UNL     1      10.593  14.267  17.002  0.00  0.00    +0.000 A 
ENDBRANCH  28  31
ENDBRANCH  21  23
ENDBRANCH   5  21
TORSDOF 4
ENDMDL
MODEL 7
REMARK VINA RESULT:      -8.3      1.725      8.889
REMARK  Name = 
REMARK  7 active torsions:
REMARK  status: ('A' for Active; 'I' for Inactive)
REMARK    1  A    between atoms: C_1  and  C_2
REMARK    2  A    between atoms: C_6  and  N_7
REMARK    3  A    between atoms: C_11  and  N_12
REMARK    4  A    between atoms: N_12  and  C_13
REMARK    5  A    between atoms: C_14  and  C_15
REMARK    6  A    between atoms: N_16  and  C_17
REMARK    7  A    between atoms: N_18  and  C_19
REMARK                            x       y       z     vdW  Elec       q    Type
REMARK                         _______ _______ _______ _____ _____    ______ ____
ROOT
ATOM      1  N   UNL     1       1.707  12.227  19.569  0.00  0.00    +0.000 N 
ATOM      2  C   UNL     1       1.664  11.047  18.811  0.00  0.00    +0.000 C 
ATOM      3  O   UNL     1       1.833  10.936  17.599  0.00  0.00    +0.000 OA
ATOM      4  C   UNL     1       1.339   9.819  19.629  0.00  0.00    +0.000 C 
ATOM      5  C   UNL     1       1.890   8.669  19.184  0.00  0.00    +0.000 C 
ATOM      6  C   UNL     1       0.528   9.973  20.850  0.00  0.00    +0.000 A 
ATOM      7  C   UNL     1      -0.059   8.902  21.548  0.00  0.00    +0.000 A 
ATOM      8  C   UNL     1      -0.818   9.110  22.701  0.00  0.00    +0.000 A 
ATOM      9  C   UNL     1      -1.047  10.399  23.157  0.00  0.00    +0.000 A 
ATOM     10  C   UNL     1      -0.531  11.477  22.452  0.00  0.00    +0.000 A 
ATOM     11  C   UNL     1       0.250  11.264  21.302  0.00  0.00    +0.000 A 
ATOM     12  C   UNL     1       0.773  12.449  20.578  0.00  0.00    +0.000 C 
ATOM     13  O   UNL     1       0.292  13.538  20.890  0.00  0.00    +0.000 OA
ENDROOT
BRANCH   1  19
ATOM     14  C   UNL     1       5.350  15.267  20.506  0.00  0.00    +0.000 C 
ATOM     15  C   UNL     1       4.256  14.861  19.566  0.00  0.00    +0.000 A 
ATOM     16  C   UNL     1       4.038  15.552  18.386  0.00  0.00    +0.000 A 
ATOM     17  C   UNL     1       3.017  15.121  17.561  0.00  0.00    +0.000 A 
ATOM     18  C   UNL     1       2.259  14.009  17.936  0.00  0.00    +0.000 A 
ATOM     19  C   UNL     1       2.533  13.326  19.129  0.00  0.00    +0.000 A 
ATOM     20  N   UNL     1       3.509  13.790  19.941  0.00  0.00    +0.000 NA
ENDBRANCH   1  19
BRANCH   5  21
ATOM     21  N   UNL     1       1.977   7.433  19.809  0.00  0.00    +0.000 N 
ATOM     22  H   UNL     1       1.987   7.516  20.831  0.00  0.00    +0.000 HD
BRANCH  21  23
ATOM     23  C   UNL     1       2.732   6.354  19.412  0.00  0.00    +0.000 A 
ATOM     24  C   UNL     1       2.866   5.077  19.811  0.00  0.00    +0.000 A 
ATOM     25  C   UNL     1       2.274   4.505  21.058  0.00  0.00    +0.000 C 
ATOM     26  N   UNL     1       3.718   4.341  18.979  0.00  0.00    +0.000 N 
ATOM     27  C   UNL     1       4.405   3.110  19.347  0.00  0.00    +0.000 C 
ATOM     28  N   UNL     1       4.402   5.284  18.181  0.00  0.00    +0.000 N 
ATOM     29  C   UNL     1       3.789   6.529  18.352  0.00  0.00    +0.000 A 
ATOM     30  O   UNL     1       3.978   7.595  17.782  0.00  0.00    +0.000 OA
BRANCH  28  31
ATOM     31  C   UNL     1       5.184   4.959  17.055  0.00  0.00    +0.000 A 
ATOM     32  C   UNL     1       6.564   5.203  17.092  0.00  0.00    +0.000 A 
ATOM     33  C   UNL     1       7.370   4.902  15.992  0.00  0.00    +0.000 A 
ATOM     34  C   UNL     1       6.796   4.385  14.833  0.00  0.00    +0.000 A 
ATOM     35  C   UNL     1       5.423   4.150  14.782  0.00  0.00    +0.000 A 
ATOM     36  C   UNL     1       4.621   4.423  15.894  0.00  0.00    +0.000 A 
ENDBRANCH  28  31
ENDBRANCH  21  23
ENDBRANCH   5  21
TORSDOF 4
ENDMDL
MODEL 8
REMARK VINA RESULT:      -8.2      4.116     10.527
REMARK  Name = 
REMARK  7 active torsions:
REMARK  status: ('A' for Active; 'I' for Inactive)
REMARK    1  A    between atoms: C_1  and  C_2
REMARK    2  A    between atoms: C_6  and  N_7
REMARK    3  A    between atoms: C_11  and  N_12
REMARK    4  A    between atoms: N_12  and  C_13
REMARK    5  A    between atoms: C_14  and  C_15
REMARK    6  A    between atoms: N_16  and  C_17
REMARK    7  A    between atoms: N_18  and  C_19
REMARK                            x       y       z     vdW  Elec       q    Type
REMARK                         _______ _______ _______ _____ _____    ______ ____
ROOT
ATOM      1  N   UNL     1      -3.709  12.476  20.420  0.00  0.00    +0.000 N 
ATOM      2  C   UNL     1      -2.355  12.811  20.263  0.00  0.00    +0.000 C 
ATOM      3  O   UNL     1      -1.718  13.650  20.898  0.00  0.00    +0.000 OA
ATOM      4  C   UNL     1      -1.670  12.044  19.156  0.00  0.00    +0.000 C 
ATOM      5  C   UNL     1      -0.355  11.806  19.349  0.00  0.00    +0.000 C 
ATOM      6  C   UNL     1      -2.477  11.567  18.019  0.00  0.00    +0.000 A 
ATOM      7  C   UNL     1      -1.934  11.080  16.816  0.00  0.00    +0.000 A 
ATOM      8  C   UNL     1      -2.750  10.643  15.771  0.00  0.00    +0.000 A 
ATOM      9  C   UNL     1      -4.130  10.726  15.887  0.00  0.00    +0.000 A 
ATOM     10  C   UNL     1      -4.689  11.260  17.038  0.00  0.00    +0.000 A 
ATOM     11  C   UNL     1      -3.866  11.682  18.097  0.00  0.00    +0.000 A 
ATOM     12  C   UNL     1      -4.511  12.254  19.304  0.00  0.00    +0.000 C 
ATOM     13  O   UNL     1      -5.703  12.543  19.204  0.00  0.00    +0.000 OA
ENDROOT
BRANCH   1  19
ATOM     14  C   UNL     1      -7.762  12.428  23.059  0.00  0.00    +0.000 C 
ATOM     15  C   UNL     1      -6.285  12.679  23.019  0.00  0.00    +0.000 A 
ATOM     16  C   UNL     1      -5.603  13.092  24.151  0.00  0.00    +0.000 A 
ATOM     17  C   UNL     1      -4.241  13.300  24.048  0.00  0.00    +0.000 A 
ATOM     18  C   UNL     1      -3.606  13.075  22.824  0.00  0.00    +0.000 A 
ATOM     19  C   UNL     1      -4.335  12.633  21.712  0.00  0.00    +0.000 A 
ATOM     20  N   UNL     1      -5.673  12.477  21.823  0.00  0.00    +0.000 NA
ENDBRANCH   1  19
BRANCH   5  21
ATOM     21  N   UNL     1       0.499  10.958  18.657  0.00  0.00    +0.000 N 
ATOM     22  H   UNL     1       0.288  10.932  17.654  0.00  0.00    +0.000 HD
BRANCH  21  23
ATOM     23  C   UNL     1       0.976   9.739  19.076  0.00  0.00    +0.000 A 
ATOM     24  C   UNL     1       0.900   9.015  20.206  0.00  0.00    +0.000 A 
ATOM     25  C   UNL     1       0.351   9.512  21.504  0.00  0.00    +0.000 C 
ATOM     26  N   UNL     1       1.491   7.752  20.077  0.00  0.00    +0.000 N 
ATOM     27  C   UNL     1       1.960   6.919  21.177  0.00  0.00    +0.000 C 
ATOM     28  N   UNL     1       2.253   7.793  18.889  0.00  0.00    +0.000 N 
ATOM     29  C   UNL     1       1.921   8.961  18.196  0.00  0.00    +0.000 A 
ATOM     30  O   UNL     1       2.252   9.349  17.083  0.00  0.00    +0.000 OA
BRANCH  28  31
ATOM     31  C   UNL     1       2.824   6.665  18.268  0.00  0.00    +0.000 A 
ATOM     32  C   UNL     1       2.061   5.495  18.149  0.00  0.00    +0.000 A 
ATOM     33  C   UNL     1       2.597   4.354  17.547  0.00  0.00    +0.000 A 
ATOM     34  C   UNL     1       3.912   4.364  17.089  0.00  0.00    +0.000 A 
ATOM     35  C   UNL     1       4.683   5.519  17.215  0.00  0.00    +0.000 A 
ATOM     36  C   UNL     1       4.137   6.670  17.789  0.00  0.00    +0.000 A 
ENDBRANCH  28  31
ENDBRANCH  21  23
ENDBRANCH   5  21
TORSDOF 4
ENDMDL
MODEL 9
REMARK VINA RESULT:      -8.2      0.764      1.107
REMARK  Name = 
REMARK  7 active torsions:
REMARK  status: ('A' for Active; 'I' for Inactive)
REMARK    1  A    between atoms: C_1  and  C_2
REMARK    2  A    between atoms: C_6  and  N_7
REMARK    3  A    between atoms: C_11  and  N_12
REMARK    4  A    between atoms: N_12  and  C_13
REMARK    5  A    between atoms: C_14  and  C_15
REMARK    6  A    between atoms: N_16  and  C_17
REMARK    7  A    between atoms: N_18  and  C_19
REMARK                            x       y       z     vdW  Elec       q    Type
REMARK                         _______ _______ _______ _____ _____    ______ ____
ROOT
ATOM      1  N   UNL     1       4.686   4.905  16.466  0.00  0.00    +0.000 N 
ATOM      2  C   UNL     1       4.561   6.168  17.064  0.00  0.00    +0.000 C 
ATOM      3  O   UNL     1       5.374   7.090  17.033  0.00  0.00    +0.000 OA
ATOM      4  C   UNL     1       3.278   6.340  17.843  0.00  0.00    +0.000 C 
ATOM      5  C   UNL     1       2.788   7.598  17.876  0.00  0.00    +0.000 C 
ATOM      6  C   UNL     1       2.640   5.149  18.431  0.00  0.00    +0.000 A 
ATOM      7  C   UNL     1       1.606   5.196  19.384  0.00  0.00    +0.000 A 
ATOM      8  C   UNL     1       1.040   4.032  19.907  0.00  0.00    +0.000 A 
ATOM      9  C   UNL     1       1.527   2.792  19.523  0.00  0.00    +0.000 A 
ATOM     10  C   UNL     1       2.587   2.718  18.631  0.00  0.00    +0.000 A 
ATOM     11  C   UNL     1       3.143   3.891  18.091  0.00  0.00    +0.000 A 
ATOM     12  C   UNL     1       4.280   3.761  17.148  0.00  0.00    +0.000 C 
ATOM     13  O   UNL     1       4.817   2.656  17.087  0.00  0.00    +0.000 OA
ENDROOT
BRANCH   1  19
ATOM     14  C   UNL     1       5.095   3.132  11.984  0.00  0.00    +0.000 C 
ATOM     15  C   UNL     1       5.748   3.867  13.115  0.00  0.00    +0.000 A 
ATOM     16  C   UNL     1       7.055   4.315  13.013  0.00  0.00    +0.000 A 
ATOM     17  C   UNL     1       7.595   4.992  14.089  0.00  0.00    +0.000 A 
ATOM     18  C   UNL     1       6.810   5.210  15.223  0.00  0.00    +0.000 A 
ATOM     19  C   UNL     1       5.483   4.760  15.271  0.00  0.00    +0.000 A 
ATOM     20  N   UNL     1       4.988   4.063  14.223  0.00  0.00    +0.000 NA
ENDBRANCH   1  19
BRANCH   5  21
ATOM     21  N   UNL     1       1.546   8.051  18.300  0.00  0.00    +0.000 N 
ATOM     22  H   UNL     1       0.890   8.166  17.520  0.00  0.00    +0.000 HD
BRANCH  21  23
ATOM     23  C   UNL     1       1.293   8.983  19.278  0.00  0.00    +0.000 A 
ATOM     24  C   UNL     1       1.049   8.946  20.599  0.00  0.00    +0.000 A 
ATOM     25  C   UNL     1       0.787   7.702  21.385  0.00  0.00    +0.000 C 
ATOM     26  N   UNL     1       0.960  10.224  21.166  0.00  0.00    +0.000 N 
ATOM     27  C   UNL     1       0.298  10.549  22.422  0.00  0.00    +0.000 C 
ATOM     28  N   UNL     1       0.840  11.126  20.086  0.00  0.00    +0.000 N 
ATOM     29  C   UNL     1       1.109  10.432  18.903  0.00  0.00    +0.000 A 
ATOM     30  O   UNL     1       1.224  10.832  17.752  0.00  0.00    +0.000 OA
BRANCH  28  31
ATOM     31  C   UNL     1       0.953  12.525  20.200  0.00  0.00    +0.000 A 
ATOM     32  C   UNL     1       2.213  13.089  20.445  0.00  0.00    +0.000 A 
ATOM     33  C   UNL     1       2.363  14.472  20.572  0.00  0.00    +0.000 A 
ATOM     34  C   UNL     1       1.246  15.300  20.490  0.00  0.00    +0.000 A 
ATOM     35  C   UNL     1      -0.013  14.748  20.260  0.00  0.00    +0.000 A 
ATOM     36  C   UNL     1      -0.158  13.367  20.101  0.00  0.00    +0.000 A 
ENDBRANCH  28  31
ENDBRANCH  21  23
ENDBRANCH   5  21
TORSDOF 4
ENDMDL
