MODEL 1
REMARK VINA RESULT:      -7.5      0.000      0.000
REMARK  Name = 
REMARK  5 active torsions:
REMARK  status: ('A' for Active; 'I' for Inactive)
REMARK    1  A    between atoms: C_2  and  C_3
REMARK    2  A    between atoms: N_15  and  C_16
REMARK    3  A    between atoms: C_16  and  C_17
REMARK    4  A    between atoms: C_22  and  O_23
REMARK    5  A    between atoms: O_23  and  C_24
REMARK                            x       y       z     vdW  Elec       q    Type
REMARK                         _______ _______ _______ _____ _____    ______ ____
ROOT
ATOM      1  O   UNL     1      -0.540  14.189  21.850  0.00  0.00    +0.000 OA
ATOM      2  C   UNL     1      -1.272  13.254  21.527  0.00  0.00    +0.000 C 
ATOM      3  N   UNL     1      -0.738  12.052  21.006  0.00  0.00    +0.000 N 
ATOM      4  C   UNL     1       0.647  12.070  20.541  0.00  0.00    +0.000 C 
ATOM      5  C   UNL     1       1.395  10.755  20.821  0.00  0.00    +0.000 C 
ATOM      6  C   UNL     1       0.726   9.474  20.244  0.00  0.00    +0.000 C 
ATOM      7  C   UNL     1       0.774   9.343  18.700  0.00  0.00    +0.000 C 
ATOM      8  C   UNL     1       2.141   8.906  18.115  0.00  0.00    +0.000 C 
ATOM      9  N   UNL     1       2.649   7.609  18.599  0.00  0.00    +0.000 NA
ATOM     10  C   UNL     1       2.632   7.576  20.054  0.00  0.00    +0.000 C 
ATOM     11  C   UNL     1       1.430   8.195  20.826  0.00  0.00    +0.000 C 
ATOM     12  C   UNL     1      -0.755   9.547  20.769  0.00  0.00    +0.000 C 
ATOM     13  C   UNL     1      -1.517  10.887  20.592  0.00  0.00    +0.000 C 
ENDROOT
BRANCH   2  14
ATOM     14  C   UNL     1      -2.745  13.494  21.742  0.00  0.00    +0.000 A 
ATOM     15  C   UNL     1      -3.499  14.012  20.694  0.00  0.00    +0.000 A 
ATOM     16  C   UNL     1      -4.847  14.138  20.906  0.00  0.00    +0.000 A 
ATOM     17  N   UNL     1      -5.445  13.764  22.050  0.00  0.00    +0.000 NA
ATOM     18  C   UNL     1      -4.635  13.248  22.991  0.00  0.00    +0.000 A 
ATOM     19  N   UNL     1      -3.304  13.101  22.918  0.00  0.00    +0.000 NA
ENDBRANCH   2  14
BRANCH   9  20
ATOM     20  C   UNL     1       2.172   6.482  17.767  0.00  0.00    +0.000 C 
BRANCH  20  21
ATOM     21  C   UNL     1       2.519   5.004  18.032  0.00  0.00    +0.000 A 
ATOM     22  C   UNL     1       1.491   4.253  18.650  0.00  0.00    +0.000 A 
ATOM     23  C   UNL     1       1.416   2.867  18.512  0.00  0.00    +0.000 A 
ATOM     24  C   UNL     1       2.347   2.208  17.726  0.00  0.00    +0.000 A 
ATOM     25  C   UNL     1       3.415   2.922  17.163  0.00  0.00    +0.000 A 
ATOM     26  C   UNL     1       3.577   4.296  17.378  0.00  0.00    +0.000 A 
BRANCH  26  27
ATOM     27  O   UNL     1       4.622   5.010  16.821  0.00  0.00    +0.000 OA
BRANCH  27  28
ATOM     28  C   UNL     1       5.729   5.514  17.504  0.00  0.00    +0.000 A 
ATOM     29  C   UNL     1       6.438   5.000  18.596  0.00  0.00    +0.000 A 
ATOM     30  C   UNL     1       7.586   5.654  19.098  0.00  0.00    +0.000 A 
ATOM     31  C   UNL     1       8.019   6.856  18.549  0.00  0.00    +0.000 A 
ATOM     32  C   UNL     1       7.309   7.403  17.488  0.00  0.00    +0.000 A 
ATOM     33  C   UNL     1       6.189   6.733  16.971  0.00  0.00    +0.000 A 
ENDBRANCH  27  28
ENDBRANCH  26  27
ENDBRANCH  20  21
ENDBRANCH   9  20
TORSDOF 5
ENDMDL
MODEL 2
REMARK VINA RESULT:      -7.2      2.250      4.372
REMARK  Name = 
REMARK  5 active torsions:
REMARK  status: ('A' for Active; 'I' for Inactive)
REMARK    1  A    between atoms: C_2  and  C_3
REMARK    2  A    between atoms: N_15  and  C_16
REMARK    3  A    between atoms: C_16  and  C_17
REMARK    4  A    between atoms: C_22  and  O_23
REMARK    5  A    between atoms: O_23  and  C_24
REMARK                            x       y       z     vdW  Elec       q    Type
REMARK                         _______ _______ _______ _____ _____    ______ ____
ROOT
ATOM      1  O   UNL     1      -2.401  13.338  19.984  0.00  0.00    +0.000 OA
ATOM      2  C   UNL     1      -1.179  13.476  19.949  0.00  0.00    +0.000 C 
ATOM      3  N   UNL     1      -0.323  12.372  19.728  0.00  0.00    +0.000 N 
ATOM      4  C   UNL     1      -0.887  11.033  19.885  0.00  0.00    +0.000 C 
ATOM      5  C   UNL     1      -0.317  10.016  18.883  0.00  0.00    +0.000 C 
ATOM      6  C   UNL     1       1.233   9.873  18.889  0.00  0.00    +0.000 C 
ATOM      7  C   UNL     1       1.827   9.187  20.147  0.00  0.00    +0.000 C 
ATOM      8  C   UNL     1       1.673   7.646  20.195  0.00  0.00    +0.000 C 
ATOM      9  N   UNL     1       2.284   6.915  19.068  0.00  0.00    +0.000 NA
ATOM     10  C   UNL     1       1.834   7.480  17.804  0.00  0.00    +0.000 C 
ATOM     11  C   UNL     1       1.698   9.023  17.652  0.00  0.00    +0.000 C 
ATOM     12  C   UNL     1       1.754  11.350  18.741  0.00  0.00    +0.000 C 
ATOM     13  C   UNL     1       1.136  12.429  19.669  0.00  0.00    +0.000 C 
ENDROOT
BRANCH   2  14
ATOM     14  C   UNL     1      -0.692  14.891  20.145  0.00  0.00    +0.000 A 
ATOM     15  C   UNL     1      -0.425  15.333  21.437  0.00  0.00    +0.000 A 
ATOM     16  C   UNL     1       0.092  16.597  21.562  0.00  0.00    +0.000 A 
ATOM     17  N   UNL     1       0.364  17.382  20.507  0.00  0.00    +0.000 NA
ATOM     18  C   UNL     1       0.098  16.853  19.300  0.00  0.00    +0.000 A 
ATOM     19  N   UNL     1      -0.435  15.648  19.046  0.00  0.00    +0.000 NA
ENDBRANCH   2  14
BRANCH   9  20
ATOM     20  C   UNL     1       3.699   6.571  19.333  0.00  0.00    +0.000 C 
BRANCH  20  21
ATOM     21  C   UNL     1       4.628   5.887  18.312  0.00  0.00    +0.000 A 
ATOM     22  C   UNL     1       5.137   6.742  17.305  0.00  0.00    +0.000 A 
ATOM     23  C   UNL     1       6.327   6.454  16.636  0.00  0.00    +0.000 A 
ATOM     24  C   UNL     1       7.049   5.324  16.983  0.00  0.00    +0.000 A 
ATOM     25  C   UNL     1       6.527   4.426  17.926  0.00  0.00    +0.000 A 
ATOM     26  C   UNL     1       5.282   4.633  18.532  0.00  0.00    +0.000 A 
BRANCH  26  27
ATOM     27  O   UNL     1       4.764   3.759  19.467  0.00  0.00    +0.000 OA
BRANCH  27  28
ATOM     28  C   UNL     1       3.426   3.382  19.589  0.00  0.00    +0.000 A 
ATOM     29  C   UNL     1       2.533   3.521  20.659  0.00  0.00    +0.000 A 
ATOM     30  C   UNL     1       1.183   3.121  20.544  0.00  0.00    +0.000 A 
ATOM     31  C   UNL     1       0.711   2.533  19.377  0.00  0.00    +0.000 A 
ATOM     32  C   UNL     1       1.589   2.352  18.314  0.00  0.00    +0.000 A 
ATOM     33  C   UNL     1       2.920   2.781  18.421  0.00  0.00    +0.000 A 
ENDBRANCH  27  28
ENDBRANCH  26  27
ENDBRANCH  20  21
ENDBRANCH   9  20
TORSDOF 5
ENDMDL
MODEL 3
REMARK VINA RESULT:      -7.2      2.637      3.568
REMARK  Name = 
REMARK  5 active torsions:
REMARK  status: ('A' for Active; 'I' for Inactive)
REMARK    1  A    between atoms: C_2  and  C_3
REMARK    2  A    between atoms: N_15  and  C_16
REMARK    3  A    between atoms: C_16  and  C_17
REMARK    4  A    between atoms: C_22  and  O_23
REMARK    5  A    between atoms: O_23  and  C_24
REMARK                            x       y       z     vdW  Elec       q    Type
REMARK                         _______ _______ _______ _____ _____    ______ ____
ROOT
ATOM      1  O   UNL     1      -2.247  15.402  22.059  0.00  0.00    +0.000 OA
ATOM      2  C   UNL     1      -1.032  15.232  22.143  0.00  0.00    +0.000 C 
ATOM      3  N   UNL     1      -0.416  14.067  21.629  0.00  0.00    +0.000 N 
ATOM      4  C   UNL     1      -1.277  12.929  21.311  0.00  0.00    +0.000 C 
ATOM      5  C   UNL     1      -0.812  12.150  20.070  0.00  0.00    +0.000 C 
ATOM      6  C   UNL     1       0.652  11.626  20.123  0.00  0.00    +0.000 C 
ATOM      7  C   UNL     1       0.904  10.469  21.124  0.00  0.00    +0.000 C 
ATOM      8  C   UNL     1       0.411   9.075  20.662  0.00  0.00    +0.000 C 
ATOM      9  N   UNL     1       0.994   8.586  19.398  0.00  0.00    +0.000 NA
ATOM     10  C   UNL     1       0.856   9.596  18.360  0.00  0.00    +0.000 C 
ATOM     11  C   UNL     1       1.083  11.097  18.707  0.00  0.00    +0.000 C 
ATOM     12  C   UNL     1       1.500  12.899  20.491  0.00  0.00    +0.000 C 
ATOM     13  C   UNL     1       1.013  13.770  21.680  0.00  0.00    +0.000 C 
ENDROOT
BRANCH   2  14
ATOM     14  C   UNL     1      -0.277  16.353  22.815  0.00  0.00    +0.000 A 
ATOM     15  C   UNL     1       0.042  17.485  22.071  0.00  0.00    +0.000 A 
ATOM     16  C   UNL     1       0.656  18.511  22.742  0.00  0.00    +0.000 A 
ATOM     17  N   UNL     1       0.923  18.467  24.058  0.00  0.00    +0.000 NA
ATOM     18  C   UNL     1       0.549  17.342  24.693  0.00  0.00    +0.000 A 
ATOM     19  N   UNL     1      -0.027  16.261  24.148  0.00  0.00    +0.000 NA
ENDBRANCH   2  14
BRANCH   9  20
ATOM     20  C   UNL     1       2.249   7.834  19.621  0.00  0.00    +0.000 C 
BRANCH  20  21
ATOM     21  C   UNL     1       2.343   6.296  19.649  0.00  0.00    +0.000 A 
ATOM     22  C   UNL     1       1.689   5.680  20.743  0.00  0.00    +0.000 A 
ATOM     23  C   UNL     1       1.243   4.360  20.676  0.00  0.00    +0.000 A 
ATOM     24  C   UNL     1       1.411   3.641  19.504  0.00  0.00    +0.000 A 
ATOM     25  C   UNL     1       2.121   4.207  18.435  0.00  0.00    +0.000 A 
ATOM     26  C   UNL     1       2.676   5.489  18.515  0.00  0.00    +0.000 A 
BRANCH  26  27
ATOM     27  O   UNL     1       3.369   6.058  17.464  0.00  0.00    +0.000 OA
BRANCH  27  28
ATOM     28  C   UNL     1       4.673   5.748  17.075  0.00  0.00    +0.000 A 
ATOM     29  C   UNL     1       5.902   6.241  17.529  0.00  0.00    +0.000 A 
ATOM     30  C   UNL     1       7.124   5.734  17.032  0.00  0.00    +0.000 A 
ATOM     31  C   UNL     1       7.142   4.760  16.041  0.00  0.00    +0.000 A 
ATOM     32  C   UNL     1       5.933   4.283  15.549  0.00  0.00    +0.000 A 
ATOM     33  C   UNL     1       4.722   4.764  16.069  0.00  0.00    +0.000 A 
ENDBRANCH  27  28
ENDBRANCH  26  27
ENDBRANCH  20  21
ENDBRANCH   9  20
TORSDOF 5
ENDMDL
MODEL 4
REMARK VINA RESULT:      -7.1      1.929      4.095
REMARK  Name = 
REMARK  5 active torsions:
REMARK  status: ('A' for Active; 'I' for Inactive)
REMARK    1  A    between atoms: C_2  and  C_3
REMARK    2  A    between atoms: N_15  and  C_16
REMARK    3  A    between atoms: C_16  and  C_17
REMARK    4  A    between atoms: C_22  and  O_23
REMARK    5  A    between atoms: O_23  and  C_24
REMARK                            x       y       z     vdW  Elec       q    Type
REMARK                         _______ _______ _______ _____ _____    ______ ____
ROOT
ATOM      1  O   UNL     1      -2.719  12.931  21.052  0.00  0.00    +0.000 OA
ATOM      2  C   UNL     1      -1.512  13.170  21.048  0.00  0.00    +0.000 C 
ATOM      3  N   UNL     1      -0.578  12.225  20.562  0.00  0.00    +0.000 N 
ATOM      4  C   UNL     1      -1.033  10.848  20.389  0.00  0.00    +0.000 C 
ATOM      5  C   UNL     1      -0.409  10.155  19.167  0.00  0.00    +0.000 C 
ATOM      6  C   UNL     1       1.147  10.138  19.135  0.00  0.00    +0.000 C 
ATOM      7  C   UNL     1       1.819   9.216  20.186  0.00  0.00    +0.000 C 
ATOM      8  C   UNL     1       1.786   7.702  19.855  0.00  0.00    +0.000 C 
ATOM      9  N   UNL     1       2.426   7.320  18.583  0.00  0.00    +0.000 NA
ATOM     10  C   UNL     1       1.907   8.137  17.496  0.00  0.00    +0.000 C 
ATOM     11  C   UNL     1       1.649   9.655  17.726  0.00  0.00    +0.000 C 
ATOM     12  C   UNL     1       1.550  11.644  19.352  0.00  0.00    +0.000 C 
ATOM     13  C   UNL     1       0.870  12.411  20.517  0.00  0.00    +0.000 C 
ENDROOT
BRANCH   2  14
ATOM     14  C   UNL     1      -1.131  14.528  21.584  0.00  0.00    +0.000 A 
ATOM     15  C   UNL     1      -0.974  14.686  22.957  0.00  0.00    +0.000 A 
ATOM     16  C   UNL     1      -0.549  15.915  23.392  0.00  0.00    +0.000 A 
ATOM     17  N   UNL     1      -0.264  16.927  22.557  0.00  0.00    +0.000 NA
ATOM     18  C   UNL     1      -0.419  16.666  21.247  0.00  0.00    +0.000 A 
ATOM     19  N   UNL     1      -0.855  15.522  20.698  0.00  0.00    +0.000 NA
ENDBRANCH   2  14
BRANCH   9  20
ATOM     20  C   UNL     1       3.868   7.035  18.752  0.00  0.00    +0.000 C 
BRANCH  20  21
ATOM     21  C   UNL     1       4.731   6.290  17.715  0.00  0.00    +0.000 A 
ATOM     22  C   UNL     1       6.010   6.854  17.490  0.00  0.00    +0.000 A 
ATOM     23  C   UNL     1       7.070   6.086  17.009  0.00  0.00    +0.000 A 
ATOM     24  C   UNL     1       6.884   4.733  16.775  0.00  0.00    +0.000 A 
ATOM     25  C   UNL     1       5.608   4.170  16.922  0.00  0.00    +0.000 A 
ATOM     26  C   UNL     1       4.500   4.941  17.297  0.00  0.00    +0.000 A 
BRANCH  26  27
ATOM     27  O   UNL     1       3.241   4.393  17.452  0.00  0.00    +0.000 OA
BRANCH  27  28
ATOM     28  C   UNL     1       2.723   3.843  18.625  0.00  0.00    +0.000 A 
ATOM     29  C   UNL     1       3.319   3.633  19.875  0.00  0.00    +0.000 A 
ATOM     30  C   UNL     1       2.580   3.110  20.960  0.00  0.00    +0.000 A 
ATOM     31  C   UNL     1       1.249   2.744  20.806  0.00  0.00    +0.000 A 
ATOM     32  C   UNL     1       0.647   2.909  19.564  0.00  0.00    +0.000 A 
ATOM     33  C   UNL     1       1.374   3.460  18.498  0.00  0.00    +0.000 A 
ENDBRANCH  27  28
ENDBRANCH  26  27
ENDBRANCH  20  21
ENDBRANCH   9  20
TORSDOF 5
ENDMDL
MODEL 5
REMARK VINA RESULT:      -7.1      2.308      4.391
REMARK  Name = 
REMARK  5 active torsions:
REMARK  status: ('A' for Active; 'I' for Inactive)
REMARK    1  A    between atoms: C_2  and  C_3
REMARK    2  A    between atoms: N_15  and  C_16
REMARK    3  A    between atoms: C_16  and  C_17
REMARK    4  A    between atoms: C_22  and  O_23
REMARK    5  A    between atoms: O_23  and  C_24
REMARK                            x       y       z     vdW  Elec       q    Type
REMARK                         _______ _______ _______ _____ _____    ______ ____
ROOT
ATOM      1  O   UNL     1      -1.954  13.601  20.438  0.00  0.00    +0.000 OA
ATOM      2  C   UNL     1      -0.745  13.663  20.213  0.00  0.00    +0.000 C 
ATOM      3  N   UNL     1      -0.003  12.508  19.874  0.00  0.00    +0.000 N 
ATOM      4  C   UNL     1      -0.617  11.206  20.129  0.00  0.00    +0.000 C 
ATOM      5  C   UNL     1      -0.272  10.156  19.061  0.00  0.00    +0.000 C 
ATOM      6  C   UNL     1       1.248   9.916  18.830  0.00  0.00    +0.000 C 
ATOM      7  C   UNL     1       1.986   9.195  19.988  0.00  0.00    +0.000 C 
ATOM      8  C   UNL     1       1.747   7.666  20.074  0.00  0.00    +0.000 C 
ATOM      9  N   UNL     1       2.130   6.899  18.874  0.00  0.00    +0.000 NA
ATOM     10  C   UNL     1       1.527   7.490  17.689  0.00  0.00    +0.000 C 
ATOM     11  C   UNL     1       1.463   9.038  17.544  0.00  0.00    +0.000 C 
ATOM     12  C   UNL     1       1.830  11.358  18.589  0.00  0.00    +0.000 C 
ATOM     13  C   UNL     1       1.430  12.473  19.591  0.00  0.00    +0.000 C 
ENDROOT
BRANCH   2  14
ATOM     14  C   UNL     1      -0.148  15.044  20.318  0.00  0.00    +0.000 A 
ATOM     15  C   UNL     1       0.409  15.442  21.530  0.00  0.00    +0.000 A 
ATOM     16  C   UNL     1       1.012  16.673  21.557  0.00  0.00    +0.000 A 
ATOM     17  N   UNL     1       1.101  17.467  20.477  0.00  0.00    +0.000 NA
ATOM     18  C   UNL     1       0.559  16.980  19.348  0.00  0.00    +0.000 A 
ATOM     19  N   UNL     1      -0.083  15.812  19.198  0.00  0.00    +0.000 NA
ENDBRANCH   2  14
BRANCH   9  20
ATOM     20  C   UNL     1       3.545   6.467  18.921  0.00  0.00    +0.000 C 
BRANCH  20  21
ATOM     21  C   UNL     1       4.321   5.911  17.711  0.00  0.00    +0.000 A 
ATOM     22  C   UNL     1       5.457   6.666  17.335  0.00  0.00    +0.000 A 
ATOM     23  C   UNL     1       6.520   6.088  16.641  0.00  0.00    +0.000 A 
ATOM     24  C   UNL     1       6.483   4.737  16.338  0.00  0.00    +0.000 A 
ATOM     25  C   UNL     1       5.336   3.986  16.636  0.00  0.00    +0.000 A 
ATOM     26  C   UNL     1       4.210   4.567  17.232  0.00  0.00    +0.000 A 
BRANCH  26  27
ATOM     27  O   UNL     1       3.079   3.834  17.537  0.00  0.00    +0.000 OA
BRANCH  27  28
ATOM     28  C   UNL     1       2.676   3.436  18.813  0.00  0.00    +0.000 A 
ATOM     29  C   UNL     1       3.423   2.964  19.899  0.00  0.00    +0.000 A 
ATOM     30  C   UNL     1       2.810   2.673  21.138  0.00  0.00    +0.000 A 
ATOM     31  C   UNL     1       1.436   2.804  21.303  0.00  0.00    +0.000 A 
ATOM     32  C   UNL     1       0.670   3.236  20.227  0.00  0.00    +0.000 A 
ATOM     33  C   UNL     1       1.287   3.556  19.007  0.00  0.00    +0.000 A 
ENDBRANCH  27  28
ENDBRANCH  26  27
ENDBRANCH  20  21
ENDBRANCH   9  20
TORSDOF 5
ENDMDL
MODEL 6
REMARK VINA RESULT:      -7.1      2.026      3.989
REMARK  Name = 
REMARK  5 active torsions:
REMARK  status: ('A' for Active; 'I' for Inactive)
REMARK    1  A    between atoms: C_2  and  C_3
REMARK    2  A    between atoms: N_15  and  C_16
REMARK    3  A    between atoms: C_16  and  C_17
REMARK    4  A    between atoms: C_22  and  O_23
REMARK    5  A    between atoms: O_23  and  C_24
REMARK                            x       y       z     vdW  Elec       q    Type
REMARK                         _______ _______ _______ _____ _____    ______ ____
ROOT
ATOM      1  O   UNL     1      -2.509  12.418  22.776  0.00  0.00    +0.000 OA
ATOM      2  C   UNL     1      -1.479  12.867  22.275  0.00  0.00    +0.000 C 
ATOM      3  N   UNL     1      -0.657  12.067  21.447  0.00  0.00    +0.000 N 
ATOM      4  C   UNL     1      -0.865  10.621  21.478  0.00  0.00    +0.000 C 
ATOM      5  C   UNL     1      -0.666   9.954  20.107  0.00  0.00    +0.000 C 
ATOM      6  C   UNL     1       0.715  10.212  19.436  0.00  0.00    +0.000 C 
ATOM      7  C   UNL     1       1.920   9.512  20.116  0.00  0.00    +0.000 C 
ATOM      8  C   UNL     1       2.052   7.995  19.829  0.00  0.00    +0.000 C 
ATOM      9  N   UNL     1       2.184   7.631  18.406  0.00  0.00    +0.000 NA
ATOM     10  C   UNL     1       1.122   8.253  17.630  0.00  0.00    +0.000 C 
ATOM     11  C   UNL     1       0.687   9.713  17.946  0.00  0.00    +0.000 C 
ATOM     12  C   UNL     1       0.867  11.778  19.467  0.00  0.00    +0.000 C 
ATOM     13  C   UNL     1       0.582  12.503  20.808  0.00  0.00    +0.000 C 
ENDROOT
BRANCH   2  14
ATOM     14  C   UNL     1      -1.188  14.310  22.605  0.00  0.00    +0.000 A 
ATOM     15  C   UNL     1      -1.659  15.301  21.750  0.00  0.00    +0.000 A 
ATOM     16  C   UNL     1      -1.441  16.600  22.131  0.00  0.00    +0.000 A 
ATOM     17  N   UNL     1      -0.830  16.931  23.280  0.00  0.00    +0.000 NA
ATOM     18  C   UNL     1      -0.438  15.902  24.051  0.00  0.00    +0.000 A 
ATOM     19  N   UNL     1      -0.563  14.595  23.779  0.00  0.00    +0.000 NA
ENDBRANCH   2  14
BRANCH   9  20
ATOM     20  C   UNL     1       3.597   7.622  17.965  0.00  0.00    +0.000 C 
BRANCH  20  21
ATOM     21  C   UNL     1       4.336   6.371  17.453  0.00  0.00    +0.000 A 
ATOM     22  C   UNL     1       4.978   6.529  16.202  0.00  0.00    +0.000 A 
ATOM     23  C   UNL     1       6.063   5.734  15.833  0.00  0.00    +0.000 A 
ATOM     24  C   UNL     1       6.550   4.788  16.720  0.00  0.00    +0.000 A 
ATOM     25  C   UNL     1       5.885   4.565  17.935  0.00  0.00    +0.000 A 
ATOM     26  C   UNL     1       4.727   5.271  18.282  0.00  0.00    +0.000 A 
BRANCH  26  27
ATOM     27  O   UNL     1       4.070   5.064  19.480  0.00  0.00    +0.000 OA
BRANCH  27  28
ATOM     28  C   UNL     1       2.889   4.342  19.656  0.00  0.00    +0.000 A 
ATOM     29  C   UNL     1       2.039   4.240  20.764  0.00  0.00    +0.000 A 
ATOM     30  C   UNL     1       0.843   3.490  20.703  0.00  0.00    +0.000 A 
ATOM     31  C   UNL     1       0.496   2.792  19.552  0.00  0.00    +0.000 A 
ATOM     32  C   UNL     1       1.343   2.850  18.452  0.00  0.00    +0.000 A 
ATOM     33  C   UNL     1       2.514   3.623  18.505  0.00  0.00    +0.000 A 
ENDBRANCH  27  28
ENDBRANCH  26  27
ENDBRANCH  20  21
ENDBRANCH   9  20
TORSDOF 5
ENDMDL
MODEL 7
REMARK VINA RESULT:      -7.1      6.572      9.030
REMARK  Name = 
REMARK  5 active torsions:
REMARK  status: ('A' for Active; 'I' for Inactive)
REMARK    1  A    between atoms: C_2  and  C_3
REMARK    2  A    between atoms: N_15  and  C_16
REMARK    3  A    between atoms: C_16  and  C_17
REMARK    4  A    between atoms: C_22  and  O_23
REMARK    5  A    between atoms: O_23  and  C_24
REMARK                            x       y       z     vdW  Elec       q    Type
REMARK                         _______ _______ _______ _____ _____    ______ ____
ROOT
ATOM      1  O   UNL     1       1.239  13.380  18.347  0.00  0.00    +0.000 OA
ATOM      2  C   UNL     1       1.818  13.495  19.426  0.00  0.00    +0.000 C 
ATOM      3  N   UNL     1       3.101  14.085  19.511  0.00  0.00    +0.000 N 
ATOM      4  C   UNL     1       3.861  14.237  18.272  0.00  0.00    +0.000 C 
ATOM      5  C   UNL     1       4.700  15.525  18.232  0.00  0.00    +0.000 C 
ATOM      6  C   UNL     1       5.696  15.706  19.415  0.00  0.00    +0.000 C 
ATOM      7  C   UNL     1       6.909  14.741  19.409  0.00  0.00    +0.000 C 
ATOM      8  C   UNL     1       8.030  15.092  18.398  0.00  0.00    +0.000 C 
ATOM      9  N   UNL     1       8.636  16.426  18.566  0.00  0.00    +0.000 NA
ATOM     10  C   UNL     1       7.597  17.444  18.619  0.00  0.00    +0.000 C 
ATOM     11  C   UNL     1       6.281  17.165  19.403  0.00  0.00    +0.000 C 
ATOM     12  C   UNL     1       4.807  15.504  20.697  0.00  0.00    +0.000 C 
ATOM     13  C   UNL     1       3.872  14.266  20.738  0.00  0.00    +0.000 C 
ENDROOT
BRANCH   2  14
ATOM     14  C   UNL     1       1.053  12.976  20.618  0.00  0.00    +0.000 A 
ATOM     15  C   UNL     1       0.259  13.861  21.341  0.00  0.00    +0.000 A 
ATOM     16  C   UNL     1      -0.481  13.330  22.366  0.00  0.00    +0.000 A 
ATOM     17  N   UNL     1      -0.482  12.021  22.664  0.00  0.00    +0.000 NA
ATOM     18  C   UNL     1       0.296  11.244  21.890  0.00  0.00    +0.000 A 
ATOM     19  N   UNL     1       1.087  11.643  20.883  0.00  0.00    +0.000 NA
ENDBRANCH   2  14
BRANCH   9  20
ATOM     20  C   UNL     1       9.781  16.401  19.503  0.00  0.00    +0.000 C 
BRANCH  20  21
ATOM     21  C   UNL     1       9.682  15.969  20.978  0.00  0.00    +0.000 A 
ATOM     22  C   UNL     1       8.929  16.838  21.804  0.00  0.00    +0.000 A 
ATOM     23  C   UNL     1       8.324  16.387  22.977  0.00  0.00    +0.000 A 
ATOM     24  C   UNL     1       8.431  15.052  23.331  0.00  0.00    +0.000 A 
ATOM     25  C   UNL     1       9.232  14.190  22.567  0.00  0.00    +0.000 A 
ATOM     26  C   UNL     1       9.941  14.642  21.447  0.00  0.00    +0.000 A 
BRANCH  26  27
ATOM     27  O   UNL     1      10.726  13.799  20.684  0.00  0.00    +0.000 OA
BRANCH  27  28
ATOM     28  C   UNL     1      10.301  12.631  20.049  0.00  0.00    +0.000 A 
ATOM     29  C   UNL     1       9.725  11.467  20.571  0.00  0.00    +0.000 A 
ATOM     30  C   UNL     1       9.307  10.414  19.726  0.00  0.00    +0.000 A 
ATOM     31  C   UNL     1       9.498  10.483  18.352  0.00  0.00    +0.000 A 
ATOM     32  C   UNL     1      10.102  11.614  17.815  0.00  0.00    +0.000 A 
ATOM     33  C   UNL     1      10.485  12.672  18.654  0.00  0.00    +0.000 A 
ENDBRANCH  27  28
ENDBRANCH  26  27
ENDBRANCH  20  21
ENDBRANCH   9  20
TORSDOF 5
ENDMDL
MODEL 8
REMARK VINA RESULT:      -7.0      2.364     10.623
REMARK  Name = 
REMARK  5 active torsions:
REMARK  status: ('A' for Active; 'I' for Inactive)
REMARK    1  A    between atoms: C_2  and  C_3
REMARK    2  A    between atoms: N_15  and  C_16
REMARK    3  A    between atoms: C_16  and  C_17
REMARK    4  A    between atoms: C_22  and  O_23
REMARK    5  A    between atoms: O_23  and  C_24
REMARK                            x       y       z     vdW  Elec       q    Type
REMARK                         _______ _______ _______ _____ _____    ______ ____
ROOT
ATOM      1  O   UNL     1       3.877   5.536  19.896  0.00  0.00    +0.000 OA
ATOM      2  C   UNL     1       3.669   6.139  18.843  0.00  0.00    +0.000 C 
ATOM      3  N   UNL     1       2.773   7.232  18.789  0.00  0.00    +0.000 N 
ATOM      4  C   UNL     1       1.851   7.410  19.910  0.00  0.00    +0.000 C 
ATOM      5  C   UNL     1       1.588   8.887  20.245  0.00  0.00    +0.000 C 
ATOM      6  C   UNL     1       1.060   9.754  19.065  0.00  0.00    +0.000 C 
ATOM      7  C   UNL     1      -0.392   9.444  18.618  0.00  0.00    +0.000 C 
ATOM      8  C   UNL     1      -1.503  10.006  19.542  0.00  0.00    +0.000 C 
ATOM      9  N   UNL     1      -1.490  11.469  19.726  0.00  0.00    +0.000 NA
ATOM     10  C   UNL     1      -0.161  11.912  20.122  0.00  0.00    +0.000 C 
ATOM     11  C   UNL     1       1.095  11.274  19.460  0.00  0.00    +0.000 C 
ATOM     12  C   UNL     1       2.088   9.485  17.904  0.00  0.00    +0.000 C 
ATOM     13  C   UNL     1       2.455   8.010  17.595  0.00  0.00    +0.000 C 
ENDROOT
BRANCH   2  14
ATOM     14  C   UNL     1       4.443   5.628  17.653  0.00  0.00    +0.000 A 
ATOM     15  C   UNL     1       5.544   6.353  17.209  0.00  0.00    +0.000 A 
ATOM     16  C   UNL     1       6.265   5.811  16.177  0.00  0.00    +0.000 A 
ATOM     17  N   UNL     1       5.964   4.627  15.619  0.00  0.00    +0.000 NA
ATOM     18  C   UNL     1       4.900   3.989  16.138  0.00  0.00    +0.000 A 
ATOM     19  N   UNL     1       4.098   4.425  17.121  0.00  0.00    +0.000 NA
ENDBRANCH   2  14
BRANCH   9  20
ATOM     20  C   UNL     1      -2.290  12.165  18.694  0.00  0.00    +0.000 C 
BRANCH  20  21
ATOM     21  C   UNL     1      -3.831  12.159  18.644  0.00  0.00    +0.000 A 
ATOM     22  C   UNL     1      -4.393  11.219  17.747  0.00  0.00    +0.000 A 
ATOM     23  C   UNL     1      -5.686  10.727  17.923  0.00  0.00    +0.000 A 
ATOM     24  C   UNL     1      -6.431  11.139  19.016  0.00  0.00    +0.000 A 
ATOM     25  C   UNL     1      -5.922  12.123  19.876  0.00  0.00    +0.000 A 
ATOM     26  C   UNL     1      -4.671  12.716  19.659  0.00  0.00    +0.000 A 
BRANCH  26  27
ATOM     27  O   UNL     1      -4.158  13.680  20.505  0.00  0.00    +0.000 OA
BRANCH  27  28
ATOM     28  C   UNL     1      -3.994  13.560  21.886  0.00  0.00    +0.000 A 
ATOM     29  C   UNL     1      -3.510  12.498  22.658  0.00  0.00    +0.000 A 
ATOM     30  C   UNL     1      -3.368  12.615  24.059  0.00  0.00    +0.000 A 
ATOM     31  C   UNL     1      -3.750  13.776  24.720  0.00  0.00    +0.000 A 
ATOM     32  C   UNL     1      -4.268  14.830  23.978  0.00  0.00    +0.000 A 
ATOM     33  C   UNL     1      -4.376  14.723  22.583  0.00  0.00    +0.000 A 
ENDBRANCH  27  28
ENDBRANCH  26  27
ENDBRANCH  20  21
ENDBRANCH   9  20
TORSDOF 5
ENDMDL
MODEL 9
REMARK VINA RESULT:      -6.9      1.868      4.036
REMARK  Name = 
REMARK  5 active torsions:
REMARK  status: ('A' for Active; 'I' for Inactive)
REMARK    1  A    between atoms: C_2  and  C_3
REMARK    2  A    between atoms: N_15  and  C_16
REMARK    3  A    between atoms: C_16  and  C_17
REMARK    4  A    between atoms: C_22  and  O_23
REMARK    5  A    between atoms: O_23  and  C_24
REMARK                            x       y       z     vdW  Elec       q    Type
REMARK                         _______ _______ _______ _____ _____    ______ ____
ROOT
ATOM      1  O   UNL     1      -2.982  13.163  20.548  0.00  0.00    +0.000 OA
ATOM      2  C   UNL     1      -1.800  13.288  20.866  0.00  0.00    +0.000 C 
ATOM      3  N   UNL     1      -0.830  12.337  20.472  0.00  0.00    +0.000 N 
ATOM      4  C   UNL     1      -1.306  11.045  19.982  0.00  0.00    +0.000 C 
ATOM      5  C   UNL     1      -0.439  10.473  18.848  0.00  0.00    +0.000 C 
ATOM      6  C   UNL     1       1.073  10.317  19.181  0.00  0.00    +0.000 C 
ATOM      7  C   UNL     1       1.412   9.200  20.203  0.00  0.00    +0.000 C 
ATOM      8  C   UNL     1       1.376   7.756  19.640  0.00  0.00    +0.000 C 
ATOM      9  N   UNL     1       2.288   7.496  18.511  0.00  0.00    +0.000 NA
ATOM     10  C   UNL     1       2.100   8.501  17.475  0.00  0.00    +0.000 C 
ATOM     11  C   UNL     1       1.879   9.989  17.873  0.00  0.00    +0.000 C 
ATOM     12  C   UNL     1       1.494  11.734  19.720  0.00  0.00    +0.000 C 
ATOM     13  C   UNL     1       0.592  12.392  20.798  0.00  0.00    +0.000 C 
ENDROOT
BRANCH   2  14
ATOM     14  C   UNL     1      -1.487  14.518  21.683  0.00  0.00    +0.000 A 
ATOM     15  C   UNL     1      -1.217  15.710  21.019  0.00  0.00    +0.000 A 
ATOM     16  C   UNL     1      -1.018  16.819  21.800  0.00  0.00    +0.000 A 
ATOM     17  N   UNL     1      -1.100  16.793  23.141  0.00  0.00    +0.000 NA
ATOM     18  C   UNL     1      -1.395  15.600  23.685  0.00  0.00    +0.000 A 
ATOM     19  N   UNL     1      -1.581  14.440  23.037  0.00  0.00    +0.000 NA
ENDBRANCH   2  14
BRANCH   9  20
ATOM     20  C   UNL     1       3.625   7.058  18.968  0.00  0.00    +0.000 C 
BRANCH  20  21
ATOM     21  C   UNL     1       4.579   6.179  18.136  0.00  0.00    +0.000 A 
ATOM     22  C   UNL     1       5.196   6.838  17.046  0.00  0.00    +0.000 A 
ATOM     23  C   UNL     1       6.409   6.394  16.517  0.00  0.00    +0.000 A 
ATOM     24  C   UNL     1       7.045   5.305  17.089  0.00  0.00    +0.000 A 
ATOM     25  C   UNL     1       6.417   4.594  18.122  0.00  0.00    +0.000 A 
ATOM     26  C   UNL     1       5.149   4.950  18.597  0.00  0.00    +0.000 A 
BRANCH  26  27
ATOM     27  O   UNL     1       4.526   4.261  19.620  0.00  0.00    +0.000 OA
BRANCH  27  28
ATOM     28  C   UNL     1       3.270   3.654  19.558  0.00  0.00    +0.000 A 
ATOM     29  C   UNL     1       2.793   2.630  18.731  0.00  0.00    +0.000 A 
ATOM     30  C   UNL     1       1.485   2.116  18.882  0.00  0.00    +0.000 A 
ATOM     31  C   UNL     1       0.616   2.646  19.828  0.00  0.00    +0.000 A 
ATOM     32  C   UNL     1       1.057   3.688  20.635  0.00  0.00    +0.000 A 
ATOM     33  C   UNL     1       2.367   4.173  20.505  0.00  0.00    +0.000 A 
ENDBRANCH  27  28
ENDBRANCH  26  27
ENDBRANCH  20  21
ENDBRANCH   9  20
TORSDOF 5
ENDMDL
