MODEL 1
REMARK VINA RESULT:      -8.0      0.000      0.000
REMARK  Name = 
REMARK  14 active torsions:
REMARK  status: ('A' for Active; 'I' for Inactive)
REMARK    1  A    between atoms: C_1  and  C_2
REMARK    2  A    between atoms: C_2  and  C_3
REMARK    3  A    between atoms: C_2  and  C_4
REMARK    4  A    between atoms: C_4  and  C_5
REMARK    5  A    between atoms: C_5  and  N_6
REMARK    6  A    between atoms: C_7  and  C_8
REMARK    7  A    between atoms: C_9  and  C_10
REMARK    8  A    between atoms: C_10  and  C_12
REMARK    9  A    between atoms: C_13  and  C_14
REMARK   10  A    between atoms: N_22  and  C_23
REMARK   11  A    between atoms: C_23  and  C_24
REMARK   12  A    between atoms: C_24  and  C_25
REMARK   13  A    between atoms: C_25  and  C_26
REMARK   14  A    between atoms: C_25  and  C_27
REMARK                            x       y       z     vdW  Elec       q    Type
REMARK                         _______ _______ _______ _____ _____    ______ ____
ROOT
ATOM      1  C   UNL     1       1.378   9.837  18.044  0.00  0.00    +0.000 C 
ATOM      2  O   UNL     1       2.284  10.547  17.635  0.00  0.00    +0.000 OA
ENDROOT
BRANCH   1   4
ATOM      3  C   UNL     1       0.071  11.328  19.557  0.00  0.00    +0.000 C 
ATOM      4  C   UNL     1       0.095  10.395  18.587  0.00  0.00    +0.000 C 
BRANCH   3   6
ATOM      5  N   UNL     1      -1.433  11.926  21.428  0.00  0.00    +0.000 N 
ATOM      6  C   UNL     1      -1.166  11.847  20.064  0.00  0.00    +0.000 A 
ATOM      7  N   UNL     1      -2.199  12.321  19.387  0.00  0.00    +0.000 NA
ATOM      8  C   UNL     1      -3.156  12.674  20.315  0.00  0.00    +0.000 A 
ATOM      9  C   UNL     1      -4.447  13.202  20.133  0.00  0.00    +0.000 A 
ATOM     10  C   UNL     1      -5.232  13.504  21.257  0.00  0.00    +0.000 A 
ATOM     11  C   UNL     1      -4.744  13.292  22.543  0.00  0.00    +0.000 A 
ATOM     12  C   UNL     1      -3.468  12.762  22.745  0.00  0.00    +0.000 A 
ATOM     13  C   UNL     1      -2.699  12.456  21.606  0.00  0.00    +0.000 A 
BRANCH   5  14
ATOM     14  C   UNL     1      -0.571  11.575  22.544  0.00  0.00    +0.000 C 
BRANCH  14  15
ATOM     15  C   UNL     1      -0.937  10.242  23.187  0.00  0.00    +0.000 C 
BRANCH  15  17
ATOM     16  C   UNL     1      -0.626   8.346  21.596  0.00  0.00    +0.000 C 
ATOM     17  C   UNL     1      -0.001   9.099  22.772  0.00  0.00    +0.000 C 
ATOM     18  C   UNL     1       1.396   9.594  22.396  0.00  0.00    +0.000 C 
ENDBRANCH  15  17
ENDBRANCH  14  15
ENDBRANCH   5  14
ENDBRANCH   3   6
ENDBRANCH   1   4
BRANCH   1  19
ATOM     19  C   UNL     1       1.460   8.334  18.034  0.00  0.00    +0.000 C 
ATOM     20  C   UNL     1       2.575   7.695  18.434  0.00  0.00    +0.000 C 
BRANCH  20  21
ATOM     21  C   UNL     1       2.659   6.264  18.415  0.00  0.00    +0.000 A 
ATOM     22  N   UNL     1       1.940   5.405  19.121  0.00  0.00    +0.000 NA
ATOM     23  C   UNL     1       2.416   4.150  18.824  0.00  0.00    +0.000 A 
ATOM     24  C   UNL     1       2.012   2.903  19.337  0.00  0.00    +0.000 A 
ATOM     25  C   UNL     1       2.653   1.740  18.897  0.00  0.00    +0.000 A 
ATOM     26  C   UNL     1       3.685   1.813  17.964  0.00  0.00    +0.000 A 
ATOM     27  C   UNL     1       4.109   3.045  17.446  0.00  0.00    +0.000 A 
ATOM     28  C   UNL     1       3.448   4.216  17.893  0.00  0.00    +0.000 A 
ATOM     29  N   UNL     1       3.577   5.569  17.619  0.00  0.00    +0.000 N 
BRANCH  29  30
ATOM     30  C   UNL     1       4.604   6.145  16.770  0.00  0.00    +0.000 C 
BRANCH  30  31
ATOM     31  C   UNL     1       5.891   6.624  17.451  0.00  0.00    +0.000 C 
BRANCH  31  32
ATOM     32  C   UNL     1       6.771   5.534  18.085  0.00  0.00    +0.000 C 
ATOM     33  C   UNL     1       7.398   4.604  17.047  0.00  0.00    +0.000 C 
ATOM     34  C   UNL     1       7.874   6.212  18.904  0.00  0.00    +0.000 C 
ENDBRANCH  31  32
ENDBRANCH  30  31
ENDBRANCH  29  30
ENDBRANCH  20  21
ENDBRANCH   1  19
TORSDOF 10
ENDMDL
MODEL 2
REMARK VINA RESULT:      -7.7      1.473      9.833
REMARK  Name = 
REMARK  14 active torsions:
REMARK  status: ('A' for Active; 'I' for Inactive)
REMARK    1  A    between atoms: C_1  and  C_2
REMARK    2  A    between atoms: C_2  and  C_3
REMARK    3  A    between atoms: C_2  and  C_4
REMARK    4  A    between atoms: C_4  and  C_5
REMARK    5  A    between atoms: C_5  and  N_6
REMARK    6  A    between atoms: C_7  and  C_8
REMARK    7  A    between atoms: C_9  and  C_10
REMARK    8  A    between atoms: C_10  and  C_12
REMARK    9  A    between atoms: C_13  and  C_14
REMARK   10  A    between atoms: N_22  and  C_23
REMARK   11  A    between atoms: C_23  and  C_24
REMARK   12  A    between atoms: C_24  and  C_25
REMARK   13  A    between atoms: C_25  and  C_26
REMARK   14  A    between atoms: C_25  and  C_27
REMARK                            x       y       z     vdW  Elec       q    Type
REMARK                         _______ _______ _______ _____ _____    ______ ____
ROOT
ATOM      1  C   UNL     1       1.967  10.139  18.128  0.00  0.00    +0.000 C 
ATOM      2  O   UNL     1       2.767  10.661  17.366  0.00  0.00    +0.000 OA
ENDROOT
BRANCH   1   4
ATOM      3  C   UNL     1       2.892   7.828  17.964  0.00  0.00    +0.000 C 
ATOM      4  C   UNL     1       1.892   8.653  18.329  0.00  0.00    +0.000 C 
BRANCH   3   6
ATOM      5  N   UNL     1       3.674   5.518  17.548  0.00  0.00    +0.000 N 
ATOM      6  C   UNL     1       2.800   6.411  18.162  0.00  0.00    +0.000 A 
ATOM      7  N   UNL     1       1.944   5.739  18.916  0.00  0.00    +0.000 NA
ATOM      8  C   UNL     1       2.241   4.401  18.760  0.00  0.00    +0.000 A 
ATOM      9  C   UNL     1       1.624   3.264  19.311  0.00  0.00    +0.000 A 
ATOM     10  C   UNL     1       2.136   1.991  19.012  0.00  0.00    +0.000 A 
ATOM     11  C   UNL     1       3.243   1.845  18.182  0.00  0.00    +0.000 A 
ATOM     12  C   UNL     1       3.865   2.962  17.619  0.00  0.00    +0.000 A 
ATOM     13  C   UNL     1       3.333   4.230  17.922  0.00  0.00    +0.000 A 
BRANCH   5  14
ATOM     14  C   UNL     1       4.805   5.805  16.683  0.00  0.00    +0.000 C 
BRANCH  14  15
ATOM     15  C   UNL     1       5.666   6.959  17.187  0.00  0.00    +0.000 C 
BRANCH  15  17
ATOM     16  C   UNL     1       7.934   7.826  17.758  0.00  0.00    +0.000 C 
ATOM     17  C   UNL     1       7.159   6.606  17.259  0.00  0.00    +0.000 C 
ATOM     18  C   UNL     1       7.432   5.404  18.163  0.00  0.00    +0.000 C 
ENDBRANCH  15  17
ENDBRANCH  14  15
ENDBRANCH   5  14
ENDBRANCH   3   6
ENDBRANCH   1   4
BRANCH   1  19
ATOM     19  C   UNL     1       0.985  10.937  18.943  0.00  0.00    +0.000 C 
ATOM     20  C   UNL     1       0.135  10.334  19.794  0.00  0.00    +0.000 C 
BRANCH  20  21
ATOM     21  C   UNL     1      -0.809  11.093  20.563  0.00  0.00    +0.000 A 
ATOM     22  N   UNL     1      -0.895  11.174  21.881  0.00  0.00    +0.000 NA
ATOM     23  C   UNL     1      -1.989  11.958  22.161  0.00  0.00    +0.000 A 
ATOM     24  C   UNL     1      -2.526  12.318  23.411  0.00  0.00    +0.000 A 
ATOM     25  C   UNL     1      -3.669  13.125  23.460  0.00  0.00    +0.000 A 
ATOM     26  C   UNL     1      -4.273  13.564  22.284  0.00  0.00    +0.000 A 
ATOM     27  C   UNL     1      -3.759  13.210  21.028  0.00  0.00    +0.000 A 
ATOM     28  C   UNL     1      -2.597  12.399  20.990  0.00  0.00    +0.000 A 
ATOM     29  N   UNL     1      -1.820  11.862  19.976  0.00  0.00    +0.000 N 
BRANCH  29  30
ATOM     30  C   UNL     1      -2.124  11.967  18.559  0.00  0.00    +0.000 C 
BRANCH  30  31
ATOM     31  C   UNL     1      -3.424  11.320  18.070  0.00  0.00    +0.000 C 
BRANCH  31  32
ATOM     32  C   UNL     1      -3.284  10.280  16.946  0.00  0.00    +0.000 C 
ATOM     33  C   UNL     1      -3.633  10.847  15.571  0.00  0.00    +0.000 C 
ATOM     34  C   UNL     1      -1.843   9.758  16.940  0.00  0.00    +0.000 C 
ENDBRANCH  31  32
ENDBRANCH  30  31
ENDBRANCH  29  30
ENDBRANCH  20  21
ENDBRANCH   1  19
TORSDOF 10
ENDMDL
MODEL 3
REMARK VINA RESULT:      -7.7      1.517      3.115
REMARK  Name = 
REMARK  14 active torsions:
REMARK  status: ('A' for Active; 'I' for Inactive)
REMARK    1  A    between atoms: C_1  and  C_2
REMARK    2  A    between atoms: C_2  and  C_3
REMARK    3  A    between atoms: C_2  and  C_4
REMARK    4  A    between atoms: C_4  and  C_5
REMARK    5  A    between atoms: C_5  and  N_6
REMARK    6  A    between atoms: C_7  and  C_8
REMARK    7  A    between atoms: C_9  and  C_10
REMARK    8  A    between atoms: C_10  and  C_12
REMARK    9  A    between atoms: C_13  and  C_14
REMARK   10  A    between atoms: N_22  and  C_23
REMARK   11  A    between atoms: C_23  and  C_24
REMARK   12  A    between atoms: C_24  and  C_25
REMARK   13  A    between atoms: C_25  and  C_26
REMARK   14  A    between atoms: C_25  and  C_27
REMARK                            x       y       z     vdW  Elec       q    Type
REMARK                         _______ _______ _______ _____ _____    ______ ____
ROOT
ATOM      1  C   UNL     1       1.901  10.150  18.077  0.00  0.00    +0.000 C 
ATOM      2  O   UNL     1       2.698  10.712  17.341  0.00  0.00    +0.000 OA
ENDROOT
BRANCH   1   4
ATOM      3  C   UNL     1      -0.344  10.544  19.091  0.00  0.00    +0.000 C 
ATOM      4  C   UNL     1       0.948  10.901  18.961  0.00  0.00    +0.000 C 
BRANCH   3   6
ATOM      5  N   UNL     1      -2.425  11.829  19.463  0.00  0.00    +0.000 N 
ATOM      6  C   UNL     1      -1.239  11.277  19.939  0.00  0.00    +0.000 A 
ATOM      7  N   UNL     1      -1.123  11.534  21.232  0.00  0.00    +0.000 NA
ATOM      8  C   UNL     1      -2.220  12.290  21.588  0.00  0.00    +0.000 A 
ATOM      9  C   UNL     1      -2.572  12.851  22.828  0.00  0.00    +0.000 A 
ATOM     10  C   UNL     1      -3.772  13.571  22.942  0.00  0.00    +0.000 A 
ATOM     11  C   UNL     1      -4.613  13.731  21.844  0.00  0.00    +0.000 A 
ATOM     12  C   UNL     1      -4.277  13.188  20.602  0.00  0.00    +0.000 A 
ATOM     13  C   UNL     1      -3.066  12.477  20.505  0.00  0.00    +0.000 A 
BRANCH   5  14
ATOM     14  C   UNL     1      -2.992  11.750  18.128  0.00  0.00    +0.000 C 
BRANCH  14  15
ATOM     15  C   UNL     1      -3.895  10.537  17.932  0.00  0.00    +0.000 C 
BRANCH  15  17
ATOM     16  C   UNL     1      -6.235  10.612  18.791  0.00  0.00    +0.000 C 
ATOM     17  C   UNL     1      -5.342  10.915  17.587  0.00  0.00    +0.000 C 
ATOM     18  C   UNL     1      -5.482  12.384  17.186  0.00  0.00    +0.000 C 
ENDBRANCH  15  17
ENDBRANCH  14  15
ENDBRANCH   5  14
ENDBRANCH   3   6
ENDBRANCH   1   4
BRANCH   1  19
ATOM     19  C   UNL     1       1.793   8.651  18.162  0.00  0.00    +0.000 C 
ATOM     20  C   UNL     1       2.840   7.861  17.860  0.00  0.00    +0.000 C 
BRANCH  20  21
ATOM     21  C   UNL     1       2.736   6.432  17.929  0.00  0.00    +0.000 A 
ATOM     22  N   UNL     1       1.656   5.714  18.192  0.00  0.00    +0.000 NA
ATOM     23  C   UNL     1       2.050   4.398  18.219  0.00  0.00    +0.000 A 
ATOM     24  C   UNL     1       1.285   3.247  18.489  0.00  0.00    +0.000 A 
ATOM     25  C   UNL     1       1.904   1.993  18.475  0.00  0.00    +0.000 A 
ATOM     26  C   UNL     1       3.265   1.881  18.201  0.00  0.00    +0.000 A 
ATOM     27  C   UNL     1       4.048   3.014  17.938  0.00  0.00    +0.000 A 
ATOM     28  C   UNL     1       3.409   4.280  17.947  0.00  0.00    +0.000 A 
ATOM     29  N   UNL     1       3.833   5.582  17.738  0.00  0.00    +0.000 N 
BRANCH  29  30
ATOM     30  C   UNL     1       5.212   5.977  17.518  0.00  0.00    +0.000 C 
BRANCH  30  31
ATOM     31  C   UNL     1       5.643   6.251  16.073  0.00  0.00    +0.000 C 
BRANCH  31  32
ATOM     32  C   UNL     1       6.539   5.187  15.417  0.00  0.00    +0.000 C 
ATOM     33  C   UNL     1       7.344   4.384  16.438  0.00  0.00    +0.000 C 
ATOM     34  C   UNL     1       5.654   4.242  14.597  0.00  0.00    +0.000 C 
ENDBRANCH  31  32
ENDBRANCH  30  31
ENDBRANCH  29  30
ENDBRANCH  20  21
ENDBRANCH   1  19
TORSDOF 10
ENDMDL
MODEL 4
REMARK VINA RESULT:      -7.6      0.969      9.672
REMARK  Name = 
REMARK  14 active torsions:
REMARK  status: ('A' for Active; 'I' for Inactive)
REMARK    1  A    between atoms: C_1  and  C_2
REMARK    2  A    between atoms: C_2  and  C_3
REMARK    3  A    between atoms: C_2  and  C_4
REMARK    4  A    between atoms: C_4  and  C_5
REMARK    5  A    between atoms: C_5  and  N_6
REMARK    6  A    between atoms: C_7  and  C_8
REMARK    7  A    between atoms: C_9  and  C_10
REMARK    8  A    between atoms: C_10  and  C_12
REMARK    9  A    between atoms: C_13  and  C_14
REMARK   10  A    between atoms: N_22  and  C_23
REMARK   11  A    between atoms: C_23  and  C_24
REMARK   12  A    between atoms: C_24  and  C_25
REMARK   13  A    between atoms: C_25  and  C_26
REMARK   14  A    between atoms: C_25  and  C_27
REMARK                            x       y       z     vdW  Elec       q    Type
REMARK                         _______ _______ _______ _____ _____    ______ ____
ROOT
ATOM      1  C   UNL     1       1.386  10.139  18.295  0.00  0.00    +0.000 C 
ATOM      2  O   UNL     1       2.007  10.502  17.308  0.00  0.00    +0.000 OA
ENDROOT
BRANCH   1   4
ATOM      3  C   UNL     1       2.547   7.946  18.550  0.00  0.00    +0.000 C 
ATOM      4  C   UNL     1       1.532   8.766  18.883  0.00  0.00    +0.000 C 
BRANCH   3   6
ATOM      5  N   UNL     1       3.473   5.653  18.557  0.00  0.00    +0.000 N 
ATOM      6  C   UNL     1       2.667   6.636  19.122  0.00  0.00    +0.000 A 
ATOM      7  N   UNL     1       2.089   6.157  20.212  0.00  0.00    +0.000 NA
ATOM      8  C   UNL     1       2.494   4.845  20.334  0.00  0.00    +0.000 A 
ATOM      9  C   UNL     1       2.156   3.876  21.295  0.00  0.00    +0.000 A 
ATOM     10  C   UNL     1       2.729   2.596  21.214  0.00  0.00    +0.000 A 
ATOM     11  C   UNL     1       3.626   2.282  20.197  0.00  0.00    +0.000 A 
ATOM     12  C   UNL     1       3.969   3.228  19.229  0.00  0.00    +0.000 A 
ATOM     13  C   UNL     1       3.378   4.503  19.322  0.00  0.00    +0.000 A 
BRANCH   5  14
ATOM     14  C   UNL     1       4.336   5.744  17.392  0.00  0.00    +0.000 C 
BRANCH  14  15
ATOM     15  C   UNL     1       5.700   6.351  17.703  0.00  0.00    +0.000 C 
BRANCH  15  17
ATOM     16  C   UNL     1       7.299   4.541  17.081  0.00  0.00    +0.000 C 
ATOM     17  C   UNL     1       6.702   5.326  18.251  0.00  0.00    +0.000 C 
ATOM     18  C   UNL     1       7.817   5.977  19.069  0.00  0.00    +0.000 C 
ENDBRANCH  15  17
ENDBRANCH  14  15
ENDBRANCH   5  14
ENDBRANCH   3   6
ENDBRANCH   1   4
BRANCH   1  19
ATOM     19  C   UNL     1       0.420  11.038  19.020  0.00  0.00    +0.000 C 
ATOM     20  C   UNL     1      -0.865  10.678  19.200  0.00  0.00    +0.000 C 
BRANCH  20  21
ATOM     21  C   UNL     1      -1.789  11.538  19.880  0.00  0.00    +0.000 A 
ATOM     22  N   UNL     1      -2.870  12.115  19.382  0.00  0.00    +0.000 NA
ATOM     23  C   UNL     1      -3.400  12.897  20.380  0.00  0.00    +0.000 A 
ATOM     24  C   UNL     1      -4.529  13.738  20.344  0.00  0.00    +0.000 A 
ATOM     25  C   UNL     1      -4.882  14.461  21.489  0.00  0.00    +0.000 A 
ATOM     26  C   UNL     1      -4.122  14.356  22.652  0.00  0.00    +0.000 A 
ATOM     27  C   UNL     1      -2.989  13.531  22.707  0.00  0.00    +0.000 A 
ATOM     28  C   UNL     1      -2.645  12.797  21.544  0.00  0.00    +0.000 A 
ATOM     29  N   UNL     1      -1.633  11.906  21.222  0.00  0.00    +0.000 N 
BRANCH  29  30
ATOM     30  C   UNL     1      -0.528  11.560  22.098  0.00  0.00    +0.000 C 
BRANCH  30  31
ATOM     31  C   UNL     1      -0.760  10.430  23.107  0.00  0.00    +0.000 C 
BRANCH  31  32
ATOM     32  C   UNL     1       0.020   9.127  22.860  0.00  0.00    +0.000 C 
ATOM     33  C   UNL     1      -0.601   8.268  21.759  0.00  0.00    +0.000 C 
ATOM     34  C   UNL     1       1.462   9.486  22.485  0.00  0.00    +0.000 C 
ENDBRANCH  31  32
ENDBRANCH  30  31
ENDBRANCH  29  30
ENDBRANCH  20  21
ENDBRANCH   1  19
TORSDOF 10
ENDMDL
MODEL 5
REMARK VINA RESULT:      -7.4      1.951     10.071
REMARK  Name = 
REMARK  14 active torsions:
REMARK  status: ('A' for Active; 'I' for Inactive)
REMARK    1  A    between atoms: C_1  and  C_2
REMARK    2  A    between atoms: C_2  and  C_3
REMARK    3  A    between atoms: C_2  and  C_4
REMARK    4  A    between atoms: C_4  and  C_5
REMARK    5  A    between atoms: C_5  and  N_6
REMARK    6  A    between atoms: C_7  and  C_8
REMARK    7  A    between atoms: C_9  and  C_10
REMARK    8  A    between atoms: C_10  and  C_12
REMARK    9  A    between atoms: C_13  and  C_14
REMARK   10  A    between atoms: N_22  and  C_23
REMARK   11  A    between atoms: C_23  and  C_24
REMARK   12  A    between atoms: C_24  and  C_25
REMARK   13  A    between atoms: C_25  and  C_26
REMARK   14  A    between atoms: C_25  and  C_27
REMARK                            x       y       z     vdW  Elec       q    Type
REMARK                         _______ _______ _______ _____ _____    ______ ____
ROOT
ATOM      1  C   UNL     1       0.769   9.650  21.669  0.00  0.00    +0.000 C 
ATOM      2  O   UNL     1       0.995  10.061  22.797  0.00  0.00    +0.000 OA
ENDROOT
BRANCH   1   4
ATOM      3  C   UNL     1       1.430   8.213  19.740  0.00  0.00    +0.000 C 
ATOM      4  C   UNL     1       1.753   8.817  20.900  0.00  0.00    +0.000 C 
BRANCH   3   6
ATOM      5  N   UNL     1       2.722   6.129  19.417  0.00  0.00    +0.000 N 
ATOM      6  C   UNL     1       2.383   7.420  19.021  0.00  0.00    +0.000 A 
ATOM      7  N   UNL     1       3.057   7.734  17.927  0.00  0.00    +0.000 NA
ATOM      8  C   UNL     1       3.866   6.656  17.633  0.00  0.00    +0.000 A 
ATOM      9  C   UNL     1       4.799   6.476  16.596  0.00  0.00    +0.000 A 
ATOM     10  C   UNL     1       5.491   5.258  16.497  0.00  0.00    +0.000 A 
ATOM     11  C   UNL     1       5.261   4.232  17.409  0.00  0.00    +0.000 A 
ATOM     12  C   UNL     1       4.344   4.394  18.450  0.00  0.00    +0.000 A 
ATOM     13  C   UNL     1       3.666   5.625  18.539  0.00  0.00    +0.000 A 
BRANCH   5  14
ATOM     14  C   UNL     1       2.193   5.351  20.524  0.00  0.00    +0.000 C 
BRANCH  14  15
ATOM     15  C   UNL     1       0.983   4.507  20.137  0.00  0.00    +0.000 C 
BRANCH  15  17
ATOM     16  C   UNL     1       1.446   2.224  19.245  0.00  0.00    +0.000 C 
ATOM     17  C   UNL     1       1.140   3.026  20.511  0.00  0.00    +0.000 C 
ATOM     18  C   UNL     1       2.235   2.800  21.553  0.00  0.00    +0.000 C 
ENDBRANCH  15  17
ENDBRANCH  14  15
ENDBRANCH   5  14
ENDBRANCH   3   6
ENDBRANCH   1   4
BRANCH   1  19
ATOM     19  C   UNL     1      -0.520   9.935  20.946  0.00  0.00    +0.000 C 
ATOM     20  C   UNL     1      -0.732  11.119  20.343  0.00  0.00    +0.000 C 
BRANCH  20  21
ATOM     21  C   UNL     1      -1.965  11.396  19.663  0.00  0.00    +0.000 A 
ATOM     22  N   UNL     1      -2.336  10.978  18.464  0.00  0.00    +0.000 NA
ATOM     23  C   UNL     1      -3.559  11.548  18.204  0.00  0.00    +0.000 A 
ATOM     24  C   UNL     1      -4.360  11.445  17.051  0.00  0.00    +0.000 A 
ATOM     25  C   UNL     1      -5.579  12.130  16.999  0.00  0.00    +0.000 A 
ATOM     26  C   UNL     1      -5.996  12.910  18.075  0.00  0.00    +0.000 A 
ATOM     27  C   UNL     1      -5.211  13.033  19.230  0.00  0.00    +0.000 A 
ATOM     28  C   UNL     1      -3.981  12.329  19.275  0.00  0.00    +0.000 A 
ATOM     29  N   UNL     1      -2.968  12.204  20.212  0.00  0.00    +0.000 N 
BRANCH  29  30
ATOM     30  C   UNL     1      -2.912  12.928  21.470  0.00  0.00    +0.000 C 
BRANCH  30  31
ATOM     31  C   UNL     1      -3.966  12.581  22.527  0.00  0.00    +0.000 C 
BRANCH  31  32
ATOM     32  C   UNL     1      -3.535  12.739  23.995  0.00  0.00    +0.000 C 
ATOM     33  C   UNL     1      -3.098  14.164  24.331  0.00  0.00    +0.000 C 
ATOM     34  C   UNL     1      -4.707  12.331  24.894  0.00  0.00    +0.000 C 
ENDBRANCH  31  32
ENDBRANCH  30  31
ENDBRANCH  29  30
ENDBRANCH  20  21
ENDBRANCH   1  19
TORSDOF 10
ENDMDL
MODEL 6
REMARK VINA RESULT:      -7.4      1.712     10.136
REMARK  Name = 
REMARK  14 active torsions:
REMARK  status: ('A' for Active; 'I' for Inactive)
REMARK    1  A    between atoms: C_1  and  C_2
REMARK    2  A    between atoms: C_2  and  C_3
REMARK    3  A    between atoms: C_2  and  C_4
REMARK    4  A    between atoms: C_4  and  C_5
REMARK    5  A    between atoms: C_5  and  N_6
REMARK    6  A    between atoms: C_7  and  C_8
REMARK    7  A    between atoms: C_9  and  C_10
REMARK    8  A    between atoms: C_10  and  C_12
REMARK    9  A    between atoms: C_13  and  C_14
REMARK   10  A    between atoms: N_22  and  C_23
REMARK   11  A    between atoms: C_23  and  C_24
REMARK   12  A    between atoms: C_24  and  C_25
REMARK   13  A    between atoms: C_25  and  C_26
REMARK   14  A    between atoms: C_25  and  C_27
REMARK                            x       y       z     vdW  Elec       q    Type
REMARK                         _______ _______ _______ _____ _____    ______ ____
ROOT
ATOM      1  C   UNL     1       0.873  10.042  18.799  0.00  0.00    +0.000 C 
ATOM      2  O   UNL     1       1.698  10.904  18.539  0.00  0.00    +0.000 OA
ENDROOT
BRANCH   1   4
ATOM      3  C   UNL     1       2.225   7.949  18.700  0.00  0.00    +0.000 C 
ATOM      4  C   UNL     1       1.256   8.676  19.288  0.00  0.00    +0.000 C 
BRANCH   3   6
ATOM      5  N   UNL     1       3.719   5.978  18.750  0.00  0.00    +0.000 N 
ATOM      6  C   UNL     1       2.575   6.644  19.180  0.00  0.00    +0.000 A 
ATOM      7  N   UNL     1       1.935   5.892  20.061  0.00  0.00    +0.000 NA
ATOM      8  C   UNL     1       2.647   4.716  20.174  0.00  0.00    +0.000 A 
ATOM      9  C   UNL     1       2.392   3.571  20.949  0.00  0.00    +0.000 A 
ATOM     10  C   UNL     1       3.295   2.497  20.907  0.00  0.00    +0.000 A 
ATOM     11  C   UNL     1       4.436   2.557  20.113  0.00  0.00    +0.000 A 
ATOM     12  C   UNL     1       4.704   3.683  19.331  0.00  0.00    +0.000 A 
ATOM     13  C   UNL     1       3.782   4.746  19.378  0.00  0.00    +0.000 A 
BRANCH   5  14
ATOM     14  C   UNL     1       4.748   6.439  17.834  0.00  0.00    +0.000 C 
BRANCH  14  15
ATOM     15  C   UNL     1       4.607   5.855  16.432  0.00  0.00    +0.000 C 
BRANCH  15  17
ATOM     16  C   UNL     1       5.560   4.398  14.646  0.00  0.00    +0.000 C 
ATOM     17  C   UNL     1       5.648   4.769  16.127  0.00  0.00    +0.000 C 
ATOM     18  C   UNL     1       7.070   5.210  16.475  0.00  0.00    +0.000 C 
ENDBRANCH  15  17
ENDBRANCH  14  15
ENDBRANCH   5  14
ENDBRANCH   3   6
ENDBRANCH   1   4
BRANCH   1  19
ATOM     19  C   UNL     1      -0.609  10.272  18.663  0.00  0.00    +0.000 C 
ATOM     20  C   UNL     1      -1.165  11.449  19.006  0.00  0.00    +0.000 C 
BRANCH  20  21
ATOM     21  C   UNL     1      -2.578  11.665  18.887  0.00  0.00    +0.000 A 
ATOM     22  N   UNL     1      -3.381  11.235  17.928  0.00  0.00    +0.000 NA
ATOM     23  C   UNL     1      -4.630  11.742  18.197  0.00  0.00    +0.000 A 
ATOM     24  C   UNL     1      -5.822  11.604  17.461  0.00  0.00    +0.000 A 
ATOM     25  C   UNL     1      -6.988  12.226  17.921  0.00  0.00    +0.000 A 
ATOM     26  C   UNL     1      -6.971  12.979  19.093  0.00  0.00    +0.000 A 
ATOM     27  C   UNL     1      -5.793  13.136  19.837  0.00  0.00    +0.000 A 
ATOM     28  C   UNL     1      -4.619  12.496  19.366  0.00  0.00    +0.000 A 
ATOM     29  N   UNL     1      -3.309  12.419  19.813  0.00  0.00    +0.000 N 
BRANCH  29  30
ATOM     30  C   UNL     1      -2.784  13.138  20.960  0.00  0.00    +0.000 C 
BRANCH  30  31
ATOM     31  C   UNL     1      -2.759  12.398  22.301  0.00  0.00    +0.000 C 
BRANCH  31  32
ATOM     32  C   UNL     1      -1.369  12.137  22.907  0.00  0.00    +0.000 C 
ATOM     33  C   UNL     1      -0.920  10.685  22.749  0.00  0.00    +0.000 C 
ATOM     34  C   UNL     1      -0.358  13.068  22.229  0.00  0.00    +0.000 C 
ENDBRANCH  31  32
ENDBRANCH  30  31
ENDBRANCH  29  30
ENDBRANCH  20  21
ENDBRANCH   1  19
TORSDOF 10
ENDMDL
MODEL 7
REMARK VINA RESULT:      -7.4      1.810      2.783
REMARK  Name = 
REMARK  14 active torsions:
REMARK  status: ('A' for Active; 'I' for Inactive)
REMARK    1  A    between atoms: C_1  and  C_2
REMARK    2  A    between atoms: C_2  and  C_3
REMARK    3  A    between atoms: C_2  and  C_4
REMARK    4  A    between atoms: C_4  and  C_5
REMARK    5  A    between atoms: C_5  and  N_6
REMARK    6  A    between atoms: C_7  and  C_8
REMARK    7  A    between atoms: C_9  and  C_10
REMARK    8  A    between atoms: C_10  and  C_12
REMARK    9  A    between atoms: C_13  and  C_14
REMARK   10  A    between atoms: N_22  and  C_23
REMARK   11  A    between atoms: C_23  and  C_24
REMARK   12  A    between atoms: C_24  and  C_25
REMARK   13  A    between atoms: C_25  and  C_26
REMARK   14  A    between atoms: C_25  and  C_27
REMARK                            x       y       z     vdW  Elec       q    Type
REMARK                         _______ _______ _______ _____ _____    ______ ____
ROOT
ATOM      1  C   UNL     1       1.477  10.106  18.343  0.00  0.00    +0.000 C 
ATOM      2  O   UNL     1       2.343  10.916  18.050  0.00  0.00    +0.000 OA
ENDROOT
BRANCH   1   4
ATOM      3  C   UNL     1      -0.705  11.072  19.068  0.00  0.00    +0.000 C 
ATOM      4  C   UNL     1       0.014  10.384  18.160  0.00  0.00    +0.000 C 
BRANCH   3   6
ATOM      5  N   UNL     1      -2.803  12.246  19.650  0.00  0.00    +0.000 N 
ATOM      6  C   UNL     1      -2.104  11.325  18.875  0.00  0.00    +0.000 A 
ATOM      7  N   UNL     1      -2.924  10.784  17.990  0.00  0.00    +0.000 NA
ATOM      8  C   UNL     1      -4.171  11.329  18.215  0.00  0.00    +0.000 A 
ATOM      9  C   UNL     1      -5.399  11.081  17.577  0.00  0.00    +0.000 A 
ATOM     10  C   UNL     1      -6.540  11.793  17.982  0.00  0.00    +0.000 A 
ATOM     11  C   UNL     1      -6.466  12.738  19.000  0.00  0.00    +0.000 A 
ATOM     12  C   UNL     1      -5.256  12.993  19.651  0.00  0.00    +0.000 A 
ATOM     13  C   UNL     1      -4.125  12.264  19.239  0.00  0.00    +0.000 A 
BRANCH   5  14
ATOM     14  C   UNL     1      -2.303  13.115  20.701  0.00  0.00    +0.000 C 
BRANCH  14  15
ATOM     15  C   UNL     1      -2.429  12.504  22.093  0.00  0.00    +0.000 C 
BRANCH  15  17
ATOM     16  C   UNL     1      -3.851  12.244  24.125  0.00  0.00    +0.000 C 
ATOM     17  C   UNL     1      -3.538  13.150  22.933  0.00  0.00    +0.000 C 
ATOM     18  C   UNL     1      -3.162  14.549  23.422  0.00  0.00    +0.000 C 
ENDBRANCH  15  17
ENDBRANCH  14  15
ENDBRANCH   5  14
ENDBRANCH   3   6
ENDBRANCH   1   4
BRANCH   1  19
ATOM     19  C   UNL     1       1.797   8.748  18.909  0.00  0.00    +0.000 C 
ATOM     20  C   UNL     1       2.385   7.801  18.154  0.00  0.00    +0.000 C 
BRANCH  20  21
ATOM     21  C   UNL     1       2.680   6.503  18.688  0.00  0.00    +0.000 A 
ATOM     22  N   UNL     1       1.944   5.789  19.524  0.00  0.00    +0.000 NA
ATOM     23  C   UNL     1       2.657   4.649  19.809  0.00  0.00    +0.000 A 
ATOM     24  C   UNL     1       2.326   3.587  20.671  0.00  0.00    +0.000 A 
ATOM     25  C   UNL     1       3.220   2.521  20.821  0.00  0.00    +0.000 A 
ATOM     26  C   UNL     1       4.429   2.511  20.128  0.00  0.00    +0.000 A 
ATOM     27  C   UNL     1       4.782   3.562  19.270  0.00  0.00    +0.000 A 
ATOM     28  C   UNL     1       3.866   4.634  19.120  0.00  0.00    +0.000 A 
ATOM     29  N   UNL     1       3.859   5.810  18.387  0.00  0.00    +0.000 N 
BRANCH  29  30
ATOM     30  C   UNL     1       4.968   6.287  17.581  0.00  0.00    +0.000 C 
BRANCH  30  31
ATOM     31  C   UNL     1       4.995   5.869  16.107  0.00  0.00    +0.000 C 
BRANCH  31  32
ATOM     32  C   UNL     1       5.700   4.539  15.791  0.00  0.00    +0.000 C 
ATOM     33  C   UNL     1       5.751   4.240  14.293  0.00  0.00    +0.000 C 
ATOM     34  C   UNL     1       7.123   4.595  16.356  0.00  0.00    +0.000 C 
ENDBRANCH  31  32
ENDBRANCH  30  31
ENDBRANCH  29  30
ENDBRANCH  20  21
ENDBRANCH   1  19
TORSDOF 10
ENDMDL
MODEL 8
REMARK VINA RESULT:      -7.4      2.173      4.453
REMARK  Name = 
REMARK  14 active torsions:
REMARK  status: ('A' for Active; 'I' for Inactive)
REMARK    1  A    between atoms: C_1  and  C_2
REMARK    2  A    between atoms: C_2  and  C_3
REMARK    3  A    between atoms: C_2  and  C_4
REMARK    4  A    between atoms: C_4  and  C_5
REMARK    5  A    between atoms: C_5  and  N_6
REMARK    6  A    between atoms: C_7  and  C_8
REMARK    7  A    between atoms: C_9  and  C_10
REMARK    8  A    between atoms: C_10  and  C_12
REMARK    9  A    between atoms: C_13  and  C_14
REMARK   10  A    between atoms: N_22  and  C_23
REMARK   11  A    between atoms: C_23  and  C_24
REMARK   12  A    between atoms: C_24  and  C_25
REMARK   13  A    between atoms: C_25  and  C_26
REMARK   14  A    between atoms: C_25  and  C_27
REMARK                            x       y       z     vdW  Elec       q    Type
REMARK                         _______ _______ _______ _____ _____    ______ ____
ROOT
ATOM      1  C   UNL     1       1.631   7.347  20.532  0.00  0.00    +0.000 C 
ATOM      2  O   UNL     1       1.139   6.501  21.262  0.00  0.00    +0.000 OA
ENDROOT
BRANCH   1   4
ATOM      3  C   UNL     1       0.109   9.263  21.017  0.00  0.00    +0.000 C 
ATOM      4  C   UNL     1       1.330   8.811  20.671  0.00  0.00    +0.000 C 
BRANCH   3   6
ATOM      5  N   UNL     1      -0.329  11.489  20.033  0.00  0.00    +0.000 N 
ATOM      6  C   UNL     1      -0.160  10.666  21.142  0.00  0.00    +0.000 A 
ATOM      7  N   UNL     1      -0.298  11.382  22.245  0.00  0.00    +0.000 NA
ATOM      8  C   UNL     1      -0.521  12.685  21.850  0.00  0.00    +0.000 A 
ATOM      9  C   UNL     1      -0.707  13.848  22.618  0.00  0.00    +0.000 A 
ATOM     10  C   UNL     1      -0.943  15.070  21.969  0.00  0.00    +0.000 A 
ATOM     11  C   UNL     1      -0.999  15.140  20.581  0.00  0.00    +0.000 A 
ATOM     12  C   UNL     1      -0.810  13.997  19.800  0.00  0.00    +0.000 A 
ATOM     13  C   UNL     1      -0.565  12.782  20.467  0.00  0.00    +0.000 A 
BRANCH   5  14
ATOM     14  C   UNL     1      -0.320  11.130  18.625  0.00  0.00    +0.000 C 
BRANCH  14  15
ATOM     15  C   UNL     1      -1.509  10.265  18.221  0.00  0.00    +0.000 C 
BRANCH  15  17
ATOM     16  C   UNL     1      -3.209  10.101  16.403  0.00  0.00    +0.000 C 
ATOM     17  C   UNL     1      -2.572  11.040  17.428  0.00  0.00    +0.000 C 
ATOM     18  C   UNL     1      -3.649  11.642  18.330  0.00  0.00    +0.000 C 
ENDBRANCH  15  17
ENDBRANCH  14  15
ENDBRANCH   5  14
ENDBRANCH   3   6
ENDBRANCH   1   4
BRANCH   1  19
ATOM     19  C   UNL     1       2.594   7.002  19.427  0.00  0.00    +0.000 C 
ATOM     20  C   UNL     1       3.118   5.767  19.321  0.00  0.00    +0.000 C 
BRANCH  20  21
ATOM     21  C   UNL     1       4.044   5.440  18.276  0.00  0.00    +0.000 A 
ATOM     22  N   UNL     1       5.196   6.031  18.006  0.00  0.00    +0.000 NA
ATOM     23  C   UNL     1       5.701   5.424  16.880  0.00  0.00    +0.000 A 
ATOM     24  C   UNL     1       6.883   5.710  16.172  0.00  0.00    +0.000 A 
ATOM     25  C   UNL     1       7.196   4.964  15.030  0.00  0.00    +0.000 A 
ATOM     26  C   UNL     1       6.346   3.950  14.595  0.00  0.00    +0.000 A 
ATOM     27  C   UNL     1       5.159   3.654  15.281  0.00  0.00    +0.000 A 
ATOM     28  C   UNL     1       4.855   4.411  16.440  0.00  0.00    +0.000 A 
ATOM     29  N   UNL     1       3.813   4.412  17.354  0.00  0.00    +0.000 N 
BRANCH  29  30
ATOM     30  C   UNL     1       2.624   3.584  17.251  0.00  0.00    +0.000 C 
BRANCH  30  31
ATOM     31  C   UNL     1       2.686   2.186  17.875  0.00  0.00    +0.000 C 
BRANCH  31  32
ATOM     32  C   UNL     1       2.023   2.027  19.254  0.00  0.00    +0.000 C 
ATOM     33  C   UNL     1       2.937   2.457  20.401  0.00  0.00    +0.000 C 
ATOM     34  C   UNL     1       0.738   2.861  19.276  0.00  0.00    +0.000 C 
ENDBRANCH  31  32
ENDBRANCH  30  31
ENDBRANCH  29  30
ENDBRANCH  20  21
ENDBRANCH   1  19
TORSDOF 10
ENDMDL
MODEL 9
REMARK VINA RESULT:      -7.4      2.390     10.181
REMARK  Name = 
REMARK  14 active torsions:
REMARK  status: ('A' for Active; 'I' for Inactive)
REMARK    1  A    between atoms: C_1  and  C_2
REMARK    2  A    between atoms: C_2  and  C_3
REMARK    3  A    between atoms: C_2  and  C_4
REMARK    4  A    between atoms: C_4  and  C_5
REMARK    5  A    between atoms: C_5  and  N_6
REMARK    6  A    between atoms: C_7  and  C_8
REMARK    7  A    between atoms: C_9  and  C_10
REMARK    8  A    between atoms: C_10  and  C_12
REMARK    9  A    between atoms: C_13  and  C_14
REMARK   10  A    between atoms: N_22  and  C_23
REMARK   11  A    between atoms: C_23  and  C_24
REMARK   12  A    between atoms: C_24  and  C_25
REMARK   13  A    between atoms: C_25  and  C_26
REMARK   14  A    between atoms: C_25  and  C_27
REMARK                            x       y       z     vdW  Elec       q    Type
REMARK                         _______ _______ _______ _____ _____    ______ ____
ROOT
ATOM      1  C   UNL     1       1.446   7.604  20.698  0.00  0.00    +0.000 C 
ATOM      2  O   UNL     1       0.969   6.776  21.458  0.00  0.00    +0.000 OA
ENDROOT
BRANCH   1   4
ATOM      3  C   UNL     1       2.984   6.083  19.456  0.00  0.00    +0.000 C 
ATOM      4  C   UNL     1       2.273   7.225  19.504  0.00  0.00    +0.000 C 
BRANCH   3   6
ATOM      5  N   UNL     1       4.341   4.482  18.148  0.00  0.00    +0.000 N 
ATOM      6  C   UNL     1       3.769   5.740  18.306  0.00  0.00    +0.000 A 
ATOM      7  N   UNL     1       4.064   6.491  17.257  0.00  0.00    +0.000 NA
ATOM      8  C   UNL     1       4.863   5.728  16.432  0.00  0.00    +0.000 A 
ATOM      9  C   UNL     1       5.473   6.050  15.206  0.00  0.00    +0.000 A 
ATOM     10  C   UNL     1       6.232   5.075  14.539  0.00  0.00    +0.000 A 
ATOM     11  C   UNL     1       6.382   3.799  15.074  0.00  0.00    +0.000 A 
ATOM     12  C   UNL     1       5.790   3.463  16.294  0.00  0.00    +0.000 A 
ATOM     13  C   UNL     1       5.041   4.455  16.954  0.00  0.00    +0.000 A 
BRANCH   5  14
ATOM     14  C   UNL     1       4.237   3.321  19.015  0.00  0.00    +0.000 C 
BRANCH  14  15
ATOM     15  C   UNL     1       3.206   2.305  18.535  0.00  0.00    +0.000 C 
BRANCH  15  17
ATOM     16  C   UNL     1       2.346   2.734  20.836  0.00  0.00    +0.000 C 
ATOM     17  C   UNL     1       1.970   2.229  19.442  0.00  0.00    +0.000 C 
ATOM     18  C   UNL     1       0.792   3.033  18.892  0.00  0.00    +0.000 C 
ENDBRANCH  15  17
ENDBRANCH  14  15
ENDBRANCH   5  14
ENDBRANCH   3   6
ENDBRANCH   1   4
BRANCH   1  19
ATOM     19  C   UNL     1       1.245   9.084  20.884  0.00  0.00    +0.000 C 
ATOM     20  C   UNL     1       0.011   9.619  20.924  0.00  0.00    +0.000 C 
BRANCH  20  21
ATOM     21  C   UNL     1      -0.182  11.030  21.090  0.00  0.00    +0.000 A 
ATOM     22  N   UNL     1      -0.255  11.706  22.225  0.00  0.00    +0.000 NA
ATOM     23  C   UNL     1      -0.514  13.015  21.894  0.00  0.00    +0.000 A 
ATOM     24  C   UNL     1      -0.714  14.122  22.739  0.00  0.00    +0.000 A 
ATOM     25  C   UNL     1      -0.980  15.376  22.177  0.00  0.00    +0.000 A 
ATOM     26  C   UNL     1      -1.050  15.528  20.794  0.00  0.00    +0.000 A 
ATOM     27  C   UNL     1      -0.862  14.437  19.933  0.00  0.00    +0.000 A 
ATOM     28  C   UNL     1      -0.586  13.173  20.514  0.00  0.00    +0.000 A 
ATOM     29  N   UNL     1      -0.347  11.905  20.009  0.00  0.00    +0.000 N 
BRANCH  29  30
ATOM     30  C   UNL     1      -0.421  11.547  18.603  0.00  0.00    +0.000 C 
BRANCH  30  31
ATOM     31  C   UNL     1      -1.789  11.658  17.922  0.00  0.00    +0.000 C 
BRANCH  31  32
ATOM     32  C   UNL     1      -2.209  10.468  17.043  0.00  0.00    +0.000 C 
ATOM     33  C   UNL     1      -3.225   9.556  17.731  0.00  0.00    +0.000 C 
ATOM     34  C   UNL     1      -2.801  11.010  15.738  0.00  0.00    +0.000 C 
ENDBRANCH  31  32
ENDBRANCH  30  31
ENDBRANCH  29  30
ENDBRANCH  20  21
ENDBRANCH   1  19
TORSDOF 10
ENDMDL
