MODEL 1
REMARK VINA RESULT:      -9.2      0.000      0.000
REMARK  Name = 
REMARK  8 active torsions:
REMARK  status: ('A' for Active; 'I' for Inactive)
REMARK    1  A    between atoms: C_2  and  C_3
REMARK    2  A    between atoms: C_3  and  C_4
REMARK    3  A    between atoms: C_4  and  C_5
REMARK    4  A    between atoms: C_7  and  C_8
REMARK    5  A    between atoms: C_13  and  C_14
REMARK    6  A    between atoms: N_19  and  C_20
REMARK    7  A    between atoms: N_19  and  C_28
REMARK    8  A    between atoms: C_20  and  C_21
REMARK                            x       y       z     vdW  Elec       q    Type
REMARK                         _______ _______ _______ _____ _____    ______ ____
ROOT
ATOM      1  O   UNL     1       4.400   7.151  18.009  0.00  0.00    +0.000 OA
ATOM      2  C   UNL     1       3.379   6.506  18.266  0.00  0.00    +0.000 C 
ATOM      3  N   UNL     1       3.433   5.159  18.659  0.00  0.00    +0.000 N 
ENDROOT
BRANCH   3   4
ATOM      4  C   UNL     1       2.256   4.229  18.857  0.00  0.00    +0.000 C 
ATOM      5  C   UNL     1       1.396   4.442  20.126  0.00  0.00    +0.000 C 
ATOM      6  C   UNL     1       2.202   4.162  21.388  0.00  0.00    +0.000 C 
ATOM      7  N   UNL     1       2.620   2.762  21.431  0.00  0.00    +0.000 NA
ATOM      8  C   UNL     1       3.372   2.389  20.233  0.00  0.00    +0.000 C 
ATOM      9  C   UNL     1       2.629   2.725  18.927  0.00  0.00    +0.000 C 
ATOM     10  H   UNL     1       1.797   2.164  21.511  0.00  0.00    +0.000 HD
ENDBRANCH   3   4
BRANCH   2  11
ATOM     11  C   UNL     1       2.040   7.199  18.194  0.00  0.00    +0.000 C 
BRANCH  11  12
ATOM     12  C   UNL     1       2.156   8.705  17.964  0.00  0.00    +0.000 C 
BRANCH  12  13
ATOM     13  C   UNL     1       1.144   9.450  18.802  0.00  0.00    +0.000 A 
ATOM     14  C   UNL     1       0.375  10.479  18.243  0.00  0.00    +0.000 A 
ATOM     15  C   UNL     1      -0.537  11.207  19.022  0.00  0.00    +0.000 A 
ATOM     16  C   UNL     1      -0.671  10.889  20.385  0.00  0.00    +0.000 A 
ATOM     17  C   UNL     1       0.096   9.870  20.970  0.00  0.00    +0.000 A 
ATOM     18  C   UNL     1       1.002   9.158  20.167  0.00  0.00    +0.000 A 
BRANCH  15  19
ATOM     19  C   UNL     1      -1.363  12.322  18.425  0.00  0.00    +0.000 C 
ATOM     20  F   UNL     1      -2.237  12.886  19.304  0.00  0.00    +0.000 F 
ATOM     21  F   UNL     1      -0.596  13.342  17.951  0.00  0.00    +0.000 F 
ATOM     22  F   UNL     1      -2.116  11.898  17.371  0.00  0.00    +0.000 F 
ENDBRANCH  15  19
BRANCH  17  23
ATOM     23  C   UNL     1      -0.030   9.533  22.436  0.00  0.00    +0.000 C 
ATOM     24  F   UNL     1       1.159   9.242  23.034  0.00  0.00    +0.000 F 
ATOM     25  F   UNL     1      -0.581  10.545  23.160  0.00  0.00    +0.000 F 
ATOM     26  F   UNL     1      -0.827   8.450  22.648  0.00  0.00    +0.000 F 
ENDBRANCH  17  23
ENDBRANCH  12  13
ENDBRANCH  11  12
ENDBRANCH   2  11
BRANCH   3  27
ATOM     27  C   UNL     1       4.800   4.586  18.587  0.00  0.00    +0.000 C 
BRANCH  27  28
ATOM     28  C   UNL     1       5.472   4.535  17.225  0.00  0.00    +0.000 A 
ATOM     29  C   UNL     1       4.790   4.154  16.057  0.00  0.00    +0.000 A 
ATOM     30  C   UNL     1       5.443   4.120  14.819  0.00  0.00    +0.000 A 
ATOM     31  C   UNL     1       6.784   4.479  14.719  0.00  0.00    +0.000 A 
ATOM     32  C   UNL     1       7.470   4.896  15.856  0.00  0.00    +0.000 A 
ATOM     33  C   UNL     1       6.819   4.933  17.094  0.00  0.00    +0.000 A 
ATOM     34 CL   UNL     1       7.742   5.501  18.445  0.00  0.00    +0.000 Cl
ENDBRANCH  27  28
ENDBRANCH   3  27
TORSDOF 8
ENDMDL
MODEL 2
REMARK VINA RESULT:      -9.2      0.895      3.140
REMARK  Name = 
REMARK  8 active torsions:
REMARK  status: ('A' for Active; 'I' for Inactive)
REMARK    1  A    between atoms: C_2  and  C_3
REMARK    2  A    between atoms: C_3  and  C_4
REMARK    3  A    between atoms: C_4  and  C_5
REMARK    4  A    between atoms: C_7  and  C_8
REMARK    5  A    between atoms: C_13  and  C_14
REMARK    6  A    between atoms: N_19  and  C_20
REMARK    7  A    between atoms: N_19  and  C_28
REMARK    8  A    between atoms: C_20  and  C_21
REMARK                            x       y       z     vdW  Elec       q    Type
REMARK                         _______ _______ _______ _____ _____    ______ ____
ROOT
ATOM      1  O   UNL     1       4.563   6.829  17.986  0.00  0.00    +0.000 OA
ATOM      2  C   UNL     1       3.504   6.198  17.930  0.00  0.00    +0.000 C 
ATOM      3  N   UNL     1       3.479   4.794  17.903  0.00  0.00    +0.000 N 
ENDROOT
BRANCH   3   4
ATOM      4  C   UNL     1       2.265   3.917  17.688  0.00  0.00    +0.000 C 
ATOM      5  C   UNL     1       1.192   3.915  18.804  0.00  0.00    +0.000 C 
ATOM      6  C   UNL     1       1.747   3.332  20.097  0.00  0.00    +0.000 C 
ATOM      7  N   UNL     1       2.118   1.929  19.911  0.00  0.00    +0.000 NA
ATOM      8  C   UNL     1       3.069   1.767  18.810  0.00  0.00    +0.000 C 
ATOM      9  C   UNL     1       2.585   2.410  17.498  0.00  0.00    +0.000 C 
ATOM     10  H   UNL     1       1.281   1.380  19.717  0.00  0.00    +0.000 HD
ENDBRANCH   3   4
BRANCH   2  11
ATOM     11  C   UNL     1       2.199   6.957  17.930  0.00  0.00    +0.000 C 
BRANCH  11  12
ATOM     12  C   UNL     1       2.388   8.472  17.866  0.00  0.00    +0.000 C 
BRANCH  12  13
ATOM     13  C   UNL     1       1.295   9.176  18.635  0.00  0.00    +0.000 A 
ATOM     14  C   UNL     1       1.232   9.080  20.032  0.00  0.00    +0.000 A 
ATOM     15  C   UNL     1       0.197   9.693  20.754  0.00  0.00    +0.000 A 
ATOM     16  C   UNL     1      -0.786  10.413  20.053  0.00  0.00    +0.000 A 
ATOM     17  C   UNL     1      -0.750  10.514  18.653  0.00  0.00    +0.000 A 
ATOM     18  C   UNL     1       0.296   9.890  17.956  0.00  0.00    +0.000 A 
BRANCH  15  19
ATOM     19  C   UNL     1       0.120   9.585  22.259  0.00  0.00    +0.000 C 
ATOM     20  F   UNL     1       1.284   9.179  22.838  0.00  0.00    +0.000 F 
ATOM     21  F   UNL     1      -0.202  10.767  22.850  0.00  0.00    +0.000 F 
ATOM     22  F   UNL     1      -0.828   8.693  22.662  0.00  0.00    +0.000 F 
ENDBRANCH  15  19
BRANCH  17  23
ATOM     23  C   UNL     1      -1.811  11.272  17.893  0.00  0.00    +0.000 C 
ATOM     24  F   UNL     1      -1.565  12.609  17.797  0.00  0.00    +0.000 F 
ATOM     25  F   UNL     1      -1.963  10.822  16.617  0.00  0.00    +0.000 F 
ATOM     26  F   UNL     1      -3.038  11.161  18.473  0.00  0.00    +0.000 F 
ENDBRANCH  17  23
ENDBRANCH  12  13
ENDBRANCH  11  12
ENDBRANCH   2  11
BRANCH   3  27
ATOM     27  C   UNL     1       4.831   4.190  17.804  0.00  0.00    +0.000 C 
BRANCH  27  28
ATOM     28  C   UNL     1       5.577   4.343  16.489  0.00  0.00    +0.000 A 
ATOM     29  C   UNL     1       4.995   4.036  15.247  0.00  0.00    +0.000 A 
ATOM     30  C   UNL     1       5.713   4.191  14.056  0.00  0.00    +0.000 A 
ATOM     31  C   UNL     1       7.021   4.666  14.078  0.00  0.00    +0.000 A 
ATOM     32  C   UNL     1       7.606   5.012  15.293  0.00  0.00    +0.000 A 
ATOM     33  C   UNL     1       6.889   4.861  16.484  0.00  0.00    +0.000 A 
ATOM     34 CL   UNL     1       7.685   5.352  17.943  0.00  0.00    +0.000 Cl
ENDBRANCH  27  28
ENDBRANCH   3  27
TORSDOF 8
ENDMDL
MODEL 3
REMARK VINA RESULT:      -9.1      0.575      3.065
REMARK  Name = 
REMARK  8 active torsions:
REMARK  status: ('A' for Active; 'I' for Inactive)
REMARK    1  A    between atoms: C_2  and  C_3
REMARK    2  A    between atoms: C_3  and  C_4
REMARK    3  A    between atoms: C_4  and  C_5
REMARK    4  A    between atoms: C_7  and  C_8
REMARK    5  A    between atoms: C_13  and  C_14
REMARK    6  A    between atoms: N_19  and  C_20
REMARK    7  A    between atoms: N_19  and  C_28
REMARK    8  A    between atoms: C_20  and  C_21
REMARK                            x       y       z     vdW  Elec       q    Type
REMARK                         _______ _______ _______ _____ _____    ______ ____
ROOT
ATOM      1  O   UNL     1       4.415   7.345  17.812  0.00  0.00    +0.000 OA
ATOM      2  C   UNL     1       3.396   6.692  18.055  0.00  0.00    +0.000 C 
ATOM      3  N   UNL     1       3.458   5.364  18.506  0.00  0.00    +0.000 N 
ENDROOT
BRANCH   3   4
ATOM      4  C   UNL     1       2.290   4.420  18.696  0.00  0.00    +0.000 C 
ATOM      5  C   UNL     1       1.463   4.576  19.996  0.00  0.00    +0.000 C 
ATOM      6  C   UNL     1       2.304   4.248  21.223  0.00  0.00    +0.000 C 
ATOM      7  N   UNL     1       2.728   2.849  21.196  0.00  0.00    +0.000 NA
ATOM      8  C   UNL     1       3.450   2.530  19.963  0.00  0.00    +0.000 C 
ATOM      9  C   UNL     1       2.671   2.916  18.694  0.00  0.00    +0.000 C 
ATOM     10  H   UNL     1       1.910   2.244  21.273  0.00  0.00    +0.000 HD
ENDBRANCH   3   4
BRANCH   2  11
ATOM     11  C   UNL     1       2.049   7.355  17.901  0.00  0.00    +0.000 C 
BRANCH  11  12
ATOM     12  C   UNL     1       2.129   8.882  17.905  0.00  0.00    +0.000 C 
BRANCH  12  13
ATOM     13  C   UNL     1       1.013   9.469  18.737  0.00  0.00    +0.000 A 
ATOM     14  C   UNL     1       1.027   9.348  20.133  0.00  0.00    +0.000 A 
ATOM     15  C   UNL     1      -0.024   9.852  20.914  0.00  0.00    +0.000 A 
ATOM     16  C   UNL     1      -1.103  10.484  20.273  0.00  0.00    +0.000 A 
ATOM     17  C   UNL     1      -1.145  10.607  18.875  0.00  0.00    +0.000 A 
ATOM     18  C   UNL     1      -0.079  10.094  18.118  0.00  0.00    +0.000 A 
BRANCH  15  19
ATOM     19  C   UNL     1      -0.018   9.717  22.419  0.00  0.00    +0.000 C 
ATOM     20  F   UNL     1      -0.302  10.877  23.073  0.00  0.00    +0.000 F 
ATOM     21  F   UNL     1      -0.923   8.803  22.863  0.00  0.00    +0.000 F 
ATOM     22  F   UNL     1       1.192   9.308  22.893  0.00  0.00    +0.000 F 
ENDBRANCH  15  19
BRANCH  17  23
ATOM     23  C   UNL     1      -2.307  11.271  18.178  0.00  0.00    +0.000 C 
ATOM     24  F   UNL     1      -3.284  10.401  17.796  0.00  0.00    +0.000 F 
ATOM     25  F   UNL     1      -2.917  12.209  18.953  0.00  0.00    +0.000 F 
ATOM     26  F   UNL     1      -1.925  11.920  17.044  0.00  0.00    +0.000 F 
ENDBRANCH  17  23
ENDBRANCH  12  13
ENDBRANCH  11  12
ENDBRANCH   2  11
BRANCH   3  27
ATOM     27  C   UNL     1       4.836   4.814  18.512  0.00  0.00    +0.000 C 
BRANCH  27  28
ATOM     28  C   UNL     1       5.545   4.674  17.176  0.00  0.00    +0.000 A 
ATOM     29  C   UNL     1       4.900   4.200  16.022  0.00  0.00    +0.000 A 
ATOM     30  C   UNL     1       5.585   4.085  14.807  0.00  0.00    +0.000 A 
ATOM     31  C   UNL     1       6.925   4.453  14.716  0.00  0.00    +0.000 A 
ATOM     32  C   UNL     1       7.575   4.961  15.837  0.00  0.00    +0.000 A 
ATOM     33  C   UNL     1       6.891   5.079  17.052  0.00  0.00    +0.000 A 
ATOM     34 CL   UNL     1       7.770   5.755  18.382  0.00  0.00    +0.000 Cl
ENDBRANCH  27  28
ENDBRANCH   3  27
TORSDOF 8
ENDMDL
MODEL 4
REMARK VINA RESULT:      -9.0      1.142      2.922
REMARK  Name = 
REMARK  8 active torsions:
REMARK  status: ('A' for Active; 'I' for Inactive)
REMARK    1  A    between atoms: C_2  and  C_3
REMARK    2  A    between atoms: C_3  and  C_4
REMARK    3  A    between atoms: C_4  and  C_5
REMARK    4  A    between atoms: C_7  and  C_8
REMARK    5  A    between atoms: C_13  and  C_14
REMARK    6  A    between atoms: N_19  and  C_20
REMARK    7  A    between atoms: N_19  and  C_28
REMARK    8  A    between atoms: C_20  and  C_21
REMARK                            x       y       z     vdW  Elec       q    Type
REMARK                         _______ _______ _______ _____ _____    ______ ____
ROOT
ATOM      1  O   UNL     1       4.421   7.299  17.825  0.00  0.00    +0.000 OA
ATOM      2  C   UNL     1       3.370   6.700  18.074  0.00  0.00    +0.000 C 
ATOM      3  N   UNL     1       3.365   5.368  18.518  0.00  0.00    +0.000 N 
ENDROOT
BRANCH   3   4
ATOM      4  C   UNL     1       2.150   4.486  18.713  0.00  0.00    +0.000 C 
ATOM      5  C   UNL     1       1.362   4.657  20.034  0.00  0.00    +0.000 C 
ATOM      6  C   UNL     1       2.209   4.253  21.234  0.00  0.00    +0.000 C 
ATOM      7  N   UNL     1       2.553   2.833  21.166  0.00  0.00    +0.000 NA
ATOM      8  C   UNL     1       3.229   2.505  19.911  0.00  0.00    +0.000 C 
ATOM      9  C   UNL     1       2.447   2.964  18.668  0.00  0.00    +0.000 C 
ATOM     10  H   UNL     1       1.704   2.274  21.248  0.00  0.00    +0.000 HD
ENDBRANCH   3   4
BRANCH   2  11
ATOM     11  C   UNL     1       2.059   7.434  17.933  0.00  0.00    +0.000 C 
BRANCH  11  12
ATOM     12  C   UNL     1       2.212   8.953  18.008  0.00  0.00    +0.000 C 
BRANCH  12  13
ATOM     13  C   UNL     1       0.938   9.590  18.510  0.00  0.00    +0.000 A 
ATOM     14  C   UNL     1       0.861  10.097  19.815  0.00  0.00    +0.000 A 
ATOM     15  C   UNL     1      -0.330  10.652  20.307  0.00  0.00    +0.000 A 
ATOM     16  C   UNL     1      -1.457  10.693  19.468  0.00  0.00    +0.000 A 
ATOM     17  C   UNL     1      -1.408  10.181  18.162  0.00  0.00    +0.000 A 
ATOM     18  C   UNL     1      -0.203   9.631  17.695  0.00  0.00    +0.000 A 
BRANCH  15  19
ATOM     19  C   UNL     1      -0.420  11.193  21.715  0.00  0.00    +0.000 C 
ATOM     20  F   UNL     1      -0.009  10.310  22.667  0.00  0.00    +0.000 F 
ATOM     21  F   UNL     1       0.332  12.313  21.891  0.00  0.00    +0.000 F 
ATOM     22  F   UNL     1      -1.694  11.539  22.052  0.00  0.00    +0.000 F 
ENDBRANCH  15  19
BRANCH  17  23
ATOM     23  C   UNL     1      -2.618  10.207  17.261  0.00  0.00    +0.000 C 
ATOM     24  F   UNL     1      -3.106  11.459  17.036  0.00  0.00    +0.000 F 
ATOM     25  F   UNL     1      -2.371   9.671  16.035  0.00  0.00    +0.000 F 
ATOM     26  F   UNL     1      -3.657   9.492  17.775  0.00  0.00    +0.000 F 
ENDBRANCH  17  23
ENDBRANCH  12  13
ENDBRANCH  11  12
ENDBRANCH   2  11
BRANCH   3  27
ATOM     27  C   UNL     1       4.712   4.746  18.511  0.00  0.00    +0.000 C 
BRANCH  27  28
ATOM     28  C   UNL     1       5.417   4.605  17.173  0.00  0.00    +0.000 A 
ATOM     29  C   UNL     1       4.756   4.177  16.010  0.00  0.00    +0.000 A 
ATOM     30  C   UNL     1       5.438   4.060  14.793  0.00  0.00    +0.000 A 
ATOM     31  C   UNL     1       6.791   4.381  14.709  0.00  0.00    +0.000 A 
ATOM     32  C   UNL     1       7.458   4.845  15.840  0.00  0.00    +0.000 A 
ATOM     33  C   UNL     1       6.777   4.964  17.056  0.00  0.00    +0.000 A 
ATOM     34 CL   UNL     1       7.679   5.584  18.399  0.00  0.00    +0.000 Cl
ENDBRANCH  27  28
ENDBRANCH   3  27
TORSDOF 8
ENDMDL
MODEL 5
REMARK VINA RESULT:      -8.9      0.821      3.250
REMARK  Name = 
REMARK  8 active torsions:
REMARK  status: ('A' for Active; 'I' for Inactive)
REMARK    1  A    between atoms: C_2  and  C_3
REMARK    2  A    between atoms: C_3  and  C_4
REMARK    3  A    between atoms: C_4  and  C_5
REMARK    4  A    between atoms: C_7  and  C_8
REMARK    5  A    between atoms: C_13  and  C_14
REMARK    6  A    between atoms: N_19  and  C_20
REMARK    7  A    between atoms: N_19  and  C_28
REMARK    8  A    between atoms: C_20  and  C_21
REMARK                            x       y       z     vdW  Elec       q    Type
REMARK                         _______ _______ _______ _____ _____    ______ ____
ROOT
ATOM      1  O   UNL     1       4.438   7.048  17.815  0.00  0.00    +0.000 OA
ATOM      2  C   UNL     1       3.498   6.430  18.325  0.00  0.00    +0.000 C 
ATOM      3  N   UNL     1       3.680   5.182  18.942  0.00  0.00    +0.000 N 
ENDROOT
BRANCH   3   4
ATOM      4  C   UNL     1       2.594   4.268  19.467  0.00  0.00    +0.000 C 
ATOM      5  C   UNL     1       3.047   3.031  20.278  0.00  0.00    +0.000 C 
ATOM      6  C   UNL     1       3.843   2.066  19.409  0.00  0.00    +0.000 C 
ATOM      7  N   UNL     1       3.009   1.539  18.329  0.00  0.00    +0.000 NA
ATOM      8  C   UNL     1       2.429   2.616  17.525  0.00  0.00    +0.000 C 
ATOM      9  C   UNL     1       1.679   3.661  18.370  0.00  0.00    +0.000 C 
ATOM     10  H   UNL     1       2.259   0.973  18.725  0.00  0.00    +0.000 HD
ENDBRANCH   3   4
BRANCH   2  11
ATOM     11  C   UNL     1       2.124   7.055  18.318  0.00  0.00    +0.000 C 
BRANCH  11  12
ATOM     12  C   UNL     1       2.133   8.519  17.879  0.00  0.00    +0.000 C 
BRANCH  12  13
ATOM     13  C   UNL     1       1.156   9.326  18.700  0.00  0.00    +0.000 A 
ATOM     14  C   UNL     1       1.051   9.124  20.084  0.00  0.00    +0.000 A 
ATOM     15  C   UNL     1       0.117   9.837  20.850  0.00  0.00    +0.000 A 
ATOM     16  C   UNL     1      -0.722  10.764  20.209  0.00  0.00    +0.000 A 
ATOM     17  C   UNL     1      -0.643  10.975  18.823  0.00  0.00    +0.000 A 
ATOM     18  C   UNL     1       0.300  10.248  18.080  0.00  0.00    +0.000 A 
BRANCH  15  19
ATOM     19  C   UNL     1      -0.005   9.617  22.340  0.00  0.00    +0.000 C 
ATOM     20  F   UNL     1      -0.874   8.624  22.677  0.00  0.00    +0.000 F 
ATOM     21  F   UNL     1       1.183   9.290  22.917  0.00  0.00    +0.000 F 
ATOM     22  F   UNL     1      -0.443  10.732  22.990  0.00  0.00    +0.000 F 
ENDBRANCH  15  19
BRANCH  17  23
ATOM     23  C   UNL     1      -1.551  11.958  18.125  0.00  0.00    +0.000 C 
ATOM     24  F   UNL     1      -2.070  11.487  16.956  0.00  0.00    +0.000 F 
ATOM     25  F   UNL     1      -2.615  12.324  18.890  0.00  0.00    +0.000 F 
ATOM     26  F   UNL     1      -0.909  13.115  17.805  0.00  0.00    +0.000 F 
ENDBRANCH  17  23
ENDBRANCH  12  13
ENDBRANCH  11  12
ENDBRANCH   2  11
BRANCH   3  27
ATOM     27  C   UNL     1       5.055   4.649  18.782  0.00  0.00    +0.000 C 
BRANCH  27  28
ATOM     28  C   UNL     1       5.632   4.593  17.377  0.00  0.00    +0.000 A 
ATOM     29  C   UNL     1       4.938   4.026  16.295  0.00  0.00    +0.000 A 
ATOM     30  C   UNL     1       5.501   3.994  15.014  0.00  0.00    +0.000 A 
ATOM     31  C   UNL     1       6.761   4.539  14.783  0.00  0.00    +0.000 A 
ATOM     32  C   UNL     1       7.451   5.141  15.832  0.00  0.00    +0.000 A 
ATOM     33  C   UNL     1       6.889   5.176  17.113  0.00  0.00    +0.000 A 
ATOM     34 CL   UNL     1       7.804   5.978  18.346  0.00  0.00    +0.000 Cl
ENDBRANCH  27  28
ENDBRANCH   3  27
TORSDOF 8
ENDMDL
MODEL 6
REMARK VINA RESULT:      -8.9      2.063      3.550
REMARK  Name = 
REMARK  8 active torsions:
REMARK  status: ('A' for Active; 'I' for Inactive)
REMARK    1  A    between atoms: C_2  and  C_3
REMARK    2  A    between atoms: C_3  and  C_4
REMARK    3  A    between atoms: C_4  and  C_5
REMARK    4  A    between atoms: C_7  and  C_8
REMARK    5  A    between atoms: C_13  and  C_14
REMARK    6  A    between atoms: N_19  and  C_20
REMARK    7  A    between atoms: N_19  and  C_28
REMARK    8  A    between atoms: C_20  and  C_21
REMARK                            x       y       z     vdW  Elec       q    Type
REMARK                         _______ _______ _______ _____ _____    ______ ____
ROOT
ATOM      1  O   UNL     1       2.694   7.497  18.561  0.00  0.00    +0.000 OA
ATOM      2  C   UNL     1       2.384   6.665  19.419  0.00  0.00    +0.000 C 
ATOM      3  N   UNL     1       2.958   5.384  19.450  0.00  0.00    +0.000 N 
ENDROOT
BRANCH   3   4
ATOM      4  C   UNL     1       2.557   4.238  20.353  0.00  0.00    +0.000 C 
ATOM      5  C   UNL     1       3.402   2.944  20.265  0.00  0.00    +0.000 C 
ATOM      6  C   UNL     1       3.269   2.294  18.894  0.00  0.00    +0.000 C 
ATOM      7  N   UNL     1       1.889   1.874  18.656  0.00  0.00    +0.000 NA
ATOM      8  C   UNL     1       0.955   2.992  18.801  0.00  0.00    +0.000 C 
ATOM      9  C   UNL     1       1.106   3.731  20.143  0.00  0.00    +0.000 C 
ATOM     10  H   UNL     1       1.639   1.139  19.317  0.00  0.00    +0.000 HD
ENDBRANCH   3   4
BRANCH   2  11
ATOM     11  C   UNL     1       1.390   7.053  20.487  0.00  0.00    +0.000 C 
BRANCH  11  12
ATOM     12  C   UNL     1       1.709   8.395  21.144  0.00  0.00    +0.000 C 
BRANCH  12  13
ATOM     13  C   UNL     1       0.650   9.417  20.805  0.00  0.00    +0.000 A 
ATOM     14  C   UNL     1       0.225  10.348  21.764  0.00  0.00    +0.000 A 
ATOM     15  C   UNL     1      -0.788  11.274  21.474  0.00  0.00    +0.000 A 
ATOM     16  C   UNL     1      -1.379  11.258  20.199  0.00  0.00    +0.000 A 
ATOM     17  C   UNL     1      -0.978  10.328  19.226  0.00  0.00    +0.000 A 
ATOM     18  C   UNL     1       0.038   9.412  19.543  0.00  0.00    +0.000 A 
BRANCH  15  19
ATOM     19  C   UNL     1      -1.255  12.273  22.507  0.00  0.00    +0.000 C 
ATOM     20  F   UNL     1      -0.359  13.270  22.748  0.00  0.00    +0.000 F 
ATOM     21  F   UNL     1      -2.415  12.888  22.149  0.00  0.00    +0.000 F 
ATOM     22  F   UNL     1      -1.496  11.690  23.715  0.00  0.00    +0.000 F 
ENDBRANCH  15  19
BRANCH  17  23
ATOM     23  C   UNL     1      -1.619  10.294  17.861  0.00  0.00    +0.000 C 
ATOM     24  F   UNL     1      -2.899   9.828  17.869  0.00  0.00    +0.000 F 
ATOM     25  F   UNL     1      -1.666  11.520  17.272  0.00  0.00    +0.000 F 
ATOM     26  F   UNL     1      -0.939   9.494  16.993  0.00  0.00    +0.000 F 
ENDBRANCH  17  23
ENDBRANCH  12  13
ENDBRANCH  11  12
ENDBRANCH   2  11
BRANCH   3  27
ATOM     27  C   UNL     1       3.836   5.111  18.286  0.00  0.00    +0.000 C 
BRANCH  27  28
ATOM     28  C   UNL     1       5.273   5.598  18.356  0.00  0.00    +0.000 A 
ATOM     29  C   UNL     1       6.141   5.250  19.405  0.00  0.00    +0.000 A 
ATOM     30  C   UNL     1       7.460   5.717  19.436  0.00  0.00    +0.000 A 
ATOM     31  C   UNL     1       7.945   6.529  18.414  0.00  0.00    +0.000 A 
ATOM     32  C   UNL     1       7.115   6.856  17.345  0.00  0.00    +0.000 A 
ATOM     33  C   UNL     1       5.797   6.388  17.311  0.00  0.00    +0.000 A 
ATOM     34 CL   UNL     1       4.852   6.816  15.924  0.00  0.00    +0.000 Cl
ENDBRANCH  27  28
ENDBRANCH   3  27
TORSDOF 8
ENDMDL
MODEL 7
REMARK VINA RESULT:      -8.9      1.084      3.122
REMARK  Name = 
REMARK  8 active torsions:
REMARK  status: ('A' for Active; 'I' for Inactive)
REMARK    1  A    between atoms: C_2  and  C_3
REMARK    2  A    between atoms: C_3  and  C_4
REMARK    3  A    between atoms: C_4  and  C_5
REMARK    4  A    between atoms: C_7  and  C_8
REMARK    5  A    between atoms: C_13  and  C_14
REMARK    6  A    between atoms: N_19  and  C_20
REMARK    7  A    between atoms: N_19  and  C_28
REMARK    8  A    between atoms: C_20  and  C_21
REMARK                            x       y       z     vdW  Elec       q    Type
REMARK                         _______ _______ _______ _____ _____    ______ ____
ROOT
ATOM      1  O   UNL     1       4.605   6.773  18.301  0.00  0.00    +0.000 OA
ATOM      2  C   UNL     1       3.536   6.168  18.181  0.00  0.00    +0.000 C 
ATOM      3  N   UNL     1       3.488   4.772  18.037  0.00  0.00    +0.000 N 
ENDROOT
BRANCH   3   4
ATOM      4  C   UNL     1       2.262   3.938  17.737  0.00  0.00    +0.000 C 
ATOM      5  C   UNL     1       1.107   3.988  18.766  0.00  0.00    +0.000 C 
ATOM      6  C   UNL     1       1.538   3.400  20.103  0.00  0.00    +0.000 C 
ATOM      7  N   UNL     1       1.869   1.983  19.958  0.00  0.00    +0.000 NA
ATOM      8  C   UNL     1       2.895   1.773  18.936  0.00  0.00    +0.000 C 
ATOM      9  C   UNL     1       2.539   2.419  17.585  0.00  0.00    +0.000 C 
ATOM     10  H   UNL     1       1.029   1.462  19.704  0.00  0.00    +0.000 HD
ENDBRANCH   3   4
BRANCH   2  11
ATOM     11  C   UNL     1       2.245   6.948  18.229  0.00  0.00    +0.000 C 
BRANCH  11  12
ATOM     12  C   UNL     1       2.389   8.378  17.708  0.00  0.00    +0.000 C 
BRANCH  12  13
ATOM     13  C   UNL     1       1.701   9.352  18.635  0.00  0.00    +0.000 A 
ATOM     14  C   UNL     1       1.159   8.916  19.853  0.00  0.00    +0.000 A 
ATOM     15  C   UNL     1       0.480   9.803  20.701  0.00  0.00    +0.000 A 
ATOM     16  C   UNL     1       0.347  11.147  20.313  0.00  0.00    +0.000 A 
ATOM     17  C   UNL     1       0.871  11.605  19.094  0.00  0.00    +0.000 A 
ATOM     18  C   UNL     1       1.546  10.696  18.263  0.00  0.00    +0.000 A 
BRANCH  15  19
ATOM     19  C   UNL     1      -0.113   9.335  22.010  0.00  0.00    +0.000 C 
ATOM     20  F   UNL     1      -0.766   8.144  21.921  0.00  0.00    +0.000 F 
ATOM     21  F   UNL     1       0.828   9.176  22.980  0.00  0.00    +0.000 F 
ATOM     22  F   UNL     1      -1.020  10.221  22.509  0.00  0.00    +0.000 F 
ENDBRANCH  15  19
BRANCH  17  23
ATOM     23  C   UNL     1       0.718  13.043  18.663  0.00  0.00    +0.000 C 
ATOM     24  F   UNL     1       1.737  13.489  17.876  0.00  0.00    +0.000 F 
ATOM     25  F   UNL     1      -0.426  13.261  17.961  0.00  0.00    +0.000 F 
ATOM     26  F   UNL     1       0.669  13.896  19.724  0.00  0.00    +0.000 F 
ENDBRANCH  17  23
ENDBRANCH  12  13
ENDBRANCH  11  12
ENDBRANCH   2  11
BRANCH   3  27
ATOM     27  C   UNL     1       4.830   4.154  17.904  0.00  0.00    +0.000 C 
BRANCH  27  28
ATOM     28  C   UNL     1       5.561   4.333  16.584  0.00  0.00    +0.000 A 
ATOM     29  C   UNL     1       4.941   4.129  15.340  0.00  0.00    +0.000 A 
ATOM     30  C   UNL     1       5.646   4.305  14.144  0.00  0.00    +0.000 A 
ATOM     31  C   UNL     1       6.981   4.701  14.164  0.00  0.00    +0.000 A 
ATOM     32  C   UNL     1       7.606   4.946  15.384  0.00  0.00    +0.000 A 
ATOM     33  C   UNL     1       6.902   4.773  16.580  0.00  0.00    +0.000 A 
ATOM     34 CL   UNL     1       7.750   5.136  18.046  0.00  0.00    +0.000 Cl
ENDBRANCH  27  28
ENDBRANCH   3  27
TORSDOF 8
ENDMDL
MODEL 8
REMARK VINA RESULT:      -8.9      2.068      2.770
REMARK  Name = 
REMARK  8 active torsions:
REMARK  status: ('A' for Active; 'I' for Inactive)
REMARK    1  A    between atoms: C_2  and  C_3
REMARK    2  A    between atoms: C_3  and  C_4
REMARK    3  A    between atoms: C_4  and  C_5
REMARK    4  A    between atoms: C_7  and  C_8
REMARK    5  A    between atoms: C_13  and  C_14
REMARK    6  A    between atoms: N_19  and  C_20
REMARK    7  A    between atoms: N_19  and  C_28
REMARK    8  A    between atoms: C_20  and  C_21
REMARK                            x       y       z     vdW  Elec       q    Type
REMARK                         _______ _______ _______ _____ _____    ______ ____
ROOT
ATOM      1  O   UNL     1       2.692   7.486  18.543  0.00  0.00    +0.000 OA
ATOM      2  C   UNL     1       2.392   6.658  19.408  0.00  0.00    +0.000 C 
ATOM      3  N   UNL     1       2.979   5.383  19.449  0.00  0.00    +0.000 N 
ENDROOT
BRANCH   3   4
ATOM      4  C   UNL     1       2.591   4.240  20.361  0.00  0.00    +0.000 C 
ATOM      5  C   UNL     1       3.418   2.937  20.247  0.00  0.00    +0.000 C 
ATOM      6  C   UNL     1       3.238   2.291  18.879  0.00  0.00    +0.000 C 
ATOM      7  N   UNL     1       1.846   1.887  18.681  0.00  0.00    +0.000 NA
ATOM      8  C   UNL     1       0.930   3.016  18.855  0.00  0.00    +0.000 C 
ATOM      9  C   UNL     1       1.128   3.750  20.193  0.00  0.00    +0.000 C 
ATOM     10  H   UNL     1       1.607   1.154  19.348  0.00  0.00    +0.000 HD
ENDBRANCH   3   4
BRANCH   2  11
ATOM     11  C   UNL     1       1.395   7.044  20.474  0.00  0.00    +0.000 C 
BRANCH  11  12
ATOM     12  C   UNL     1       1.691   8.403  21.107  0.00  0.00    +0.000 C 
BRANCH  12  13
ATOM     13  C   UNL     1       0.597   9.391  20.779  0.00  0.00    +0.000 A 
ATOM     14  C   UNL     1      -0.012   9.386  19.516  0.00  0.00    +0.000 A 
ATOM     15  C   UNL     1      -0.999  10.326  19.185  0.00  0.00    +0.000 A 
ATOM     16  C   UNL     1      -1.375  11.283  20.143  0.00  0.00    +0.000 A 
ATOM     17  C   UNL     1      -0.772  11.314  21.411  0.00  0.00    +0.000 A 
ATOM     18  C   UNL     1       0.214  10.362  21.716  0.00  0.00    +0.000 A 
BRANCH  15  19
ATOM     19  C   UNL     1      -1.652  10.330  17.822  0.00  0.00    +0.000 C 
ATOM     20  F   UNL     1      -2.957   9.943  17.840  0.00  0.00    +0.000 F 
ATOM     21  F   UNL     1      -1.632  11.560  17.239  0.00  0.00    +0.000 F 
ATOM     22  F   UNL     1      -1.026   9.491  16.949  0.00  0.00    +0.000 F 
ENDBRANCH  15  19
BRANCH  17  23
ATOM     23  C   UNL     1      -1.158  12.349  22.439  0.00  0.00    +0.000 C 
ATOM     24  F   UNL     1      -1.351  11.834  23.686  0.00  0.00    +0.000 F 
ATOM     25  F   UNL     1      -0.224  13.329  22.574  0.00  0.00    +0.000 F 
ATOM     26  F   UNL     1      -2.318  12.986  22.118  0.00  0.00    +0.000 F 
ENDBRANCH  17  23
ENDBRANCH  12  13
ENDBRANCH  11  12
ENDBRANCH   2  11
BRANCH   3  27
ATOM     27  C   UNL     1       3.858   5.110  18.285  0.00  0.00    +0.000 C 
BRANCH  27  28
ATOM     28  C   UNL     1       5.291   5.607  18.351  0.00  0.00    +0.000 A 
ATOM     29  C   UNL     1       6.168   5.256  19.392  0.00  0.00    +0.000 A 
ATOM     30  C   UNL     1       7.484   5.733  19.419  0.00  0.00    +0.000 A 
ATOM     31  C   UNL     1       7.956   6.559  18.402  0.00  0.00    +0.000 A 
ATOM     32  C   UNL     1       7.117   6.890  17.341  0.00  0.00    +0.000 A 
ATOM     33  C   UNL     1       5.803   6.412  17.311  0.00  0.00    +0.000 A 
ATOM     34 CL   UNL     1       4.846   6.845  15.934  0.00  0.00    +0.000 Cl
ENDBRANCH  27  28
ENDBRANCH   3  27
TORSDOF 8
ENDMDL
MODEL 9
REMARK VINA RESULT:      -8.7      5.124      8.681
REMARK  Name = 
REMARK  8 active torsions:
REMARK  status: ('A' for Active; 'I' for Inactive)
REMARK    1  A    between atoms: C_2  and  C_3
REMARK    2  A    between atoms: C_3  and  C_4
REMARK    3  A    between atoms: C_4  and  C_5
REMARK    4  A    between atoms: C_7  and  C_8
REMARK    5  A    between atoms: C_13  and  C_14
REMARK    6  A    between atoms: N_19  and  C_20
REMARK    7  A    between atoms: N_19  and  C_28
REMARK    8  A    between atoms: C_20  and  C_21
REMARK                            x       y       z     vdW  Elec       q    Type
REMARK                         _______ _______ _______ _____ _____    ______ ____
ROOT
ATOM      1  O   UNL     1       1.843  10.037  17.678  0.00  0.00    +0.000 OA
ATOM      2  C   UNL     1       1.543   9.198  18.532  0.00  0.00    +0.000 C 
ATOM      3  N   UNL     1       0.434   9.364  19.377  0.00  0.00    +0.000 N 
ENDROOT
BRANCH   3   4
ATOM      4  C   UNL     1       0.053   8.487  20.550  0.00  0.00    +0.000 C 
ATOM      5  C   UNL     1      -0.965   9.067  21.561  0.00  0.00    +0.000 C 
ATOM      6  C   UNL     1      -0.391  10.282  22.280  0.00  0.00    +0.000 C 
ATOM      7  N   UNL     1       0.776   9.904  23.076  0.00  0.00    +0.000 NA
ATOM      8  C   UNL     1       1.796   9.249  22.255  0.00  0.00    +0.000 C 
ATOM      9  C   UNL     1       1.245   8.061  21.447  0.00  0.00    +0.000 C 
ATOM     10  H   UNL     1       0.488   9.272  23.823  0.00  0.00    +0.000 HD
ENDBRANCH   3   4
BRANCH   2  11
ATOM     11  C   UNL     1       2.371   7.941  18.644  0.00  0.00    +0.000 C 
BRANCH  11  12
ATOM     12  C   UNL     1       3.453   7.839  17.569  0.00  0.00    +0.000 C 
BRANCH  12  13
ATOM     13  C   UNL     1       3.835   6.396  17.335  0.00  0.00    +0.000 A 
ATOM     14  C   UNL     1       4.947   6.072  16.546  0.00  0.00    +0.000 A 
ATOM     15  C   UNL     1       5.286   4.736  16.286  0.00  0.00    +0.000 A 
ATOM     16  C   UNL     1       4.488   3.715  16.831  0.00  0.00    +0.000 A 
ATOM     17  C   UNL     1       3.363   4.015  17.615  0.00  0.00    +0.000 A 
ATOM     18  C   UNL     1       3.046   5.361  17.859  0.00  0.00    +0.000 A 
BRANCH  15  19
ATOM     19  C   UNL     1       6.479   4.382  15.429  0.00  0.00    +0.000 C 
ATOM     20  F   UNL     1       6.288   3.277  14.656  0.00  0.00    +0.000 F 
ATOM     21  F   UNL     1       6.822   5.384  14.576  0.00  0.00    +0.000 F 
ATOM     22  F   UNL     1       7.590   4.127  16.176  0.00  0.00    +0.000 F 
ENDBRANCH  15  19
BRANCH  17  23
ATOM     23  C   UNL     1       2.493   2.924  18.191  0.00  0.00    +0.000 C 
ATOM     24  F   UNL     1       2.267   1.893  17.329  0.00  0.00    +0.000 F 
ATOM     25  F   UNL     1       3.021   2.369  19.315  0.00  0.00    +0.000 F 
ATOM     26  F   UNL     1       1.262   3.384  18.549  0.00  0.00    +0.000 F 
ENDBRANCH  17  23
ENDBRANCH  12  13
ENDBRANCH  11  12
ENDBRANCH   2  11
BRANCH   3  27
ATOM     27  C   UNL     1      -0.221  10.687  19.224  0.00  0.00    +0.000 C 
BRANCH  27  28
ATOM     28  C   UNL     1      -1.489  10.754  18.389  0.00  0.00    +0.000 A 
ATOM     29  C   UNL     1      -1.680   9.973  17.237  0.00  0.00    +0.000 A 
ATOM     30  C   UNL     1      -2.863  10.061  16.493  0.00  0.00    +0.000 A 
ATOM     31  C   UNL     1      -3.884  10.919  16.892  0.00  0.00    +0.000 A 
ATOM     32  C   UNL     1      -3.733  11.675  18.051  0.00  0.00    +0.000 A 
ATOM     33  C   UNL     1      -2.552  11.586  18.797  0.00  0.00    +0.000 A 
ATOM     34 CL   UNL     1      -2.469  12.536  20.244  0.00  0.00    +0.000 Cl
ENDBRANCH  27  28
ENDBRANCH   3  27
TORSDOF 8
ENDMDL
