MODEL 1
REMARK VINA RESULT:      -7.6      0.000      0.000
REMARK  Name = 
REMARK  6 active torsions:
REMARK  status: ('A' for Active; 'I' for Inactive)
REMARK    1  A    between atoms: C_1  and  C_2
REMARK    2  A    between atoms: C_2  and  N_3
REMARK    3  A    between atoms: C_7  and  C_8
REMARK    4  A    between atoms: C_8  and  C_9
REMARK    5  A    between atoms: C_9  and  C_10
REMARK    6  A    between atoms: N_20  and  C_21
REMARK                            x       y       z     vdW  Elec       q    Type
REMARK                         _______ _______ _______ _____ _____    ______ ____
ROOT
ATOM      1  N   UNL     1      -0.988  10.841  19.138  0.00  0.00    +0.000 N 
ATOM      2  C   UNL     1       0.071   9.920  19.001  0.00  0.00    +0.000 A 
ATOM      3  N   UNL     1       0.850   9.899  17.884  0.00  0.00    +0.000 NA
ATOM      4  C   UNL     1       1.884   9.015  17.822  0.00  0.00    +0.000 A 
ATOM      5  C   UNL     1       2.196   8.098  18.815  0.00  0.00    +0.000 A 
ATOM      6  C   UNL     1       1.351   8.085  19.918  0.00  0.00    +0.000 A 
ATOM      7  C   UNL     1       0.311   9.010  20.015  0.00  0.00    +0.000 A 
ATOM      8  C   UNL     1      -0.460   9.020  21.249  0.00  0.00    +0.000 C 
ATOM      9  O   UNL     1      -0.873   7.944  21.679  0.00  0.00    +0.000 OA
ATOM     10  N   UNL     1      -0.379  10.181  22.011  0.00  0.00    +0.000 N 
ATOM     11  C   UNL     1      -0.073   9.967  23.413  0.00  0.00    +0.000 C 
ATOM     12  C   UNL     1      -0.595  11.517  21.501  0.00  0.00    +0.000 A 
ATOM     13  C   UNL     1      -0.549  12.592  22.414  0.00  0.00    +0.000 A 
ATOM     14  C   UNL     1      -0.848  13.890  22.023  0.00  0.00    +0.000 A 
ATOM     15  C   UNL     1      -1.201  14.095  20.710  0.00  0.00    +0.000 A 
ATOM     16  N   UNL     1      -1.260  13.106  19.797  0.00  0.00    +0.000 NA
ATOM     17  C   UNL     1      -0.952  11.825  20.161  0.00  0.00    +0.000 A 
ENDROOT
BRANCH   1  19
ATOM     18  C   UNL     1      -2.576  10.275  17.322  0.00  0.00    +0.000 C 
ATOM     19  C   UNL     1      -1.569  11.294  17.861  0.00  0.00    +0.000 C 
ENDBRANCH   1  19
BRANCH   5  20
ATOM     20  C   UNL     1       3.325   7.099  18.751  0.00  0.00    +0.000 C 
BRANCH  20  21
ATOM     21  C   UNL     1       2.997   5.771  18.060  0.00  0.00    +0.000 C 
BRANCH  21  22
ATOM     22  C   UNL     1       2.375   4.784  19.021  0.00  0.00    +0.000 A 
ATOM     23  C   UNL     1       1.440   3.847  18.560  0.00  0.00    +0.000 A 
ATOM     24  C   UNL     1       0.863   2.930  19.441  0.00  0.00    +0.000 A 
ATOM     25  C   UNL     1       1.209   2.947  20.791  0.00  0.00    +0.000 A 
ATOM     26  C   UNL     1       2.125   3.884  21.263  0.00  0.00    +0.000 A 
ATOM     27  C   UNL     1       2.704   4.803  20.383  0.00  0.00    +0.000 A 
ENDBRANCH  21  22
ENDBRANCH  20  21
ENDBRANCH   5  20
TORSDOF 4
ENDMDL
MODEL 2
REMARK VINA RESULT:      -7.3      0.527      1.052
REMARK  Name = 
REMARK  6 active torsions:
REMARK  status: ('A' for Active; 'I' for Inactive)
REMARK    1  A    between atoms: C_1  and  C_2
REMARK    2  A    between atoms: C_2  and  N_3
REMARK    3  A    between atoms: C_7  and  C_8
REMARK    4  A    between atoms: C_8  and  C_9
REMARK    5  A    between atoms: C_9  and  C_10
REMARK    6  A    between atoms: N_20  and  C_21
REMARK                            x       y       z     vdW  Elec       q    Type
REMARK                         _______ _______ _______ _____ _____    ______ ____
ROOT
ATOM      1  N   UNL     1      -1.017  10.722  19.168  0.00  0.00    +0.000 N 
ATOM      2  C   UNL     1       0.058   9.824  19.005  0.00  0.00    +0.000 A 
ATOM      3  N   UNL     1       0.808   9.819  17.869  0.00  0.00    +0.000 NA
ATOM      4  C   UNL     1       1.860   8.958  17.782  0.00  0.00    +0.000 A 
ATOM      5  C   UNL     1       2.218   8.051  18.768  0.00  0.00    +0.000 A 
ATOM      6  C   UNL     1       1.402   8.021  19.892  0.00  0.00    +0.000 A 
ATOM      7  C   UNL     1       0.345   8.923  20.014  0.00  0.00    +0.000 A 
ATOM      8  C   UNL     1      -0.395   8.917  21.267  0.00  0.00    +0.000 C 
ATOM      9  O   UNL     1      -0.772   7.833  21.709  0.00  0.00    +0.000 OA
ATOM     10  N   UNL     1      -0.321  10.081  22.026  0.00  0.00    +0.000 N 
ATOM     11  C   UNL     1       0.025   9.877  23.420  0.00  0.00    +0.000 C 
ATOM     12  C   UNL     1      -0.581  11.411  21.519  0.00  0.00    +0.000 A 
ATOM     13  C   UNL     1      -0.536  12.489  22.430  0.00  0.00    +0.000 A 
ATOM     14  C   UNL     1      -0.874  13.779  22.044  0.00  0.00    +0.000 A 
ATOM     15  C   UNL     1      -1.265  13.973  20.740  0.00  0.00    +0.000 A 
ATOM     16  N   UNL     1      -1.325  12.981  19.831  0.00  0.00    +0.000 NA
ATOM     17  C   UNL     1      -0.979  11.708  20.188  0.00  0.00    +0.000 A 
ENDROOT
BRANCH   1  19
ATOM     18  C   UNL     1      -2.858  10.295  17.565  0.00  0.00    +0.000 C 
ATOM     19  C   UNL     1      -1.642  11.159  17.906  0.00  0.00    +0.000 C 
ENDBRANCH   1  19
BRANCH   5  20
ATOM     20  C   UNL     1       3.368   7.078  18.676  0.00  0.00    +0.000 C 
BRANCH  20  21
ATOM     21  C   UNL     1       3.409   5.995  19.759  0.00  0.00    +0.000 C 
BRANCH  21  22
ATOM     22  C   UNL     1       2.540   4.813  19.395  0.00  0.00    +0.000 A 
ATOM     23  C   UNL     1       1.642   4.283  20.332  0.00  0.00    +0.000 A 
ATOM     24  C   UNL     1       0.834   3.194  20.002  0.00  0.00    +0.000 A 
ATOM     25  C   UNL     1       0.922   2.618  18.737  0.00  0.00    +0.000 A 
ATOM     26  C   UNL     1       1.822   3.125  17.802  0.00  0.00    +0.000 A 
ATOM     27  C   UNL     1       2.632   4.217  18.130  0.00  0.00    +0.000 A 
ENDBRANCH  21  22
ENDBRANCH  20  21
ENDBRANCH   5  20
TORSDOF 4
ENDMDL
MODEL 3
REMARK VINA RESULT:      -7.3      1.023      1.317
REMARK  Name = 
REMARK  6 active torsions:
REMARK  status: ('A' for Active; 'I' for Inactive)
REMARK    1  A    between atoms: C_1  and  C_2
REMARK    2  A    between atoms: C_2  and  N_3
REMARK    3  A    between atoms: C_7  and  C_8
REMARK    4  A    between atoms: C_8  and  C_9
REMARK    5  A    between atoms: C_9  and  C_10
REMARK    6  A    between atoms: N_20  and  C_21
REMARK                            x       y       z     vdW  Elec       q    Type
REMARK                         _______ _______ _______ _____ _____    ______ ____
ROOT
ATOM      1  N   UNL     1      -0.956  10.739  19.134  0.00  0.00    +0.000 N 
ATOM      2  C   UNL     1       0.130   9.849  19.012  0.00  0.00    +0.000 A 
ATOM      3  N   UNL     1       0.922   9.846  17.904  0.00  0.00    +0.000 NA
ATOM      4  C   UNL     1       1.982   8.992  17.858  0.00  0.00    +0.000 A 
ATOM      5  C   UNL     1       2.310   8.090  18.859  0.00  0.00    +0.000 A 
ATOM      6  C   UNL     1       1.454   8.057  19.952  0.00  0.00    +0.000 A 
ATOM      7  C   UNL     1       0.386   8.952  20.034  0.00  0.00    +0.000 A 
ATOM      8  C   UNL     1      -0.398   8.944  21.259  0.00  0.00    +0.000 C 
ATOM      9  O   UNL     1      -0.784   7.858  21.690  0.00  0.00    +0.000 OA
ATOM     10  N   UNL     1      -0.360  10.110  22.017  0.00  0.00    +0.000 N 
ATOM     11  C   UNL     1      -0.064   9.912  23.423  0.00  0.00    +0.000 C 
ATOM     12  C   UNL     1      -0.610  11.436  21.497  0.00  0.00    +0.000 A 
ATOM     13  C   UNL     1      -0.606  12.517  22.406  0.00  0.00    +0.000 A 
ATOM     14  C   UNL     1      -0.939  13.803  22.005  0.00  0.00    +0.000 A 
ATOM     15  C   UNL     1      -1.283  13.992  20.687  0.00  0.00    +0.000 A 
ATOM     16  N   UNL     1      -1.303  12.998  19.778  0.00  0.00    +0.000 NA
ATOM     17  C   UNL     1      -0.962  11.728  20.152  0.00  0.00    +0.000 A 
ENDROOT
BRANCH   1  19
ATOM     18  C   UNL     1      -2.502  10.114  17.300  0.00  0.00    +0.000 C 
ATOM     19  C   UNL     1      -1.537  11.169  17.848  0.00  0.00    +0.000 C 
ENDBRANCH   1  19
BRANCH   5  20
ATOM     20  C   UNL     1       3.469   7.125  18.812  0.00  0.00    +0.000 C 
BRANCH  20  21
ATOM     21  C   UNL     1       3.591   6.297  17.528  0.00  0.00    +0.000 C 
BRANCH  21  22
ATOM     22  C   UNL     1       3.127   4.874  17.739  0.00  0.00    +0.000 A 
ATOM     23  C   UNL     1       4.037   3.813  17.630  0.00  0.00    +0.000 A 
ATOM     24  C   UNL     1       3.616   2.496  17.827  0.00  0.00    +0.000 A 
ATOM     25  C   UNL     1       2.282   2.227  18.126  0.00  0.00    +0.000 A 
ATOM     26  C   UNL     1       1.366   3.272  18.221  0.00  0.00    +0.000 A 
ATOM     27  C   UNL     1       1.785   4.591  18.025  0.00  0.00    +0.000 A 
ENDBRANCH  21  22
ENDBRANCH  20  21
ENDBRANCH   5  20
TORSDOF 4
ENDMDL
MODEL 4
REMARK VINA RESULT:      -7.2      1.845      3.466
REMARK  Name = 
REMARK  6 active torsions:
REMARK  status: ('A' for Active; 'I' for Inactive)
REMARK    1  A    between atoms: C_1  and  C_2
REMARK    2  A    between atoms: C_2  and  N_3
REMARK    3  A    between atoms: C_7  and  C_8
REMARK    4  A    between atoms: C_8  and  C_9
REMARK    5  A    between atoms: C_9  and  C_10
REMARK    6  A    between atoms: N_20  and  C_21
REMARK                            x       y       z     vdW  Elec       q    Type
REMARK                         _______ _______ _______ _____ _____    ______ ____
ROOT
ATOM      1  N   UNL     1      -0.715  12.331  21.043  0.00  0.00    +0.000 N 
ATOM      2  C   UNL     1      -0.099  11.064  21.112  0.00  0.00    +0.000 A 
ATOM      3  N   UNL     1       0.274  10.523  22.305  0.00  0.00    +0.000 NA
ATOM      4  C   UNL     1       0.828   9.279  22.316  0.00  0.00    +0.000 A 
ATOM      5  C   UNL     1       1.071   8.516  21.184  0.00  0.00    +0.000 A 
ATOM      6  C   UNL     1       0.749   9.109  19.970  0.00  0.00    +0.000 A 
ATOM      7  C   UNL     1       0.144  10.366  19.943  0.00  0.00    +0.000 A 
ATOM      8  C   UNL     1      -0.276  10.877  18.647  0.00  0.00    +0.000 C 
ATOM      9  O   UNL     1       0.530  10.827  17.719  0.00  0.00    +0.000 OA
ATOM     10  N   UNL     1      -1.645  11.061  18.477  0.00  0.00    +0.000 N 
ATOM     11  C   UNL     1      -2.193  10.470  17.271  0.00  0.00    +0.000 C 
ATOM     12  C   UNL     1      -2.494  11.795  19.388  0.00  0.00    +0.000 A 
ATOM     13  C   UNL     1      -3.854  11.958  19.043  0.00  0.00    +0.000 A 
ATOM     14  C   UNL     1      -4.709  12.735  19.811  0.00  0.00    +0.000 A 
ATOM     15  C   UNL     1      -4.185  13.352  20.923  0.00  0.00    +0.000 A 
ATOM     16  N   UNL     1      -2.897  13.231  21.298  0.00  0.00    +0.000 NA
ATOM     17  C   UNL     1      -2.045  12.455  20.563  0.00  0.00    +0.000 A 
ENDROOT
BRANCH   1  19
ATOM     18  C   UNL     1       0.662  14.280  21.713  0.00  0.00    +0.000 C 
ATOM     19  C   UNL     1      -0.369  13.237  22.154  0.00  0.00    +0.000 C 
ENDBRANCH   1  19
BRANCH   5  20
ATOM     20  C   UNL     1       1.703   7.146  21.180  0.00  0.00    +0.000 C 
BRANCH  20  21
ATOM     21  C   UNL     1       2.346   6.715  19.858  0.00  0.00    +0.000 C 
BRANCH  21  22
ATOM     22  C   UNL     1       1.926   5.316  19.466  0.00  0.00    +0.000 A 
ATOM     23  C   UNL     1       2.165   4.847  18.167  0.00  0.00    +0.000 A 
ATOM     24  C   UNL     1       1.784   3.556  17.799  0.00  0.00    +0.000 A 
ATOM     25  C   UNL     1       1.153   2.724  18.722  0.00  0.00    +0.000 A 
ATOM     26  C   UNL     1       0.896   3.185  20.012  0.00  0.00    +0.000 A 
ATOM     27  C   UNL     1       1.277   4.478  20.382  0.00  0.00    +0.000 A 
ENDBRANCH  21  22
ENDBRANCH  20  21
ENDBRANCH   5  20
TORSDOF 4
ENDMDL
MODEL 5
REMARK VINA RESULT:      -7.1      2.202      4.087
REMARK  Name = 
REMARK  6 active torsions:
REMARK  status: ('A' for Active; 'I' for Inactive)
REMARK    1  A    between atoms: C_1  and  C_2
REMARK    2  A    between atoms: C_2  and  N_3
REMARK    3  A    between atoms: C_7  and  C_8
REMARK    4  A    between atoms: C_8  and  C_9
REMARK    5  A    between atoms: C_9  and  C_10
REMARK    6  A    between atoms: N_20  and  C_21
REMARK                            x       y       z     vdW  Elec       q    Type
REMARK                         _______ _______ _______ _____ _____    ______ ____
ROOT
ATOM      1  N   UNL     1      -1.500  13.093  21.917  0.00  0.00    +0.000 N 
ATOM      2  C   UNL     1      -0.953  11.794  21.861  0.00  0.00    +0.000 A 
ATOM      3  N   UNL     1      -0.522  11.159  22.985  0.00  0.00    +0.000 NA
ATOM      4  C   UNL     1      -0.040   9.890  22.877  0.00  0.00    +0.000 A 
ATOM      5  C   UNL     1       0.073   9.189  21.685  0.00  0.00    +0.000 A 
ATOM      6  C   UNL     1      -0.307   9.876  20.539  0.00  0.00    +0.000 A 
ATOM      7  C   UNL     1      -0.840  11.161  20.636  0.00  0.00    +0.000 A 
ATOM      8  C   UNL     1      -1.328  11.775  19.410  0.00  0.00    +0.000 C 
ATOM      9  O   UNL     1      -0.600  11.744  18.420  0.00  0.00    +0.000 OA
ATOM     10  N   UNL     1      -2.693  12.041  19.361  0.00  0.00    +0.000 N 
ATOM     11  C   UNL     1      -3.364  11.558  18.169  0.00  0.00    +0.000 C 
ATOM     12  C   UNL     1      -3.428  12.757  20.380  0.00  0.00    +0.000 A 
ATOM     13  C   UNL     1      -4.798  13.012  20.155  0.00  0.00    +0.000 A 
ATOM     14  C   UNL     1      -5.547  13.782  21.035  0.00  0.00    +0.000 A 
ATOM     15  C   UNL     1      -4.906  14.298  22.136  0.00  0.00    +0.000 A 
ATOM     16  N   UNL     1      -3.602  14.086  22.399  0.00  0.00    +0.000 NA
ATOM     17  C   UNL     1      -2.854  13.316  21.553  0.00  0.00    +0.000 A 
ENDROOT
BRANCH   1  19
ATOM     18  C   UNL     1       0.004  14.946  22.585  0.00  0.00    +0.000 C 
ATOM     19  C   UNL     1      -1.020  13.906  23.049  0.00  0.00    +0.000 C 
ENDBRANCH   1  19
BRANCH   5  20
ATOM     20  C   UNL     1       0.624   7.791  21.549  0.00  0.00    +0.000 C 
BRANCH  20  21
ATOM     21  C   UNL     1       1.859   7.649  20.653  0.00  0.00    +0.000 C 
BRANCH  21  22
ATOM     22  C   UNL     1       1.890   6.307  19.959  0.00  0.00    +0.000 A 
ATOM     23  C   UNL     1       1.531   5.145  20.656  0.00  0.00    +0.000 A 
ATOM     24  C   UNL     1       1.554   3.902  20.020  0.00  0.00    +0.000 A 
ATOM     25  C   UNL     1       1.944   3.808  18.687  0.00  0.00    +0.000 A 
ATOM     26  C   UNL     1       2.320   4.953  17.988  0.00  0.00    +0.000 A 
ATOM     27  C   UNL     1       2.297   6.199  18.622  0.00  0.00    +0.000 A 
ENDBRANCH  21  22
ENDBRANCH  20  21
ENDBRANCH   5  20
TORSDOF 4
ENDMDL
MODEL 6
REMARK VINA RESULT:      -7.1      2.291      4.073
REMARK  Name = 
REMARK  6 active torsions:
REMARK  status: ('A' for Active; 'I' for Inactive)
REMARK    1  A    between atoms: C_1  and  C_2
REMARK    2  A    between atoms: C_2  and  N_3
REMARK    3  A    between atoms: C_7  and  C_8
REMARK    4  A    between atoms: C_8  and  C_9
REMARK    5  A    between atoms: C_9  and  C_10
REMARK    6  A    between atoms: N_20  and  C_21
REMARK                            x       y       z     vdW  Elec       q    Type
REMARK                         _______ _______ _______ _____ _____    ______ ____
ROOT
ATOM      1  N   UNL     1      -1.919  12.560  22.066  0.00  0.00    +0.000 N 
ATOM      2  C   UNL     1      -1.037  11.464  21.974  0.00  0.00    +0.000 A 
ATOM      3  N   UNL     1      -0.781  10.671  23.051  0.00  0.00    +0.000 NA
ATOM      4  C   UNL     1       0.048   9.601  22.895  0.00  0.00    +0.000 A 
ATOM      5  C   UNL     1       0.683   9.264  21.709  0.00  0.00    +0.000 A 
ATOM      6  C   UNL     1       0.465  10.122  20.638  0.00  0.00    +0.000 A 
ATOM      7  C   UNL     1      -0.411  11.199  20.769  0.00  0.00    +0.000 A 
ATOM      8  C   UNL     1      -0.686  11.985  19.576  0.00  0.00    +0.000 C 
ATOM      9  O   UNL     1       0.271  12.359  18.899  0.00  0.00    +0.000 OA
ATOM     10  N   UNL     1      -1.999  11.960  19.117  0.00  0.00    +0.000 N 
ATOM     11  C   UNL     1      -2.144  11.664  17.704  0.00  0.00    +0.000 C 
ATOM     12  C   UNL     1      -3.162  12.225  19.936  0.00  0.00    +0.000 A 
ATOM     13  C   UNL     1      -4.427  12.233  19.310  0.00  0.00    +0.000 A 
ATOM     14  C   UNL     1      -5.578  12.580  20.004  0.00  0.00    +0.000 A 
ATOM     15  C   UNL     1      -5.444  12.925  21.328  0.00  0.00    +0.000 A 
ATOM     16  N   UNL     1      -4.262  12.933  21.975  0.00  0.00    +0.000 NA
ATOM     17  C   UNL     1      -3.121  12.578  21.311  0.00  0.00    +0.000 A 
ENDROOT
BRANCH   1  19
ATOM     18  C   UNL     1      -1.141  14.388  23.549  0.00  0.00    +0.000 C 
ATOM     19  C   UNL     1      -2.025  13.144  23.416  0.00  0.00    +0.000 C 
ENDBRANCH   1  19
BRANCH   5  20
ATOM     20  C   UNL     1       1.619   8.095  21.527  0.00  0.00    +0.000 C 
BRANCH  20  21
ATOM     21  C   UNL     1       1.800   7.606  20.086  0.00  0.00    +0.000 C 
BRANCH  21  22
ATOM     22  C   UNL     1       2.273   6.172  20.041  0.00  0.00    +0.000 A 
ATOM     23  C   UNL     1       3.486   5.850  19.416  0.00  0.00    +0.000 A 
ATOM     24  C   UNL     1       3.931   4.527  19.374  0.00  0.00    +0.000 A 
ATOM     25  C   UNL     1       3.166   3.514  19.946  0.00  0.00    +0.000 A 
ATOM     26  C   UNL     1       1.950   3.820  20.556  0.00  0.00    +0.000 A 
ATOM     27  C   UNL     1       1.503   5.143  20.600  0.00  0.00    +0.000 A 
ENDBRANCH  21  22
ENDBRANCH  20  21
ENDBRANCH   5  20
TORSDOF 4
ENDMDL
MODEL 7
REMARK VINA RESULT:      -7.0      2.151      3.921
REMARK  Name = 
REMARK  6 active torsions:
REMARK  status: ('A' for Active; 'I' for Inactive)
REMARK    1  A    between atoms: C_1  and  C_2
REMARK    2  A    between atoms: C_2  and  N_3
REMARK    3  A    between atoms: C_7  and  C_8
REMARK    4  A    between atoms: C_8  and  C_9
REMARK    5  A    between atoms: C_9  and  C_10
REMARK    6  A    between atoms: N_20  and  C_21
REMARK                            x       y       z     vdW  Elec       q    Type
REMARK                         _______ _______ _______ _____ _____    ______ ____
ROOT
ATOM      1  N   UNL     1      -1.453  12.268  21.768  0.00  0.00    +0.000 N 
ATOM      2  C   UNL     1      -0.693  11.100  21.553  0.00  0.00    +0.000 A 
ATOM      3  N   UNL     1      -0.399  10.249  22.575  0.00  0.00    +0.000 NA
ATOM      4  C   UNL     1       0.305   9.115  22.303  0.00  0.00    +0.000 A 
ATOM      5  C   UNL     1       0.776   8.764  21.046  0.00  0.00    +0.000 A 
ATOM      6  C   UNL     1       0.527   9.675  20.027  0.00  0.00    +0.000 A 
ATOM      7  C   UNL     1      -0.226  10.822  20.281  0.00  0.00    +0.000 A 
ATOM      8  C   UNL     1      -0.550  11.672  19.145  0.00  0.00    +0.000 C 
ATOM      9  O   UNL     1       0.360  11.981  18.378  0.00  0.00    +0.000 OA
ATOM     10  N   UNL     1      -1.901  11.782  18.831  0.00  0.00    +0.000 N 
ATOM     11  C   UNL     1      -2.222  11.550  17.436  0.00  0.00    +0.000 C 
ATOM     12  C   UNL     1      -2.940  12.121  19.778  0.00  0.00    +0.000 A 
ATOM     13  C   UNL     1      -4.258  12.267  19.294  0.00  0.00    +0.000 A 
ATOM     14  C   UNL     1      -5.292  12.691  20.118  0.00  0.00    +0.000 A 
ATOM     15  C   UNL     1      -4.987  12.975  21.428  0.00  0.00    +0.000 A 
ATOM     16  N   UNL     1      -3.748  12.854  21.943  0.00  0.00    +0.000 NA
ATOM     17  C   UNL     1      -2.722  12.420  21.150  0.00  0.00    +0.000 A 
ENDROOT
BRANCH   1  19
ATOM     18  C   UNL     1      -0.792  14.232  23.126  0.00  0.00    +0.000 C 
ATOM     19  C   UNL     1      -1.360  12.811  23.136  0.00  0.00    +0.000 C 
ENDBRANCH   1  19
BRANCH   5  20
ATOM     20  C   UNL     1       1.573   7.522  20.735  0.00  0.00    +0.000 C 
BRANCH  20  21
ATOM     21  C   UNL     1       2.250   7.495  19.359  0.00  0.00    +0.000 C 
BRANCH  21  22
ATOM     22  C   UNL     1       2.661   6.094  18.970  0.00  0.00    +0.000 A 
ATOM     23  C   UNL     1       3.758   5.483  19.593  0.00  0.00    +0.000 A 
ATOM     24  C   UNL     1       4.141   4.187  19.241  0.00  0.00    +0.000 A 
ATOM     25  C   UNL     1       3.438   3.494  18.258  0.00  0.00    +0.000 A 
ATOM     26  C   UNL     1       2.356   4.097  17.620  0.00  0.00    +0.000 A 
ATOM     27  C   UNL     1       1.970   5.394  17.972  0.00  0.00    +0.000 A 
ENDBRANCH  21  22
ENDBRANCH  20  21
ENDBRANCH   5  20
TORSDOF 4
ENDMDL
MODEL 8
REMARK VINA RESULT:      -7.0      2.288      3.858
REMARK  Name = 
REMARK  6 active torsions:
REMARK  status: ('A' for Active; 'I' for Inactive)
REMARK    1  A    between atoms: C_1  and  C_2
REMARK    2  A    between atoms: C_2  and  N_3
REMARK    3  A    between atoms: C_7  and  C_8
REMARK    4  A    between atoms: C_8  and  C_9
REMARK    5  A    between atoms: C_9  and  C_10
REMARK    6  A    between atoms: N_20  and  C_21
REMARK                            x       y       z     vdW  Elec       q    Type
REMARK                         _______ _______ _______ _____ _____    ______ ____
ROOT
ATOM      1  N   UNL     1      -1.331  12.812  21.484  0.00  0.00    +0.000 N 
ATOM      2  C   UNL     1      -0.563  11.724  21.021  0.00  0.00    +0.000 A 
ATOM      3  N   UNL     1       0.220  11.000  21.867  0.00  0.00    +0.000 NA
ATOM      4  C   UNL     1       0.909   9.934  21.372  0.00  0.00    +0.000 A 
ATOM      5  C   UNL     1       0.896   9.537  20.043  0.00  0.00    +0.000 A 
ATOM      6  C   UNL     1       0.146  10.326  19.180  0.00  0.00    +0.000 A 
ATOM      7  C   UNL     1      -0.597  11.397  19.677  0.00  0.00    +0.000 A 
ATOM      8  C   UNL     1      -1.452  12.108  18.738  0.00  0.00    +0.000 C 
ATOM      9  O   UNL     1      -0.966  12.454  17.663  0.00  0.00    +0.000 OA
ATOM     10  N   UNL     1      -2.820  12.038  18.985  0.00  0.00    +0.000 N 
ATOM     11  C   UNL     1      -3.625  11.656  17.840  0.00  0.00    +0.000 C 
ATOM     12  C   UNL     1      -3.442  12.334  20.256  0.00  0.00    +0.000 A 
ATOM     13  C   UNL     1      -4.851  12.288  20.333  0.00  0.00    +0.000 A 
ATOM     14  C   UNL     1      -5.528  12.660  21.486  0.00  0.00    +0.000 A 
ATOM     15  C   UNL     1      -4.777  13.083  22.557  0.00  0.00    +0.000 A 
ATOM     16  N   UNL     1      -3.432  13.146  22.539  0.00  0.00    +0.000 NA
ATOM     17  C   UNL     1      -2.748  12.768  21.418  0.00  0.00    +0.000 A 
ENDROOT
BRANCH   1  19
ATOM     18  C   UNL     1      -0.048  14.762  22.316  0.00  0.00    +0.000 C 
ATOM     19  C   UNL     1      -0.787  13.473  22.685  0.00  0.00    +0.000 C 
ENDBRANCH   1  19
BRANCH   5  20
ATOM     20  C   UNL     1       1.670   8.371  19.478  0.00  0.00    +0.000 C 
BRANCH  20  21
ATOM     21  C   UNL     1       1.972   7.235  20.461  0.00  0.00    +0.000 C 
BRANCH  21  22
ATOM     22  C   UNL     1       1.803   5.880  19.813  0.00  0.00    +0.000 A 
ATOM     23  C   UNL     1       1.333   4.794  20.564  0.00  0.00    +0.000 A 
ATOM     24  C   UNL     1       1.171   3.540  19.971  0.00  0.00    +0.000 A 
ATOM     25  C   UNL     1       1.487   3.358  18.626  0.00  0.00    +0.000 A 
ATOM     26  C   UNL     1       1.971   4.427  17.874  0.00  0.00    +0.000 A 
ATOM     27  C   UNL     1       2.132   5.683  18.465  0.00  0.00    +0.000 A 
ENDBRANCH  21  22
ENDBRANCH  20  21
ENDBRANCH   5  20
TORSDOF 4
ENDMDL
MODEL 9
REMARK VINA RESULT:      -7.0      2.387      4.239
REMARK  Name = 
REMARK  6 active torsions:
REMARK  status: ('A' for Active; 'I' for Inactive)
REMARK    1  A    between atoms: C_1  and  C_2
REMARK    2  A    between atoms: C_2  and  N_3
REMARK    3  A    between atoms: C_7  and  C_8
REMARK    4  A    between atoms: C_8  and  C_9
REMARK    5  A    between atoms: C_9  and  C_10
REMARK    6  A    between atoms: N_20  and  C_21
REMARK                            x       y       z     vdW  Elec       q    Type
REMARK                         _______ _______ _______ _____ _____    ______ ____
ROOT
ATOM      1  N   UNL     1      -1.610  12.866  21.684  0.00  0.00    +0.000 N 
ATOM      2  C   UNL     1      -0.816  11.770  21.290  0.00  0.00    +0.000 A 
ATOM      3  N   UNL     1      -0.073  11.074  22.194  0.00  0.00    +0.000 NA
ATOM      4  C   UNL     1       0.645   9.999  21.764  0.00  0.00    +0.000 A 
ATOM      5  C   UNL     1       0.699   9.564  20.448  0.00  0.00    +0.000 A 
ATOM      6  C   UNL     1      -0.009  10.325  19.527  0.00  0.00    +0.000 A 
ATOM      7  C   UNL     1      -0.781  11.405  19.956  0.00  0.00    +0.000 A 
ATOM      8  C   UNL     1      -1.592  12.084  18.957  0.00  0.00    +0.000 C 
ATOM      9  O   UNL     1      -1.053  12.404  17.898  0.00  0.00    +0.000 OA
ATOM     10  N   UNL     1      -2.969  12.014  19.137  0.00  0.00    +0.000 N 
ATOM     11  C   UNL     1      -3.715  11.596  17.964  0.00  0.00    +0.000 C 
ATOM     12  C   UNL     1      -3.656  12.342  20.367  0.00  0.00    +0.000 A 
ATOM     13  C   UNL     1      -5.066  12.291  20.374  0.00  0.00    +0.000 A 
ATOM     14  C   UNL     1      -5.801  12.690  21.482  0.00  0.00    +0.000 A 
ATOM     15  C   UNL     1      -5.107  13.148  22.577  0.00  0.00    +0.000 A 
ATOM     16  N   UNL     1      -3.762  13.218  22.624  0.00  0.00    +0.000 NA
ATOM     17  C   UNL     1      -3.022  12.812  21.548  0.00  0.00    +0.000 A 
ENDROOT
BRANCH   1  19
ATOM     18  C   UNL     1      -0.147  14.680  22.526  0.00  0.00    +0.000 C 
ATOM     19  C   UNL     1      -1.129  13.563  22.891  0.00  0.00    +0.000 C 
ENDBRANCH   1  19
BRANCH   5  20
ATOM     20  C   UNL     1       1.506   8.388  19.956  0.00  0.00    +0.000 C 
BRANCH  20  21
ATOM     21  C   UNL     1       2.011   8.488  18.512  0.00  0.00    +0.000 C 
BRANCH  21  22
ATOM     22  C   UNL     1       2.697   7.214  18.075  0.00  0.00    +0.000 A 
ATOM     23  C   UNL     1       2.096   5.971  18.318  0.00  0.00    +0.000 A 
ATOM     24  C   UNL     1       2.722   4.790  17.914  0.00  0.00    +0.000 A 
ATOM     25  C   UNL     1       3.957   4.840  17.271  0.00  0.00    +0.000 A 
ATOM     26  C   UNL     1       4.572   6.069  17.038  0.00  0.00    +0.000 A 
ATOM     27  C   UNL     1       3.946   7.252  17.442  0.00  0.00    +0.000 A 
ENDBRANCH  21  22
ENDBRANCH  20  21
ENDBRANCH   5  20
TORSDOF 4
ENDMDL
