MODEL 1
REMARK VINA RESULT:      -8.4      0.000      0.000
REMARK  Name = 
REMARK  7 active torsions:
REMARK  status: ('A' for Active; 'I' for Inactive)
REMARK    1  A    between atoms: C_1  and  C_2
REMARK    2  A    between atoms: C_6  and  N_7
REMARK    3  A    between atoms: N_7  and  C_8
REMARK    4  A    between atoms: C_8  and  N_10
REMARK    5  A    between atoms: N_10  and  C_11
REMARK    6  A    between atoms: C_13  and  C_14
REMARK    7  A    between atoms: C_13  and  C_15
REMARK                            x       y       z     vdW  Elec       q    Type
REMARK                         _______ _______ _______ _____ _____    ______ ____
ROOT
ATOM      1  N   UNL     1       4.872   5.008  15.832  0.00  0.00    +0.000 N 
ATOM      2  H   UNL     1       4.256   5.680  15.397  0.00  0.00    +0.000 HD
ENDROOT
BRANCH   1   3
ATOM      3  C   UNL     1       4.527   4.599  17.200  0.00  0.00    +0.000 C 
ATOM      4  C   UNL     1       3.671   3.318  17.128  0.00  0.00    +0.000 C 
ATOM      5  C   UNL     1       2.862   3.035  18.424  0.00  0.00    +0.000 C 
ATOM      6  C   UNL     1       1.348   3.305  18.222  0.00  0.00    +0.000 C 
ATOM      7  C   UNL     1       3.014   1.564  18.860  0.00  0.00    +0.000 C 
ATOM      8  O   UNL     1       3.324   3.859  19.524  0.00  0.00    +0.000 OA
ATOM      9  C   UNL     1       3.214   5.188  19.192  0.00  0.00    +0.000 A 
ATOM     10  C   UNL     1       2.439   6.008  20.004  0.00  0.00    +0.000 A 
ATOM     11  C   UNL     1       2.143   7.294  19.565  0.00  0.00    +0.000 A 
ATOM     12  C   UNL     1       2.689   7.761  18.366  0.00  0.00    +0.000 A 
ATOM     13 CL   UNL     1       2.270   9.332  17.803  0.00  0.00    +0.000 Cl
ATOM     14  C   UNL     1       3.529   6.954  17.591  0.00  0.00    +0.000 A 
ATOM     15  C   UNL     1       3.761   5.634  17.981  0.00  0.00    +0.000 A 
ENDBRANCH   1   3
BRANCH   1  16
ATOM     16  C   UNL     1       5.885   4.497  15.029  0.00  0.00    +0.000 C 
ATOM     17  S   UNL     1       5.643   3.869  13.497  0.00  0.00    +0.000 S 
BRANCH  16  18
ATOM     18  N   UNL     1       7.112   4.671  15.664  0.00  0.00    +0.000 N 
ATOM     19  H   UNL     1       7.778   3.937  15.464  0.00  0.00    +0.000 HD
BRANCH  18  25
ATOM     20  C   UNL     1       7.973   9.072  17.805  0.00  0.00    +0.000 C 
ATOM     21  C   UNL     1       7.865   7.579  17.901  0.00  0.00    +0.000 A 
ATOM     22  C   UNL     1       8.102   6.914  19.098  0.00  0.00    +0.000 A 
ATOM     23  C   UNL     1       8.015   5.517  19.157  0.00  0.00    +0.000 A 
ATOM     24  C   UNL     1       7.686   4.789  18.002  0.00  0.00    +0.000 A 
ATOM     25  C   UNL     1       7.407   5.447  16.815  0.00  0.00    +0.000 A 
ATOM     26  C   UNL     1       7.513   6.839  16.755  0.00  0.00    +0.000 A 
ENDBRANCH  18  25
ENDBRANCH  16  18
ENDBRANCH   1  16
TORSDOF 4
ENDMDL
MODEL 2
REMARK VINA RESULT:      -8.4      2.009      3.726
REMARK  Name = 
REMARK  7 active torsions:
REMARK  status: ('A' for Active; 'I' for Inactive)
REMARK    1  A    between atoms: C_1  and  C_2
REMARK    2  A    between atoms: C_6  and  N_7
REMARK    3  A    between atoms: N_7  and  C_8
REMARK    4  A    between atoms: C_8  and  N_10
REMARK    5  A    between atoms: N_10  and  C_11
REMARK    6  A    between atoms: C_13  and  C_14
REMARK    7  A    between atoms: C_13  and  C_15
REMARK                            x       y       z     vdW  Elec       q    Type
REMARK                         _______ _______ _______ _____ _____    ______ ____
ROOT
ATOM      1  N   UNL     1       5.326   5.421  16.780  0.00  0.00    +0.000 N 
ATOM      2  H   UNL     1       4.785   5.309  15.936  0.00  0.00    +0.000 HD
ENDROOT
BRANCH   1   3
ATOM      3  C   UNL     1       4.657   5.055  18.035  0.00  0.00    +0.000 C 
ATOM      4  C   UNL     1       3.909   3.723  17.822  0.00  0.00    +0.000 C 
ATOM      5  C   UNL     1       2.804   3.451  18.881  0.00  0.00    +0.000 C 
ATOM      6  C   UNL     1       1.384   3.622  18.282  0.00  0.00    +0.000 C 
ATOM      7  C   UNL     1       2.906   2.013  19.427  0.00  0.00    +0.000 C 
ATOM      8  O   UNL     1       2.927   4.351  20.012  0.00  0.00    +0.000 OA
ATOM      9  C   UNL     1       2.847   5.655  19.585  0.00  0.00    +0.000 A 
ATOM     10  C   UNL     1       1.851   6.462  20.122  0.00  0.00    +0.000 A 
ATOM     11  C   UNL     1       1.620   7.708  19.545  0.00  0.00    +0.000 A 
ATOM     12  C   UNL     1       2.437   8.151  18.501  0.00  0.00    +0.000 A 
ATOM     13 CL   UNL     1       2.108   9.668  17.759  0.00  0.00    +0.000 Cl
ATOM     14  C   UNL     1       3.485   7.362  18.018  0.00  0.00    +0.000 A 
ATOM     15  C   UNL     1       3.669   6.077  18.531  0.00  0.00    +0.000 A 
ENDBRANCH   1   3
BRANCH   1  16
ATOM     16  C   UNL     1       6.652   5.801  16.611  0.00  0.00    +0.000 C 
ATOM     17  S   UNL     1       7.363   7.103  17.384  0.00  0.00    +0.000 S 
BRANCH  16  18
ATOM     18  N   UNL     1       7.293   4.888  15.777  0.00  0.00    +0.000 N 
ATOM     19  H   UNL     1       8.145   4.511  16.169  0.00  0.00    +0.000 HD
BRANCH  18  25
ATOM     20  C   UNL     1       5.345   2.574  11.833  0.00  0.00    +0.000 C 
ATOM     21  C   UNL     1       6.260   3.614  12.409  0.00  0.00    +0.000 A 
ATOM     22  C   UNL     1       7.044   4.418  11.591  0.00  0.00    +0.000 A 
ATOM     23  C   UNL     1       7.906   5.368  12.153  0.00  0.00    +0.000 A 
ATOM     24  C   UNL     1       7.975   5.508  13.549  0.00  0.00    +0.000 A 
ATOM     25  C   UNL     1       7.166   4.739  14.371  0.00  0.00    +0.000 A 
ATOM     26  C   UNL     1       6.321   3.779  13.807  0.00  0.00    +0.000 A 
ENDBRANCH  18  25
ENDBRANCH  16  18
ENDBRANCH   1  16
TORSDOF 4
ENDMDL
MODEL 3
REMARK VINA RESULT:      -8.1      2.919      5.834
REMARK  Name = 
REMARK  7 active torsions:
REMARK  status: ('A' for Active; 'I' for Inactive)
REMARK    1  A    between atoms: C_1  and  C_2
REMARK    2  A    between atoms: C_6  and  N_7
REMARK    3  A    between atoms: N_7  and  C_8
REMARK    4  A    between atoms: C_8  and  N_10
REMARK    5  A    between atoms: N_10  and  C_11
REMARK    6  A    between atoms: C_13  and  C_14
REMARK    7  A    between atoms: C_13  and  C_15
REMARK                            x       y       z     vdW  Elec       q    Type
REMARK                         _______ _______ _______ _____ _____    ______ ____
ROOT
ATOM      1  N   UNL     1       4.305   3.124  17.544  0.00  0.00    +0.000 N 
ATOM      2  H   UNL     1       3.784   2.897  16.710  0.00  0.00    +0.000 HD
ENDROOT
BRANCH   1   3
ATOM      3  C   UNL     1       5.660   3.652  17.340  0.00  0.00    +0.000 C 
ATOM      4  C   UNL     1       5.792   4.980  18.113  0.00  0.00    +0.000 C 
ATOM      5  C   UNL     1       6.973   5.868  17.632  0.00  0.00    +0.000 C 
ATOM      6  C   UNL     1       6.473   7.104  16.840  0.00  0.00    +0.000 C 
ATOM      7  C   UNL     1       7.796   6.388  18.829  0.00  0.00    +0.000 C 
ATOM      8  O   UNL     1       7.878   5.123  16.780  0.00  0.00    +0.000 OA
ATOM      9  C   UNL     1       7.199   4.629  15.692  0.00  0.00    +0.000 A 
ATOM     10  C   UNL     1       7.638   4.989  14.423  0.00  0.00    +0.000 A 
ATOM     11  C   UNL     1       6.837   4.680  13.328  0.00  0.00    +0.000 A 
ATOM     12  C   UNL     1       5.659   3.951  13.514  0.00  0.00    +0.000 A 
ATOM     13 CL   UNL     1       4.648   3.622  12.160  0.00  0.00    +0.000 Cl
ATOM     14  C   UNL     1       5.263   3.528  14.786  0.00  0.00    +0.000 A 
ATOM     15  C   UNL     1       6.015   3.908  15.899  0.00  0.00    +0.000 A 
ENDBRANCH   1   3
BRANCH   1  16
ATOM     16  C   UNL     1       3.619   3.003  18.747  0.00  0.00    +0.000 C 
ATOM     17  S   UNL     1       4.195   2.168  20.078  0.00  0.00    +0.000 S 
BRANCH  16  18
ATOM     18  N   UNL     1       2.442   3.746  18.686  0.00  0.00    +0.000 N 
ATOM     19  H   UNL     1       1.777   3.395  18.011  0.00  0.00    +0.000 HD
BRANCH  18  25
ATOM     20  C   UNL     1       2.511   8.624  17.735  0.00  0.00    +0.000 C 
ATOM     21  C   UNL     1       2.272   7.488  18.686  0.00  0.00    +0.000 A 
ATOM     22  C   UNL     1       1.886   7.717  20.001  0.00  0.00    +0.000 A 
ATOM     23  C   UNL     1       1.689   6.640  20.875  0.00  0.00    +0.000 A 
ATOM     24  C   UNL     1       1.881   5.326  20.418  0.00  0.00    +0.000 A 
ATOM     25  C   UNL     1       2.225   5.087  19.097  0.00  0.00    +0.000 A 
ATOM     26  C   UNL     1       2.439   6.164  18.233  0.00  0.00    +0.000 A 
ENDBRANCH  18  25
ENDBRANCH  16  18
ENDBRANCH   1  16
TORSDOF 4
ENDMDL
MODEL 4
REMARK VINA RESULT:      -8.1      3.969      6.575
REMARK  Name = 
REMARK  7 active torsions:
REMARK  status: ('A' for Active; 'I' for Inactive)
REMARK    1  A    between atoms: C_1  and  C_2
REMARK    2  A    between atoms: C_6  and  N_7
REMARK    3  A    between atoms: N_7  and  C_8
REMARK    4  A    between atoms: C_8  and  N_10
REMARK    5  A    between atoms: N_10  and  C_11
REMARK    6  A    between atoms: C_13  and  C_14
REMARK    7  A    between atoms: C_13  and  C_15
REMARK                            x       y       z     vdW  Elec       q    Type
REMARK                         _______ _______ _______ _____ _____    ______ ____
ROOT
ATOM      1  N   UNL     1       2.502   6.735  19.940  0.00  0.00    +0.000 N 
ATOM      2  H   UNL     1       3.001   6.473  20.777  0.00  0.00    +0.000 HD
ENDROOT
BRANCH   1   3
ATOM      3  C   UNL     1       2.346   5.690  18.921  0.00  0.00    +0.000 C 
ATOM      4  C   UNL     1       1.964   4.371  19.624  0.00  0.00    +0.000 C 
ATOM      5  C   UNL     1       2.214   3.106  18.757  0.00  0.00    +0.000 C 
ATOM      6  C   UNL     1       3.433   2.295  19.269  0.00  0.00    +0.000 C 
ATOM      7  C   UNL     1       0.990   2.168  18.784  0.00  0.00    +0.000 C 
ATOM      8  O   UNL     1       2.456   3.457  17.372  0.00  0.00    +0.000 OA
ATOM      9  C   UNL     1       3.539   4.299  17.284  0.00  0.00    +0.000 A 
ATOM     10  C   UNL     1       4.617   3.905  16.499  0.00  0.00    +0.000 A 
ATOM     11  C   UNL     1       5.798   4.636  16.574  0.00  0.00    +0.000 A 
ATOM     12  C   UNL     1       5.854   5.786  17.367  0.00  0.00    +0.000 A 
ATOM     13 CL   UNL     1       7.337   6.650  17.496  0.00  0.00    +0.000 Cl
ATOM     14  C   UNL     1       4.741   6.217  18.095  0.00  0.00    +0.000 A 
ATOM     15  C   UNL     1       3.580   5.442  18.094  0.00  0.00    +0.000 A 
ENDBRANCH   1   3
BRANCH   1  16
ATOM     16  C   UNL     1       1.950   8.011  19.932  0.00  0.00    +0.000 C 
ATOM     17  S   UNL     1       1.666   8.904  18.546  0.00  0.00    +0.000 S 
BRANCH  16  18
ATOM     18  N   UNL     1       1.603   8.374  21.231  0.00  0.00    +0.000 N 
ATOM     19  H   UNL     1       1.721   7.629  21.905  0.00  0.00    +0.000 HD
BRANCH  18  25
ATOM     20  C   UNL     1       0.121  13.108  20.926  0.00  0.00    +0.000 C 
ATOM     21  C   UNL     1       0.019  11.752  21.560  0.00  0.00    +0.000 A 
ATOM     22  C   UNL     1      -0.861  11.511  22.608  0.00  0.00    +0.000 A 
ATOM     23  C   UNL     1      -0.924  10.241  23.197  0.00  0.00    +0.000 A 
ATOM     24  C   UNL     1      -0.093   9.211  22.725  0.00  0.00    +0.000 A 
ATOM     25  C   UNL     1       0.757   9.433  21.654  0.00  0.00    +0.000 A 
ATOM     26  C   UNL     1       0.830  10.705  21.080  0.00  0.00    +0.000 A 
ENDBRANCH  18  25
ENDBRANCH  16  18
ENDBRANCH   1  16
TORSDOF 4
ENDMDL
MODEL 5
REMARK VINA RESULT:      -8.0      4.058      6.675
REMARK  Name = 
REMARK  7 active torsions:
REMARK  status: ('A' for Active; 'I' for Inactive)
REMARK    1  A    between atoms: C_1  and  C_2
REMARK    2  A    between atoms: C_6  and  N_7
REMARK    3  A    between atoms: N_7  and  C_8
REMARK    4  A    between atoms: C_8  and  N_10
REMARK    5  A    between atoms: N_10  and  C_11
REMARK    6  A    between atoms: C_13  and  C_14
REMARK    7  A    between atoms: C_13  and  C_15
REMARK                            x       y       z     vdW  Elec       q    Type
REMARK                         _______ _______ _______ _____ _____    ______ ____
ROOT
ATOM      1  N   UNL     1       2.566   7.162  19.785  0.00  0.00    +0.000 N 
ATOM      2  H   UNL     1       3.395   7.120  20.360  0.00  0.00    +0.000 HD
ENDROOT
BRANCH   1   3
ATOM      3  C   UNL     1       2.367   6.049  18.849  0.00  0.00    +0.000 C 
ATOM      4  C   UNL     1       1.964   4.796  19.653  0.00  0.00    +0.000 C 
ATOM      5  C   UNL     1       2.168   3.464  18.879  0.00  0.00    +0.000 C 
ATOM      6  C   UNL     1       3.375   2.662  19.431  0.00  0.00    +0.000 C 
ATOM      7  C   UNL     1       0.923   2.563  18.993  0.00  0.00    +0.000 C 
ATOM      8  O   UNL     1       2.397   3.706  17.468  0.00  0.00    +0.000 OA
ATOM      9  C   UNL     1       3.498   4.510  17.301  0.00  0.00    +0.000 A 
ATOM     10  C   UNL     1       4.553   4.032  16.532  0.00  0.00    +0.000 A 
ATOM     11  C   UNL     1       5.753   4.736  16.535  0.00  0.00    +0.000 A 
ATOM     12  C   UNL     1       5.850   5.939  17.240  0.00  0.00    +0.000 A 
ATOM     13 CL   UNL     1       7.356   6.772  17.283  0.00  0.00    +0.000 Cl
ATOM     14  C   UNL     1       4.760   6.451  17.950  0.00  0.00    +0.000 A 
ATOM     15  C   UNL     1       3.581   5.709  18.024  0.00  0.00    +0.000 A 
ENDBRANCH   1   3
BRANCH   1  16
ATOM     16  C   UNL     1       1.691   8.209  20.048  0.00  0.00    +0.000 C 
ATOM     17  S   UNL     1       1.045   8.538  21.556  0.00  0.00    +0.000 S 
BRANCH  16  18
ATOM     18  N   UNL     1       1.517   8.969  18.894  0.00  0.00    +0.000 N 
ATOM     19  H   UNL     1       2.320   8.964  18.281  0.00  0.00    +0.000 HD
BRANCH  18  25
ATOM     20  C   UNL     1      -2.850  10.617  17.187  0.00  0.00    +0.000 C 
ATOM     21  C   UNL     1      -1.515  10.886  17.817  0.00  0.00    +0.000 A 
ATOM     22  C   UNL     1      -1.119  12.178  18.143  0.00  0.00    +0.000 A 
ATOM     23  C   UNL     1       0.141  12.406  18.711  0.00  0.00    +0.000 A 
ATOM     24  C   UNL     1       1.004  11.324  18.952  0.00  0.00    +0.000 A 
ATOM     25  C   UNL     1       0.600  10.029  18.668  0.00  0.00    +0.000 A 
ATOM     26  C   UNL     1      -0.650   9.807  18.083  0.00  0.00    +0.000 A 
ENDBRANCH  18  25
ENDBRANCH  16  18
ENDBRANCH   1  16
TORSDOF 4
ENDMDL
MODEL 6
REMARK VINA RESULT:      -8.0      2.312      3.819
REMARK  Name = 
REMARK  7 active torsions:
REMARK  status: ('A' for Active; 'I' for Inactive)
REMARK    1  A    between atoms: C_1  and  C_2
REMARK    2  A    between atoms: C_6  and  N_7
REMARK    3  A    between atoms: N_7  and  C_8
REMARK    4  A    between atoms: C_8  and  N_10
REMARK    5  A    between atoms: N_10  and  C_11
REMARK    6  A    between atoms: C_13  and  C_14
REMARK    7  A    between atoms: C_13  and  C_15
REMARK                            x       y       z     vdW  Elec       q    Type
REMARK                         _______ _______ _______ _____ _____    ______ ____
ROOT
ATOM      1  N   UNL     1       4.738   3.801  17.764  0.00  0.00    +0.000 N 
ATOM      2  H   UNL     1       4.388   2.997  17.262  0.00  0.00    +0.000 HD
ENDROOT
BRANCH   1   3
ATOM      3  C   UNL     1       4.175   4.030  19.100  0.00  0.00    +0.000 C 
ATOM      4  C   UNL     1       3.187   2.889  19.418  0.00  0.00    +0.000 C 
ATOM      5  C   UNL     1       2.190   3.228  20.562  0.00  0.00    +0.000 C 
ATOM      6  C   UNL     1       0.759   3.473  20.019  0.00  0.00    +0.000 C 
ATOM      7  C   UNL     1       2.107   2.074  21.581  0.00  0.00    +0.000 C 
ATOM      8  O   UNL     1       2.605   4.413  21.288  0.00  0.00    +0.000 OA
ATOM      9  C   UNL     1       2.701   5.480  20.427  0.00  0.00    +0.000 A 
ATOM     10  C   UNL     1       1.934   6.609  20.692  0.00  0.00    +0.000 A 
ATOM     11  C   UNL     1       1.854   7.603  19.721  0.00  0.00    +0.000 A 
ATOM     12  C   UNL     1       2.601   7.486  18.545  0.00  0.00    +0.000 A 
ATOM     13 CL   UNL     1       2.451   8.692  17.327  0.00  0.00    +0.000 Cl
ATOM     14  C   UNL     1       3.428   6.381  18.321  0.00  0.00    +0.000 A 
ATOM     15  C   UNL     1       3.448   5.340  19.249  0.00  0.00    +0.000 A 
ENDBRANCH   1   3
BRANCH   1  16
ATOM     16  C   UNL     1       5.774   4.498  17.153  0.00  0.00    +0.000 C 
ATOM     17  S   UNL     1       7.307   4.665  17.804  0.00  0.00    +0.000 S 
BRANCH  16  18
ATOM     18  N   UNL     1       5.356   4.950  15.904  0.00  0.00    +0.000 N 
ATOM     19  H   UNL     1       4.389   5.242  15.882  0.00  0.00    +0.000 HD
BRANCH  18  25
ATOM     20  C   UNL     1       5.360   2.432  11.619  0.00  0.00    +0.000 C 
ATOM     21  C   UNL     1       5.985   3.445  12.532  0.00  0.00    +0.000 A 
ATOM     22  C   UNL     1       7.160   4.100  12.185  0.00  0.00    +0.000 A 
ATOM     23  C   UNL     1       7.735   5.028  13.063  0.00  0.00    +0.000 A 
ATOM     24  C   UNL     1       7.120   5.295  14.297  0.00  0.00    +0.000 A 
ATOM     25  C   UNL     1       5.926   4.677  14.633  0.00  0.00    +0.000 A 
ATOM     26  C   UNL     1       5.365   3.738  13.763  0.00  0.00    +0.000 A 
ENDBRANCH  18  25
ENDBRANCH  16  18
ENDBRANCH   1  16
TORSDOF 4
ENDMDL
MODEL 7
REMARK VINA RESULT:      -7.9      4.140      7.043
REMARK  Name = 
REMARK  7 active torsions:
REMARK  status: ('A' for Active; 'I' for Inactive)
REMARK    1  A    between atoms: C_1  and  C_2
REMARK    2  A    between atoms: C_6  and  N_7
REMARK    3  A    between atoms: N_7  and  C_8
REMARK    4  A    between atoms: C_8  and  N_10
REMARK    5  A    between atoms: N_10  and  C_11
REMARK    6  A    between atoms: C_13  and  C_14
REMARK    7  A    between atoms: C_13  and  C_15
REMARK                            x       y       z     vdW  Elec       q    Type
REMARK                         _______ _______ _______ _____ _____    ______ ____
ROOT
ATOM      1  N   UNL     1       2.385   7.442  18.264  0.00  0.00    +0.000 N 
ATOM      2  H   UNL     1       1.997   7.397  17.333  0.00  0.00    +0.000 HD
ENDROOT
BRANCH   1   3
ATOM      3  C   UNL     1       3.589   6.637  18.506  0.00  0.00    +0.000 C 
ATOM      4  C   UNL     1       4.552   6.824  17.316  0.00  0.00    +0.000 C 
ATOM      5  C   UNL     1       5.631   5.711  17.205  0.00  0.00    +0.000 C 
ATOM      6  C   UNL     1       5.346   4.758  16.014  0.00  0.00    +0.000 C 
ATOM      7  C   UNL     1       7.031   6.318  16.986  0.00  0.00    +0.000 C 
ATOM      8  O   UNL     1       5.692   4.914  18.414  0.00  0.00    +0.000 OA
ATOM      9  C   UNL     1       4.465   4.346  18.664  0.00  0.00    +0.000 A 
ATOM     10  C   UNL     1       4.388   2.962  18.757  0.00  0.00    +0.000 A 
ATOM     11  C   UNL     1       3.131   2.365  18.791  0.00  0.00    +0.000 A 
ATOM     12  C   UNL     1       1.984   3.163  18.811  0.00  0.00    +0.000 A 
ATOM     13 CL   UNL     1       0.434   2.415  18.796  0.00  0.00    +0.000 Cl
ATOM     14  C   UNL     1       2.074   4.559  18.793  0.00  0.00    +0.000 A 
ATOM     15  C   UNL     1       3.326   5.163  18.672  0.00  0.00    +0.000 A 
ENDBRANCH   1   3
BRANCH   1  16
ATOM     16  C   UNL     1       1.781   8.339  19.136  0.00  0.00    +0.000 C 
ATOM     17  S   UNL     1       1.468   8.018  20.748  0.00  0.00    +0.000 S 
BRANCH  16  18
ATOM     18  N   UNL     1       1.562   9.548  18.479  0.00  0.00    +0.000 N 
ATOM     19  H   UNL     1       2.406  10.085  18.329  0.00  0.00    +0.000 HD
BRANCH  18  25
ATOM     20  C   UNL     1      -3.170   9.927  17.010  0.00  0.00    +0.000 C 
ATOM     21  C   UNL     1      -1.955  10.532  17.649  0.00  0.00    +0.000 A 
ATOM     22  C   UNL     1      -1.959  11.844  18.106  0.00  0.00    +0.000 A 
ATOM     23  C   UNL     1      -0.805  12.393  18.681  0.00  0.00    +0.000 A 
ATOM     24  C   UNL     1       0.357  11.612  18.794  0.00  0.00    +0.000 A 
ATOM     25  C   UNL     1       0.356  10.290  18.378  0.00  0.00    +0.000 A 
ATOM     26  C   UNL     1      -0.790   9.752  17.788  0.00  0.00    +0.000 A 
ENDBRANCH  18  25
ENDBRANCH  16  18
ENDBRANCH   1  16
TORSDOF 4
ENDMDL
MODEL 8
REMARK VINA RESULT:      -7.9      4.056      6.441
REMARK  Name = 
REMARK  7 active torsions:
REMARK  status: ('A' for Active; 'I' for Inactive)
REMARK    1  A    between atoms: C_1  and  C_2
REMARK    2  A    between atoms: C_6  and  N_7
REMARK    3  A    between atoms: N_7  and  C_8
REMARK    4  A    between atoms: C_8  and  N_10
REMARK    5  A    between atoms: N_10  and  C_11
REMARK    6  A    between atoms: C_13  and  C_14
REMARK    7  A    between atoms: C_13  and  C_15
REMARK                            x       y       z     vdW  Elec       q    Type
REMARK                         _______ _______ _______ _____ _____    ______ ____
ROOT
ATOM      1  N   UNL     1       2.534   7.150  19.842  0.00  0.00    +0.000 N 
ATOM      2  H   UNL     1       3.335   7.076  20.452  0.00  0.00    +0.000 HD
ENDROOT
BRANCH   1   3
ATOM      3  C   UNL     1       2.332   6.045  18.896  0.00  0.00    +0.000 C 
ATOM      4  C   UNL     1       1.913   4.790  19.690  0.00  0.00    +0.000 C 
ATOM      5  C   UNL     1       2.111   3.462  18.907  0.00  0.00    +0.000 C 
ATOM      6  C   UNL     1       3.307   2.646  19.463  0.00  0.00    +0.000 C 
ATOM      7  C   UNL     1       0.857   2.571  19.006  0.00  0.00    +0.000 C 
ATOM      8  O   UNL     1       2.352   3.711  17.499  0.00  0.00    +0.000 OA
ATOM      9  C   UNL     1       3.462   4.508  17.347  0.00  0.00    +0.000 A 
ATOM     10  C   UNL     1       4.517   4.025  16.582  0.00  0.00    +0.000 A 
ATOM     11  C   UNL     1       5.724   4.719  16.598  0.00  0.00    +0.000 A 
ATOM     12  C   UNL     1       5.826   5.916  17.312  0.00  0.00    +0.000 A 
ATOM     13 CL   UNL     1       7.338   6.736  17.372  0.00  0.00    +0.000 Cl
ATOM     14  C   UNL     1       4.735   6.433  18.018  0.00  0.00    +0.000 A 
ATOM     15  C   UNL     1       3.549   5.700  18.078  0.00  0.00    +0.000 A 
ENDBRANCH   1   3
BRANCH   1  16
ATOM     16  C   UNL     1       1.691   8.231  20.068  0.00  0.00    +0.000 C 
ATOM     17  S   UNL     1       1.077   8.646  21.569  0.00  0.00    +0.000 S 
BRANCH  16  18
ATOM     18  N   UNL     1       1.516   8.940  18.883  0.00  0.00    +0.000 N 
ATOM     19  H   UNL     1       2.216   8.735  18.182  0.00  0.00    +0.000 HD
BRANCH  18  25
ATOM     20  C   UNL     1       1.331  13.907  18.877  0.00  0.00    +0.000 C 
ATOM     21  C   UNL     1       0.655  12.581  18.689  0.00  0.00    +0.000 A 
ATOM     22  C   UNL     1      -0.693  12.498  18.363  0.00  0.00    +0.000 A 
ATOM     23  C   UNL     1      -1.306  11.247  18.213  0.00  0.00    +0.000 A 
ATOM     24  C   UNL     1      -0.553  10.075  18.392  0.00  0.00    +0.000 A 
ATOM     25  C   UNL     1       0.801  10.149  18.676  0.00  0.00    +0.000 A 
ATOM     26  C   UNL     1       1.405  11.398  18.843  0.00  0.00    +0.000 A 
ENDBRANCH  18  25
ENDBRANCH  16  18
ENDBRANCH   1  16
TORSDOF 4
ENDMDL
MODEL 9
REMARK VINA RESULT:      -7.9      2.080      3.400
REMARK  Name = 
REMARK  7 active torsions:
REMARK  status: ('A' for Active; 'I' for Inactive)
REMARK    1  A    between atoms: C_1  and  C_2
REMARK    2  A    between atoms: C_6  and  N_7
REMARK    3  A    between atoms: N_7  and  C_8
REMARK    4  A    between atoms: C_8  and  N_10
REMARK    5  A    between atoms: N_10  and  C_11
REMARK    6  A    between atoms: C_13  and  C_14
REMARK    7  A    between atoms: C_13  and  C_15
REMARK                            x       y       z     vdW  Elec       q    Type
REMARK                         _______ _______ _______ _____ _____    ______ ____
ROOT
ATOM      1  N   UNL     1       5.327   5.811  17.323  0.00  0.00    +0.000 N 
ATOM      2  H   UNL     1       4.644   6.260  16.730  0.00  0.00    +0.000 HD
ENDROOT
BRANCH   1   3
ATOM      3  C   UNL     1       4.800   4.903  18.349  0.00  0.00    +0.000 C 
ATOM      4  C   UNL     1       4.280   3.626  17.656  0.00  0.00    +0.000 C 
ATOM      5  C   UNL     1       3.298   2.797  18.530  0.00  0.00    +0.000 C 
ATOM      6  C   UNL     1       1.839   2.916  18.018  0.00  0.00    +0.000 C 
ATOM      7  C   UNL     1       3.674   1.302  18.515  0.00  0.00    +0.000 C 
ATOM      8  O   UNL     1       3.327   3.234  19.912  0.00  0.00    +0.000 OA
ATOM      9  C   UNL     1       3.001   4.567  19.990  0.00  0.00    +0.000 A 
ATOM     10  C   UNL     1       1.913   4.934  20.773  0.00  0.00    +0.000 A 
ATOM     11  C   UNL     1       1.441   6.241  20.688  0.00  0.00    +0.000 A 
ATOM     12  C   UNL     1       2.112   7.170  19.887  0.00  0.00    +0.000 A 
ATOM     13 CL   UNL     1       1.487   8.767  19.745  0.00  0.00    +0.000 Cl
ATOM     14  C   UNL     1       3.251   6.810  19.161  0.00  0.00    +0.000 A 
ATOM     15  C   UNL     1       3.680   5.482  19.172  0.00  0.00    +0.000 A 
ENDBRANCH   1   3
BRANCH   1  16
ATOM     16  C   UNL     1       6.660   6.039  17.002  0.00  0.00    +0.000 C 
ATOM     17  S   UNL     1       7.533   7.373  17.511  0.00  0.00    +0.000 S 
BRANCH  16  18
ATOM     18  N   UNL     1       7.154   4.958  16.277  0.00  0.00    +0.000 N 
ATOM     19  H   UNL     1       7.907   4.469  16.743  0.00  0.00    +0.000 HD
BRANCH  18  25
ATOM     20  C   UNL     1       8.251   6.187  11.588  0.00  0.00    +0.000 C 
ATOM     21  C   UNL     1       7.544   5.297  12.567  0.00  0.00    +0.000 A 
ATOM     22  C   UNL     1       6.737   4.251  12.138  0.00  0.00    +0.000 A 
ATOM     23  C   UNL     1       6.071   3.446  13.071  0.00  0.00    +0.000 A 
ATOM     24  C   UNL     1       6.222   3.699  14.445  0.00  0.00    +0.000 A 
ATOM     25  C   UNL     1       7.058   4.714  14.882  0.00  0.00    +0.000 A 
ATOM     26  C   UNL     1       7.706   5.527  13.948  0.00  0.00    +0.000 A 
ENDBRANCH  18  25
ENDBRANCH  16  18
ENDBRANCH   1  16
TORSDOF 4
ENDMDL
