MODEL 1
REMARK VINA RESULT:      -8.7      0.000      0.000
REMARK  Name = 
REMARK  6 active torsions:
REMARK  status: ('A' for Active; 'I' for Inactive)
REMARK    1  A    between atoms: C_1  and  C_2
REMARK    2  A    between atoms: C_5  and  S_6
REMARK    3  A    between atoms: S_6  and  C_7
REMARK    4  A    between atoms: C_14  and  C_15
REMARK    5  A    between atoms: C_19  and  S_20
REMARK    6  A    between atoms: S_20  and  C_21
REMARK                            x       y       z     vdW  Elec       q    Type
REMARK                         _______ _______ _______ _____ _____    ______ ____
ROOT
ATOM      1  C   UNL     1       4.663   4.585  19.342  0.00  0.00    +0.000 A 
ATOM      2  N   UNL     1       5.418   3.458  19.331  0.00  0.00    +0.000 NA
ATOM      3  C   UNL     1       4.901   2.333  19.820  0.00  0.00    +0.000 A 
ATOM      4  N   UNL     1       3.694   2.183  20.345  0.00  0.00    +0.000 NA
ATOM      5  C   UNL     1       2.957   3.305  20.313  0.00  0.00    +0.000 A 
ATOM      6  S   UNL     1       1.387   3.259  20.956  0.00  0.00    +0.000 S 
ATOM      7  C   UNL     1       1.114   4.880  20.539  0.00  0.00    +0.000 A 
ATOM      8  C   UNL     1       2.202   5.493  19.931  0.00  0.00    +0.000 A 
ATOM      9  C   UNL     1       3.329   4.553  19.811  0.00  0.00    +0.000 A 
ENDROOT
BRANCH   8  10
ATOM     10  C   UNL     1       2.048   6.895  19.496  0.00  0.00    +0.000 A 
ATOM     11  C   UNL     1       2.367   7.291  18.192  0.00  0.00    +0.000 A 
ATOM     12  C   UNL     1       2.257   8.625  17.783  0.00  0.00    +0.000 A 
ATOM     13  C   UNL     1       1.706   9.573  18.638  0.00  0.00    +0.000 A 
ATOM     14  C   UNL     1       1.291   9.176  19.907  0.00  0.00    +0.000 A 
ATOM     15  C   UNL     1       1.488   7.861  20.352  0.00  0.00    +0.000 A 
BRANCH  14  16
ATOM     16  S   UNL     1       0.364  10.310  20.915  0.00  0.00    +0.000 S 
ATOM     17  C   UNL     1      -0.134   9.331  22.302  0.00  0.00    +0.000 C 
ATOM     18  O   UNL     1       1.289  11.325  21.389  0.00  0.00    +0.000 OA
ATOM     19  O   UNL     1      -0.824  10.679  20.170  0.00  0.00    +0.000 OA
ENDBRANCH  14  16
ENDBRANCH   8  10
BRANCH   1  20
ATOM     20  S   UNL     1       5.460   6.033  18.727  0.00  0.00    +0.000 S 
BRANCH  20  25
ATOM     21  C   UNL     1       6.126   3.887  14.122  0.00  0.00    +0.000 C 
ATOM     22  C   UNL     1       6.519   4.440  15.431  0.00  0.00    +0.000 A 
ATOM     23  N   UNL     1       7.709   4.579  15.969  0.00  0.00    +0.000 NA
ATOM     24  N   UNL     1       7.502   5.159  17.203  0.00  0.00    +0.000 NA
ATOM     25  C   UNL     1       6.202   5.346  17.324  0.00  0.00    +0.000 A 
ATOM     26  O   UNL     1       5.510   4.883  16.236  0.00  0.00    +0.000 OA
ENDBRANCH  20  25
ENDBRANCH   1  20
TORSDOF 4
ENDMDL
MODEL 2
REMARK VINA RESULT:      -8.6      0.647      1.018
REMARK  Name = 
REMARK  6 active torsions:
REMARK  status: ('A' for Active; 'I' for Inactive)
REMARK    1  A    between atoms: C_1  and  C_2
REMARK    2  A    between atoms: C_5  and  S_6
REMARK    3  A    between atoms: S_6  and  C_7
REMARK    4  A    between atoms: C_14  and  C_15
REMARK    5  A    between atoms: C_19  and  S_20
REMARK    6  A    between atoms: S_20  and  C_21
REMARK                            x       y       z     vdW  Elec       q    Type
REMARK                         _______ _______ _______ _____ _____    ______ ____
ROOT
ATOM      1  C   UNL     1       4.653   4.586  19.341  0.00  0.00    +0.000 A 
ATOM      2  N   UNL     1       5.392   3.448  19.344  0.00  0.00    +0.000 NA
ATOM      3  C   UNL     1       4.851   2.332  19.829  0.00  0.00    +0.000 A 
ATOM      4  N   UNL     1       3.635   2.202  20.337  0.00  0.00    +0.000 NA
ATOM      5  C   UNL     1       2.915   3.335  20.291  0.00  0.00    +0.000 A 
ATOM      6  S   UNL     1       1.336   3.314  20.913  0.00  0.00    +0.000 S 
ATOM      7  C   UNL     1       1.093   4.938  20.486  0.00  0.00    +0.000 A 
ATOM      8  C   UNL     1       2.198   5.533  19.892  0.00  0.00    +0.000 A 
ATOM      9  C   UNL     1       3.313   4.576  19.791  0.00  0.00    +0.000 A 
ENDROOT
BRANCH   8  10
ATOM     10  C   UNL     1       2.072   6.935  19.451  0.00  0.00    +0.000 A 
ATOM     11  C   UNL     1       2.330   7.307  18.126  0.00  0.00    +0.000 A 
ATOM     12  C   UNL     1       2.246   8.641  17.709  0.00  0.00    +0.000 A 
ATOM     13  C   UNL     1       1.779   9.616  18.583  0.00  0.00    +0.000 A 
ATOM     14  C   UNL     1       1.423   9.247  19.878  0.00  0.00    +0.000 A 
ATOM     15  C   UNL     1       1.596   7.929  20.325  0.00  0.00    +0.000 A 
BRANCH  14  16
ATOM     16  S   UNL     1       0.597  10.423  20.924  0.00  0.00    +0.000 S 
ATOM     17  C   UNL     1       1.231  11.984  20.385  0.00  0.00    +0.000 C 
ATOM     18  O   UNL     1      -0.818  10.375  20.597  0.00  0.00    +0.000 OA
ATOM     19  O   UNL     1       1.054  10.192  22.280  0.00  0.00    +0.000 OA
ENDBRANCH  14  16
ENDBRANCH   8  10
BRANCH   1  20
ATOM     20  S   UNL     1       5.481   6.020  18.732  0.00  0.00    +0.000 S 
BRANCH  20  25
ATOM     21  C   UNL     1       6.117   3.891  14.115  0.00  0.00    +0.000 C 
ATOM     22  C   UNL     1       6.516   4.423  15.430  0.00  0.00    +0.000 A 
ATOM     23  N   UNL     1       7.705   4.524  15.977  0.00  0.00    +0.000 NA
ATOM     24  N   UNL     1       7.507   5.101  17.215  0.00  0.00    +0.000 NA
ATOM     25  C   UNL     1       6.212   5.323  17.329  0.00  0.00    +0.000 A 
ATOM     26  O   UNL     1       5.515   4.888  16.232  0.00  0.00    +0.000 OA
ENDBRANCH  20  25
ENDBRANCH   1  20
TORSDOF 4
ENDMDL
MODEL 3
REMARK VINA RESULT:      -8.6      1.126      1.247
REMARK  Name = 
REMARK  6 active torsions:
REMARK  status: ('A' for Active; 'I' for Inactive)
REMARK    1  A    between atoms: C_1  and  C_2
REMARK    2  A    between atoms: C_5  and  S_6
REMARK    3  A    between atoms: S_6  and  C_7
REMARK    4  A    between atoms: C_14  and  C_15
REMARK    5  A    between atoms: C_19  and  S_20
REMARK    6  A    between atoms: S_20  and  C_21
REMARK                            x       y       z     vdW  Elec       q    Type
REMARK                         _______ _______ _______ _____ _____    ______ ____
ROOT
ATOM      1  C   UNL     1       4.585   5.243  18.537  0.00  0.00    +0.000 A 
ATOM      2  N   UNL     1       5.345   4.138  18.336  0.00  0.00    +0.000 NA
ATOM      3  C   UNL     1       5.037   3.019  18.990  0.00  0.00    +0.000 A 
ATOM      4  N   UNL     1       4.045   2.858  19.853  0.00  0.00    +0.000 NA
ATOM      5  C   UNL     1       3.290   3.958  20.007  0.00  0.00    +0.000 A 
ATOM      6  S   UNL     1       1.983   3.895  21.088  0.00  0.00    +0.000 S 
ATOM      7  C   UNL     1       1.539   5.490  20.722  0.00  0.00    +0.000 A 
ATOM      8  C   UNL     1       2.376   6.108  19.802  0.00  0.00    +0.000 A 
ATOM      9  C   UNL     1       3.451   5.195  19.381  0.00  0.00    +0.000 A 
ENDROOT
BRANCH   8  10
ATOM     10  C   UNL     1       2.049   7.487  19.391  0.00  0.00    +0.000 A 
ATOM     11  C   UNL     1       2.167   7.896  18.058  0.00  0.00    +0.000 A 
ATOM     12  C   UNL     1       1.892   9.212  17.667  0.00  0.00    +0.000 A 
ATOM     13  C   UNL     1       1.371  10.117  18.584  0.00  0.00    +0.000 A 
ATOM     14  C   UNL     1       1.154   9.699  19.895  0.00  0.00    +0.000 A 
ATOM     15  C   UNL     1       1.517   8.409  20.310  0.00  0.00    +0.000 A 
BRANCH  14  16
ATOM     16  S   UNL     1       0.265  10.759  21.012  0.00  0.00    +0.000 S 
ATOM     17  C   UNL     1      -1.033  11.428  20.013  0.00  0.00    +0.000 C 
ATOM     18  O   UNL     1      -0.337   9.912  22.026  0.00  0.00    +0.000 OA
ATOM     19  O   UNL     1       1.157  11.841  21.382  0.00  0.00    +0.000 OA
ENDBRANCH  14  16
ENDBRANCH   8  10
BRANCH   1  20
ATOM     20  S   UNL     1       5.111   6.687  17.671  0.00  0.00    +0.000 S 
BRANCH  20  25
ATOM     21  C   UNL     1       6.069   3.855  13.510  0.00  0.00    +0.000 C 
ATOM     22  C   UNL     1       6.374   4.741  14.647  0.00  0.00    +0.000 A 
ATOM     23  N   UNL     1       7.516   5.262  15.033  0.00  0.00    +0.000 NA
ATOM     24  N   UNL     1       7.230   6.019  16.150  0.00  0.00    +0.000 NA
ATOM     25  C   UNL     1       5.932   5.919  16.358  0.00  0.00    +0.000 A 
ATOM     26  O   UNL     1       5.326   5.093  15.448  0.00  0.00    +0.000 OA
ENDBRANCH  20  25
ENDBRANCH   1  20
TORSDOF 4
ENDMDL
MODEL 4
REMARK VINA RESULT:      -7.9      1.407      1.578
REMARK  Name = 
REMARK  6 active torsions:
REMARK  status: ('A' for Active; 'I' for Inactive)
REMARK    1  A    between atoms: C_1  and  C_2
REMARK    2  A    between atoms: C_5  and  S_6
REMARK    3  A    between atoms: S_6  and  C_7
REMARK    4  A    between atoms: C_14  and  C_15
REMARK    5  A    between atoms: C_19  and  S_20
REMARK    6  A    between atoms: S_20  and  C_21
REMARK                            x       y       z     vdW  Elec       q    Type
REMARK                         _______ _______ _______ _____ _____    ______ ____
ROOT
ATOM      1  C   UNL     1       4.153   4.448  17.920  0.00  0.00    +0.000 A 
ATOM      2  N   UNL     1       4.787   3.367  17.403  0.00  0.00    +0.000 NA
ATOM      3  C   UNL     1       4.366   2.150  17.742  0.00  0.00    +0.000 A 
ATOM      4  N   UNL     1       3.368   1.863  18.565  0.00  0.00    +0.000 NA
ATOM      5  C   UNL     1       2.737   2.952  19.036  0.00  0.00    +0.000 A 
ATOM      6  S   UNL     1       1.439   2.732  20.107  0.00  0.00    +0.000 S 
ATOM      7  C   UNL     1       1.167   4.404  20.199  0.00  0.00    +0.000 A 
ATOM      8  C   UNL     1       2.059   5.159  19.448  0.00  0.00    +0.000 A 
ATOM      9  C   UNL     1       3.027   4.289  18.760  0.00  0.00    +0.000 A 
ENDROOT
BRANCH   8  10
ATOM     10  C   UNL     1       1.880   6.624  19.435  0.00  0.00    +0.000 A 
ATOM     11  C   UNL     1       1.974   7.357  18.247  0.00  0.00    +0.000 A 
ATOM     12  C   UNL     1       1.840   8.751  18.231  0.00  0.00    +0.000 A 
ATOM     13  C   UNL     1       1.485   9.429  19.392  0.00  0.00    +0.000 A 
ATOM     14  C   UNL     1       1.291   8.703  20.565  0.00  0.00    +0.000 A 
ATOM     15  C   UNL     1       1.516   7.319  20.602  0.00  0.00    +0.000 A 
BRANCH  14  16
ATOM     16  S   UNL     1       0.601   9.515  21.988  0.00  0.00    +0.000 S 
ATOM     17  C   UNL     1       0.264  11.155  21.415  0.00  0.00    +0.000 C 
ATOM     18  O   UNL     1      -0.668   8.872  22.282  0.00  0.00    +0.000 OA
ATOM     19  O   UNL     1       1.645   9.591  22.991  0.00  0.00    +0.000 OA
ENDBRANCH  14  16
ENDBRANCH   8  10
BRANCH   1  20
ATOM     20  S   UNL     1       4.826   6.011  17.455  0.00  0.00    +0.000 S 
BRANCH  20  25
ATOM     21  C   UNL     1       6.270   3.819  13.055  0.00  0.00    +0.000 C 
ATOM     22  C   UNL     1       6.427   4.584  14.304  0.00  0.00    +0.000 A 
ATOM     23  N   UNL     1       7.490   5.160  14.817  0.00  0.00    +0.000 NA
ATOM     24  N   UNL     1       7.074   5.743  15.996  0.00  0.00    +0.000 NA
ATOM     25  C   UNL     1       5.784   5.493  16.112  0.00  0.00    +0.000 A 
ATOM     26  O   UNL     1       5.312   4.731  15.076  0.00  0.00    +0.000 OA
ENDBRANCH  20  25
ENDBRANCH   1  20
TORSDOF 4
ENDMDL
MODEL 5
REMARK VINA RESULT:      -7.8      1.142      1.292
REMARK  Name = 
REMARK  6 active torsions:
REMARK  status: ('A' for Active; 'I' for Inactive)
REMARK    1  A    between atoms: C_1  and  C_2
REMARK    2  A    between atoms: C_5  and  S_6
REMARK    3  A    between atoms: S_6  and  C_7
REMARK    4  A    between atoms: C_14  and  C_15
REMARK    5  A    between atoms: C_19  and  S_20
REMARK    6  A    between atoms: S_20  and  C_21
REMARK                            x       y       z     vdW  Elec       q    Type
REMARK                         _______ _______ _______ _____ _____    ______ ____
ROOT
ATOM      1  C   UNL     1       4.636   4.475  19.331  0.00  0.00    +0.000 A 
ATOM      2  N   UNL     1       5.366   3.333  19.334  0.00  0.00    +0.000 NA
ATOM      3  C   UNL     1       4.842   2.236  19.878  0.00  0.00    +0.000 A 
ATOM      4  N   UNL     1       3.650   2.130  20.446  0.00  0.00    +0.000 NA
ATOM      5  C   UNL     1       2.936   3.267  20.400  0.00  0.00    +0.000 A 
ATOM      6  S   UNL     1       1.388   3.277  21.095  0.00  0.00    +0.000 S 
ATOM      7  C   UNL     1       1.135   4.889  20.631  0.00  0.00    +0.000 A 
ATOM      8  C   UNL     1       2.215   5.457  19.967  0.00  0.00    +0.000 A 
ATOM      9  C   UNL     1       3.318   4.489  19.844  0.00  0.00    +0.000 A 
ENDROOT
BRANCH   8  10
ATOM     10  C   UNL     1       2.076   6.847  19.490  0.00  0.00    +0.000 A 
ATOM     11  C   UNL     1       2.401   7.200  18.175  0.00  0.00    +0.000 A 
ATOM     12  C   UNL     1       2.305   8.522  17.726  0.00  0.00    +0.000 A 
ATOM     13  C   UNL     1       1.762   9.501  18.550  0.00  0.00    +0.000 A 
ATOM     14  C   UNL     1       1.342   9.147  19.831  0.00  0.00    +0.000 A 
ATOM     15  C   UNL     1       1.524   7.843  20.315  0.00  0.00    +0.000 A 
BRANCH  14  16
ATOM     16  S   UNL     1       0.426  10.320  20.802  0.00  0.00    +0.000 S 
ATOM     17  C   UNL     1      -0.798  10.931  19.680  0.00  0.00    +0.000 C 
ATOM     18  O   UNL     1      -0.253   9.579  21.850  0.00  0.00    +0.000 OA
ATOM     19  O   UNL     1       1.327  11.410  21.127  0.00  0.00    +0.000 OA
ENDBRANCH  14  16
ENDBRANCH   8  10
BRANCH   1  20
ATOM     20  S   UNL     1       5.442   5.885  18.641  0.00  0.00    +0.000 S 
BRANCH  20  25
ATOM     21  C   UNL     1       7.334   4.978  13.967  0.00  0.00    +0.000 C 
ATOM     22  C   UNL     1       6.351   4.937  15.063  0.00  0.00    +0.000 A 
ATOM     23  N   UNL     1       5.162   4.382  15.114  0.00  0.00    +0.000 NA
ATOM     24  N   UNL     1       4.677   4.638  16.380  0.00  0.00    +0.000 NA
ATOM     25  C   UNL     1       5.611   5.318  17.016  0.00  0.00    +0.000 A 
ATOM     26  O   UNL     1       6.699   5.568  16.222  0.00  0.00    +0.000 OA
ENDBRANCH  20  25
ENDBRANCH   1  20
TORSDOF 4
ENDMDL
MODEL 6
REMARK VINA RESULT:      -7.5      1.565      1.929
REMARK  Name = 
REMARK  6 active torsions:
REMARK  status: ('A' for Active; 'I' for Inactive)
REMARK    1  A    between atoms: C_1  and  C_2
REMARK    2  A    between atoms: C_5  and  S_6
REMARK    3  A    between atoms: S_6  and  C_7
REMARK    4  A    between atoms: C_14  and  C_15
REMARK    5  A    between atoms: C_19  and  S_20
REMARK    6  A    between atoms: S_20  and  C_21
REMARK                            x       y       z     vdW  Elec       q    Type
REMARK                         _______ _______ _______ _____ _____    ______ ____
ROOT
ATOM      1  C   UNL     1       3.758   4.443  17.880  0.00  0.00    +0.000 A 
ATOM      2  N   UNL     1       4.209   3.221  17.502  0.00  0.00    +0.000 NA
ATOM      3  C   UNL     1       3.939   2.169  18.272  0.00  0.00    +0.000 A 
ATOM      4  N   UNL     1       3.265   2.179  19.412  0.00  0.00    +0.000 NA
ATOM      5  C   UNL     1       2.802   3.395  19.745  0.00  0.00    +0.000 A 
ATOM      6  S   UNL     1       1.922   3.556  21.188  0.00  0.00    +0.000 S 
ATOM      7  C   UNL     1       1.666   5.209  20.906  0.00  0.00    +0.000 A 
ATOM      8  C   UNL     1       2.256   5.676  19.738  0.00  0.00    +0.000 A 
ATOM      9  C   UNL     1       2.965   4.590  19.042  0.00  0.00    +0.000 A 
ENDROOT
BRANCH   8  10
ATOM     10  C   UNL     1       2.058   7.096  19.387  0.00  0.00    +0.000 A 
ATOM     11  C   UNL     1       2.301   7.565  18.091  0.00  0.00    +0.000 A 
ATOM     12  C   UNL     1       2.149   8.917  17.759  0.00  0.00    +0.000 A 
ATOM     13  C   UNL     1       1.629   9.808  18.690  0.00  0.00    +0.000 A 
ATOM     14  C   UNL     1       1.289   9.339  19.957  0.00  0.00    +0.000 A 
ATOM     15  C   UNL     1       1.529   8.006  20.320  0.00  0.00    +0.000 A 
BRANCH  14  16
ATOM     16  S   UNL     1       0.400  10.402  21.070  0.00  0.00    +0.000 S 
ATOM     17  C   UNL     1       0.093   9.375  22.478  0.00  0.00    +0.000 C 
ATOM     18  O   UNL     1       1.306  11.462  21.474  0.00  0.00    +0.000 OA
ATOM     19  O   UNL     1      -0.873  10.711  20.448  0.00  0.00    +0.000 OA
ENDBRANCH  14  16
ENDBRANCH   8  10
BRANCH   1  20
ATOM     20  S   UNL     1       4.218   5.778  16.823  0.00  0.00    +0.000 S 
BRANCH  20  25
ATOM     21  C   UNL     1       8.349   5.667  19.852  0.00  0.00    +0.000 C 
ATOM     22  C   UNL     1       7.501   6.109  18.731  0.00  0.00    +0.000 A 
ATOM     23  N   UNL     1       7.727   7.008  17.801  0.00  0.00    +0.000 NA
ATOM     24  N   UNL     1       6.603   7.016  17.000  0.00  0.00    +0.000 NA
ATOM     25  C   UNL     1       5.778   6.112  17.490  0.00  0.00    +0.000 A 
ATOM     26  O   UNL     1       6.279   5.512  18.616  0.00  0.00    +0.000 OA
ENDBRANCH  20  25
ENDBRANCH   1  20
TORSDOF 4
ENDMDL
MODEL 7
REMARK VINA RESULT:      -7.5      1.329      1.501
REMARK  Name = 
REMARK  6 active torsions:
REMARK  status: ('A' for Active; 'I' for Inactive)
REMARK    1  A    between atoms: C_1  and  C_2
REMARK    2  A    between atoms: C_5  and  S_6
REMARK    3  A    between atoms: S_6  and  C_7
REMARK    4  A    between atoms: C_14  and  C_15
REMARK    5  A    between atoms: C_19  and  S_20
REMARK    6  A    between atoms: S_20  and  C_21
REMARK                            x       y       z     vdW  Elec       q    Type
REMARK                         _______ _______ _______ _____ _____    ______ ____
ROOT
ATOM      1  C   UNL     1       4.546   4.210  19.315  0.00  0.00    +0.000 A 
ATOM      2  N   UNL     1       5.312   3.100  19.167  0.00  0.00    +0.000 NA
ATOM      3  C   UNL     1       4.755   1.905  19.351  0.00  0.00    +0.000 A 
ATOM      4  N   UNL     1       3.495   1.665  19.683  0.00  0.00    +0.000 NA
ATOM      5  C   UNL     1       2.752   2.780  19.790  0.00  0.00    +0.000 A 
ATOM      6  S   UNL     1       1.117   2.621  20.215  0.00  0.00    +0.000 S 
ATOM      7  C   UNL     1       0.875   4.297  20.106  0.00  0.00    +0.000 A 
ATOM      8  C   UNL     1       2.020   5.008  19.772  0.00  0.00    +0.000 A 
ATOM      9  C   UNL     1       3.166   4.099  19.602  0.00  0.00    +0.000 A 
ENDROOT
BRANCH   8  10
ATOM     10  C   UNL     1       1.902   6.471  19.617  0.00  0.00    +0.000 A 
ATOM     11  C   UNL     1       2.088   7.087  18.374  0.00  0.00    +0.000 A 
ATOM     12  C   UNL     1       2.012   8.477  18.226  0.00  0.00    +0.000 A 
ATOM     13  C   UNL     1       1.623   9.272  19.298  0.00  0.00    +0.000 A 
ATOM     14  C   UNL     1       1.337   8.665  20.519  0.00  0.00    +0.000 A 
ATOM     15  C   UNL     1       1.505   7.283  20.694  0.00  0.00    +0.000 A 
BRANCH  14  16
ATOM     16  S   UNL     1       0.606   9.629  21.821  0.00  0.00    +0.000 S 
ATOM     17  C   UNL     1       0.443  11.241  21.111  0.00  0.00    +0.000 C 
ATOM     18  O   UNL     1      -0.727   9.102  22.054  0.00  0.00    +0.000 OA
ATOM     19  O   UNL     1       1.573   9.704  22.899  0.00  0.00    +0.000 OA
ENDBRANCH  14  16
ENDBRANCH   8  10
BRANCH   1  20
ATOM     20  S   UNL     1       5.393   5.744  19.109  0.00  0.00    +0.000 S 
BRANCH  20  25
ATOM     21  C   UNL     1       6.523   4.448  14.283  0.00  0.00    +0.000 C 
ATOM     22  C   UNL     1       5.955   5.264  15.370  0.00  0.00    +0.000 A 
ATOM     23  N   UNL     1       5.276   6.387  15.321  0.00  0.00    +0.000 NA
ATOM     24  N   UNL     1       4.983   6.711  16.630  0.00  0.00    +0.000 NA
ATOM     25  C   UNL     1       5.492   5.756  17.383  0.00  0.00    +0.000 A 
ATOM     26  O   UNL     1       6.153   4.812  16.642  0.00  0.00    +0.000 OA
ENDBRANCH  20  25
ENDBRANCH   1  20
TORSDOF 4
ENDMDL
MODEL 8
REMARK VINA RESULT:      -7.4      1.538      2.035
REMARK  Name = 
REMARK  6 active torsions:
REMARK  status: ('A' for Active; 'I' for Inactive)
REMARK    1  A    between atoms: C_1  and  C_2
REMARK    2  A    between atoms: C_5  and  S_6
REMARK    3  A    between atoms: S_6  and  C_7
REMARK    4  A    between atoms: C_14  and  C_15
REMARK    5  A    between atoms: C_19  and  S_20
REMARK    6  A    between atoms: S_20  and  C_21
REMARK                            x       y       z     vdW  Elec       q    Type
REMARK                         _______ _______ _______ _____ _____    ______ ____
ROOT
ATOM      1  C   UNL     1       3.561   3.848  17.936  0.00  0.00    +0.000 A 
ATOM      2  N   UNL     1       3.892   2.574  17.611  0.00  0.00    +0.000 NA
ATOM      3  C   UNL     1       3.645   1.601  18.486  0.00  0.00    +0.000 A 
ATOM      4  N   UNL     1       3.103   1.742  19.687  0.00  0.00    +0.000 NA
ATOM      5  C   UNL     1       2.756   3.008  19.970  0.00  0.00    +0.000 A 
ATOM      6  S   UNL     1       2.052   3.335  21.479  0.00  0.00    +0.000 S 
ATOM      7  C   UNL     1       1.869   4.977  21.095  0.00  0.00    +0.000 A 
ATOM      8  C   UNL     1       2.354   5.315  19.838  0.00  0.00    +0.000 A 
ATOM      9  C   UNL     1       2.912   4.134  19.160  0.00  0.00    +0.000 A 
ENDROOT
BRANCH   8  10
ATOM     10  C   UNL     1       2.206   6.716  19.397  0.00  0.00    +0.000 A 
ATOM     11  C   UNL     1       2.451   7.091  18.071  0.00  0.00    +0.000 A 
ATOM     12  C   UNL     1       2.347   8.423  17.654  0.00  0.00    +0.000 A 
ATOM     13  C   UNL     1       1.872   9.393  18.530  0.00  0.00    +0.000 A 
ATOM     14  C   UNL     1       1.529   9.019  19.828  0.00  0.00    +0.000 A 
ATOM     15  C   UNL     1       1.722   7.703  20.275  0.00  0.00    +0.000 A 
BRANCH  14  16
ATOM     16  S   UNL     1       0.693  10.185  20.878  0.00  0.00    +0.000 S 
ATOM     17  C   UNL     1       1.190  11.758  20.240  0.00  0.00    +0.000 C 
ATOM     18  O   UNL     1      -0.732  10.034  20.645  0.00  0.00    +0.000 OA
ATOM     19  O   UNL     1       1.247  10.040  22.211  0.00  0.00    +0.000 OA
ENDBRANCH  14  16
ENDBRANCH   8  10
BRANCH   1  20
ATOM     20  S   UNL     1       3.983   5.068  16.733  0.00  0.00    +0.000 S 
BRANCH  20  25
ATOM     21  C   UNL     1       8.219   7.310  18.545  0.00  0.00    +0.000 C 
ATOM     22  C   UNL     1       7.403   6.246  17.933  0.00  0.00    +0.000 A 
ATOM     23  N   UNL     1       7.746   5.048  17.519  0.00  0.00    +0.000 NA
ATOM     24  N   UNL     1       6.591   4.467  17.039  0.00  0.00    +0.000 NA
ATOM     25  C   UNL     1       5.622   5.346  17.209  0.00  0.00    +0.000 A 
ATOM     26  O   UNL     1       6.079   6.518  17.752  0.00  0.00    +0.000 OA
ENDBRANCH  20  25
ENDBRANCH   1  20
TORSDOF 4
ENDMDL
MODEL 9
REMARK VINA RESULT:      -7.2      1.790      2.245
REMARK  Name = 
REMARK  6 active torsions:
REMARK  status: ('A' for Active; 'I' for Inactive)
REMARK    1  A    between atoms: C_1  and  C_2
REMARK    2  A    between atoms: C_5  and  S_6
REMARK    3  A    between atoms: S_6  and  C_7
REMARK    4  A    between atoms: C_14  and  C_15
REMARK    5  A    between atoms: C_19  and  S_20
REMARK    6  A    between atoms: S_20  and  C_21
REMARK                            x       y       z     vdW  Elec       q    Type
REMARK                         _______ _______ _______ _____ _____    ______ ____
ROOT
ATOM      1  C   UNL     1       4.177   5.153  17.626  0.00  0.00    +0.000 A 
ATOM      2  N   UNL     1       4.789   4.017  17.209  0.00  0.00    +0.000 NA
ATOM      3  C   UNL     1       4.606   2.896  17.903  0.00  0.00    +0.000 A 
ATOM      4  N   UNL     1       3.875   2.758  19.000  0.00  0.00    +0.000 NA
ATOM      5  C   UNL     1       3.254   3.890  19.371  0.00  0.00    +0.000 A 
ATOM      6  S   UNL     1       2.286   3.860  20.764  0.00  0.00    +0.000 S 
ATOM      7  C   UNL     1       1.851   5.487  20.558  0.00  0.00    +0.000 A 
ATOM      8  C   UNL     1       2.443   6.089  19.455  0.00  0.00    +0.000 A 
ATOM      9  C   UNL     1       3.311   5.136  18.744  0.00  0.00    +0.000 A 
ENDROOT
BRANCH   8  10
ATOM     10  C   UNL     1       2.097   7.496  19.171  0.00  0.00    +0.000 A 
ATOM     11  C   UNL     1       2.172   8.015  17.873  0.00  0.00    +0.000 A 
ATOM     12  C   UNL     1       1.879   9.356  17.601  0.00  0.00    +0.000 A 
ATOM     13  C   UNL     1       1.383  10.179  18.607  0.00  0.00    +0.000 A 
ATOM     14  C   UNL     1       1.209   9.652  19.884  0.00  0.00    +0.000 A 
ATOM     15  C   UNL     1       1.590   8.335  20.180  0.00  0.00    +0.000 A 
BRANCH  14  16
ATOM     16  S   UNL     1       0.350  10.609  21.112  0.00  0.00    +0.000 S 
ATOM     17  C   UNL     1       0.133   9.477  22.454  0.00  0.00    +0.000 C 
ATOM     18  O   UNL     1       1.252  11.660  21.550  0.00  0.00    +0.000 OA
ATOM     19  O   UNL     1      -0.958  10.930  20.573  0.00  0.00    +0.000 OA
ENDBRANCH  14  16
ENDBRANCH   8  10
BRANCH   1  20
ATOM     20  S   UNL     1       4.531   6.595  16.673  0.00  0.00    +0.000 S 
BRANCH  20  25
ATOM     21  C   UNL     1       8.712   9.212  18.061  0.00  0.00    +0.000 C 
ATOM     22  C   UNL     1       7.808   8.053  17.964  0.00  0.00    +0.000 A 
ATOM     23  N   UNL     1       7.928   6.841  18.457  0.00  0.00    +0.000 NA
ATOM     24  N   UNL     1       6.792   6.160  18.071  0.00  0.00    +0.000 NA
ATOM     25  C   UNL     1       6.053   7.009  17.383  0.00  0.00    +0.000 A 
ATOM     26  O   UNL     1       6.657   8.231  17.253  0.00  0.00    +0.000 OA
ENDBRANCH  20  25
ENDBRANCH   1  20
TORSDOF 4
ENDMDL
