MODEL 1
REMARK VINA RESULT:      -6.6      0.000      0.000
REMARK  Name = 
REMARK  5 active torsions:
REMARK  status: ('A' for Active; 'I' for Inactive)
REMARK    1  A    between atoms: S_2  and  C_4
REMARK    2  A    between atoms: S_2  and  C_12
REMARK    3  A    between atoms: C_4  and  C_5
REMARK    4  A    between atoms: C_5  and  N_6
REMARK    5  A    between atoms: C_9  and  O_10
REMARK                            x       y       z     vdW  Elec       q    Type
REMARK                         _______ _______ _______ _____ _____    ______ ____
ROOT
ATOM      1  O   UNL     1       3.985   5.721  19.677  0.00  0.00    +0.000 OA
ATOM      2  S   UNL     1       3.344   6.119  18.442  0.00  0.00    +0.000 S 
ATOM      3  O   UNL     1       4.130   6.412  17.255  0.00  0.00    +0.000 OA
ENDROOT
BRANCH   2   4
ATOM      4  C   UNL     1       2.365   7.569  18.795  0.00  0.00    +0.000 A 
ATOM      5  C   UNL     1       2.143   8.514  17.790  0.00  0.00    +0.000 A 
ATOM      6  C   UNL     1       1.408   9.668  18.073  0.00  0.00    +0.000 A 
ATOM      7  C   UNL     1       0.908   9.878  19.361  0.00  0.00    +0.000 A 
ATOM      8  C   UNL     1       1.148   8.934  20.360  0.00  0.00    +0.000 A 
ATOM      9 BR   UNL     1       0.481   9.237  22.104  0.00  0.00    +0.000 Br
ATOM     10  C   UNL     1       1.877   7.776  20.089  0.00  0.00    +0.000 A 
ENDBRANCH   2   4
BRANCH   2  11
ATOM     11  C   UNL     1       2.126   4.898  18.010  0.00  0.00    +0.000 C 
BRANCH  11  12
ATOM     12  C   UNL     1       1.560   4.204  19.247  0.00  0.00    +0.000 C 
BRANCH  12  13
ATOM     13  N   UNL     1       2.020   2.806  19.321  0.00  0.00    +0.000 NA
ATOM     14  C   UNL     1       2.564   2.298  18.052  0.00  0.00    +0.000 C 
ATOM     15  C   UNL     1       3.711   1.377  18.429  0.00  0.00    +0.000 C 
ATOM     16  C   UNL     1       4.274   2.035  19.672  0.00  0.00    +0.000 C 
ATOM     17  C   UNL     1       3.025   2.562  20.379  0.00  0.00    +0.000 C 
BRANCH  16  18
ATOM     18  O   UNL     1       5.146   3.104  19.307  0.00  0.00    +0.000 OA
ATOM     19  H   UNL     1       5.926   2.717  18.873  0.00  0.00    +0.000 HD
ENDBRANCH  16  18
ENDBRANCH  12  13
ENDBRANCH  11  12
ENDBRANCH   2  11
TORSDOF 5
ENDMDL
MODEL 2
REMARK VINA RESULT:      -6.5      5.509      6.601
REMARK  Name = 
REMARK  5 active torsions:
REMARK  status: ('A' for Active; 'I' for Inactive)
REMARK    1  A    between atoms: S_2  and  C_4
REMARK    2  A    between atoms: S_2  and  C_12
REMARK    3  A    between atoms: C_4  and  C_5
REMARK    4  A    between atoms: C_5  and  N_6
REMARK    5  A    between atoms: C_9  and  O_10
REMARK                            x       y       z     vdW  Elec       q    Type
REMARK                         _______ _______ _______ _____ _____    ______ ____
ROOT
ATOM      1  O   UNL     1       6.481   6.471  16.451  0.00  0.00    +0.000 OA
ATOM      2  S   UNL     1       6.752   5.062  16.265  0.00  0.00    +0.000 S 
ATOM      3  O   UNL     1       7.873   4.424  16.935  0.00  0.00    +0.000 OA
ENDROOT
BRANCH   2   4
ATOM      4  C   UNL     1       6.963   4.788  14.513  0.00  0.00    +0.000 A 
ATOM      5  C   UNL     1       7.858   5.584  13.793  0.00  0.00    +0.000 A 
ATOM      6  C   UNL     1       7.998   5.397  12.416  0.00  0.00    +0.000 A 
ATOM      7  C   UNL     1       7.235   4.425  11.762  0.00  0.00    +0.000 A 
ATOM      8  C   UNL     1       6.335   3.647  12.490  0.00  0.00    +0.000 A 
ATOM      9 BR   UNL     1       5.295   2.346  11.591  0.00  0.00    +0.000 Br
ATOM     10  C   UNL     1       6.188   3.821  13.866  0.00  0.00    +0.000 A 
ENDBRANCH   2   4
BRANCH   2  11
ATOM     11  C   UNL     1       5.281   4.140  16.648  0.00  0.00    +0.000 C 
BRANCH  11  12
ATOM     12  C   UNL     1       4.253   4.999  17.381  0.00  0.00    +0.000 C 
BRANCH  12  13
ATOM     13  N   UNL     1       3.286   4.156  18.107  0.00  0.00    +0.000 NA
ATOM     14  C   UNL     1       3.177   2.791  17.570  0.00  0.00    +0.000 C 
ATOM     15  C   UNL     1       2.961   1.886  18.771  0.00  0.00    +0.000 C 
ATOM     16  C   UNL     1       3.768   2.571  19.855  0.00  0.00    +0.000 C 
ATOM     17  C   UNL     1       3.553   4.056  19.558  0.00  0.00    +0.000 C 
BRANCH  16  18
ATOM     18  O   UNL     1       5.146   2.219  19.735  0.00  0.00    +0.000 OA
ATOM     19  H   UNL     1       5.505   2.113  20.633  0.00  0.00    +0.000 HD
ENDBRANCH  16  18
ENDBRANCH  12  13
ENDBRANCH  11  12
ENDBRANCH   2  11
TORSDOF 5
ENDMDL
MODEL 3
REMARK VINA RESULT:      -6.4      1.569      2.168
REMARK  Name = 
REMARK  5 active torsions:
REMARK  status: ('A' for Active; 'I' for Inactive)
REMARK    1  A    between atoms: S_2  and  C_4
REMARK    2  A    between atoms: S_2  and  C_12
REMARK    3  A    between atoms: C_4  and  C_5
REMARK    4  A    between atoms: C_5  and  N_6
REMARK    5  A    between atoms: C_9  and  O_10
REMARK                            x       y       z     vdW  Elec       q    Type
REMARK                         _______ _______ _______ _____ _____    ______ ____
ROOT
ATOM      1  O   UNL     1       5.245   6.508  17.682  0.00  0.00    +0.000 OA
ATOM      2  S   UNL     1       3.983   5.921  18.080  0.00  0.00    +0.000 S 
ATOM      3  O   UNL     1       3.272   5.015  17.194  0.00  0.00    +0.000 OA
ENDROOT
BRANCH   2   4
ATOM      4  C   UNL     1       2.870   7.263  18.463  0.00  0.00    +0.000 A 
ATOM      5  C   UNL     1       2.630   8.254  17.507  0.00  0.00    +0.000 A 
ATOM      6  C   UNL     1       1.788   9.325  17.817  0.00  0.00    +0.000 A 
ATOM      7  C   UNL     1       1.199   9.408  19.082  0.00  0.00    +0.000 A 
ATOM      8  C   UNL     1       1.458   8.419  20.032  0.00  0.00    +0.000 A 
ATOM      9 BR   UNL     1       0.670   8.551  21.747  0.00  0.00    +0.000 Br
ATOM     10  C   UNL     1       2.294   7.343  19.735  0.00  0.00    +0.000 A 
ENDBRANCH   2   4
BRANCH   2  11
ATOM     11  C   UNL     1       4.198   5.109  19.646  0.00  0.00    +0.000 C 
BRANCH  11  12
ATOM     12  C   UNL     1       4.422   3.608  19.477  0.00  0.00    +0.000 C 
BRANCH  12  13
ATOM     13  N   UNL     1       3.259   2.845  19.965  0.00  0.00    +0.000 NA
ATOM     14  C   UNL     1       2.215   3.688  20.569  0.00  0.00    +0.000 C 
ATOM     15  C   UNL     1       0.891   3.048  20.190  0.00  0.00    +0.000 C 
ATOM     16  C   UNL     1       1.176   2.481  18.813  0.00  0.00    +0.000 C 
ATOM     17  C   UNL     1       2.622   2.001  18.931  0.00  0.00    +0.000 C 
BRANCH  16  18
ATOM     18  O   UNL     1       1.054   3.506  17.828  0.00  0.00    +0.000 OA
ATOM     19  H   UNL     1       0.708   3.099  17.015  0.00  0.00    +0.000 HD
ENDBRANCH  16  18
ENDBRANCH  12  13
ENDBRANCH  11  12
ENDBRANCH   2  11
TORSDOF 5
ENDMDL
MODEL 4
REMARK VINA RESULT:      -6.3      3.023      3.527
REMARK  Name = 
REMARK  5 active torsions:
REMARK  status: ('A' for Active; 'I' for Inactive)
REMARK    1  A    between atoms: S_2  and  C_4
REMARK    2  A    between atoms: S_2  and  C_12
REMARK    3  A    between atoms: C_4  and  C_5
REMARK    4  A    between atoms: C_5  and  N_6
REMARK    5  A    between atoms: C_9  and  O_10
REMARK                            x       y       z     vdW  Elec       q    Type
REMARK                         _______ _______ _______ _____ _____    ______ ____
ROOT
ATOM      1  O   UNL     1       2.289   4.363  18.763  0.00  0.00    +0.000 OA
ATOM      2  S   UNL     1       3.294   5.404  18.815  0.00  0.00    +0.000 S 
ATOM      3  O   UNL     1       4.346   5.373  19.818  0.00  0.00    +0.000 OA
ENDROOT
BRANCH   2   4
ATOM      4  C   UNL     1       2.438   6.960  19.000  0.00  0.00    +0.000 A 
ATOM      5  C   UNL     1       2.245   7.778  17.884  0.00  0.00    +0.000 A 
ATOM      6  C   UNL     1       1.608   9.013  18.031  0.00  0.00    +0.000 A 
ATOM      7  C   UNL     1       1.178   9.429  19.294  0.00  0.00    +0.000 A 
ATOM      8  C   UNL     1       1.389   8.610  20.403  0.00  0.00    +0.000 A 
ATOM      9 BR   UNL     1       0.817   9.192  22.110  0.00  0.00    +0.000 Br
ATOM     10  C   UNL     1       2.020   7.373  20.269  0.00  0.00    +0.000 A 
ENDBRANCH   2   4
BRANCH   2  11
ATOM     11  C   UNL     1       4.058   5.544  17.216  0.00  0.00    +0.000 C 
BRANCH  11  12
ATOM     12  C   UNL     1       5.228   4.576  17.063  0.00  0.00    +0.000 C 
BRANCH  12  13
ATOM     13  N   UNL     1       6.509   5.305  17.014  0.00  0.00    +0.000 NA
ATOM     14  C   UNL     1       6.414   6.693  17.491  0.00  0.00    +0.000 C 
ATOM     15  C   UNL     1       7.720   6.977  18.212  0.00  0.00    +0.000 C 
ATOM     16  C   UNL     1       8.063   5.634  18.824  0.00  0.00    +0.000 C 
ATOM     17  C   UNL     1       7.603   4.641  17.756  0.00  0.00    +0.000 C 
BRANCH  16  18
ATOM     18  O   UNL     1       7.338   5.451  20.040  0.00  0.00    +0.000 OA
ATOM     19  H   UNL     1       7.824   4.805  20.582  0.00  0.00    +0.000 HD
ENDBRANCH  16  18
ENDBRANCH  12  13
ENDBRANCH  11  12
ENDBRANCH   2  11
TORSDOF 5
ENDMDL
MODEL 5
REMARK VINA RESULT:      -6.3      0.976      1.706
REMARK  Name = 
REMARK  5 active torsions:
REMARK  status: ('A' for Active; 'I' for Inactive)
REMARK    1  A    between atoms: S_2  and  C_4
REMARK    2  A    between atoms: S_2  and  C_12
REMARK    3  A    between atoms: C_4  and  C_5
REMARK    4  A    between atoms: C_5  and  N_6
REMARK    5  A    between atoms: C_9  and  O_10
REMARK                            x       y       z     vdW  Elec       q    Type
REMARK                         _______ _______ _______ _____ _____    ______ ____
ROOT
ATOM      1  O   UNL     1       4.068   5.836  19.573  0.00  0.00    +0.000 OA
ATOM      2  S   UNL     1       3.403   6.235  18.350  0.00  0.00    +0.000 S 
ATOM      3  O   UNL     1       4.168   6.562  17.159  0.00  0.00    +0.000 OA
ENDROOT
BRANCH   2   4
ATOM      4  C   UNL     1       2.394   7.657  18.734  0.00  0.00    +0.000 A 
ATOM      5  C   UNL     1       2.178   8.634  17.758  0.00  0.00    +0.000 A 
ATOM      6  C   UNL     1       1.420   9.766  18.067  0.00  0.00    +0.000 A 
ATOM      7  C   UNL     1       0.890   9.922  19.351  0.00  0.00    +0.000 A 
ATOM      8  C   UNL     1       1.124   8.947  20.320  0.00  0.00    +0.000 A 
ATOM      9 BR   UNL     1       0.417   9.178  22.060  0.00  0.00    +0.000 Br
ATOM     10  C   UNL     1       1.877   7.810  20.024  0.00  0.00    +0.000 A 
ENDBRANCH   2   4
BRANCH   2  11
ATOM     11  C   UNL     1       2.209   4.991  17.917  0.00  0.00    +0.000 C 
BRANCH  11  12
ATOM     12  C   UNL     1       2.811   3.589  17.968  0.00  0.00    +0.000 C 
BRANCH  12  13
ATOM     13  N   UNL     1       2.257   2.821  19.098  0.00  0.00    +0.000 NA
ATOM     14  C   UNL     1       3.270   2.409  20.082  0.00  0.00    +0.000 C 
ATOM     15  C   UNL     1       2.593   2.492  21.438  0.00  0.00    +0.000 C 
ATOM     16  C   UNL     1       1.649   3.666  21.269  0.00  0.00    +0.000 C 
ATOM     17  C   UNL     1       1.175   3.521  19.823  0.00  0.00    +0.000 C 
BRANCH  16  18
ATOM     18  O   UNL     1       2.355   4.892  21.456  0.00  0.00    +0.000 OA
ATOM     19  H   UNL     1       1.750   5.522  21.885  0.00  0.00    +0.000 HD
ENDBRANCH  16  18
ENDBRANCH  12  13
ENDBRANCH  11  12
ENDBRANCH   2  11
TORSDOF 5
ENDMDL
MODEL 6
REMARK VINA RESULT:      -6.3      3.689      4.851
REMARK  Name = 
REMARK  5 active torsions:
REMARK  status: ('A' for Active; 'I' for Inactive)
REMARK    1  A    between atoms: S_2  and  C_4
REMARK    2  A    between atoms: S_2  and  C_12
REMARK    3  A    between atoms: C_4  and  C_5
REMARK    4  A    between atoms: C_5  and  N_6
REMARK    5  A    between atoms: C_9  and  O_10
REMARK                            x       y       z     vdW  Elec       q    Type
REMARK                         _______ _______ _______ _____ _____    ______ ____
ROOT
ATOM      1  O   UNL     1       3.357   7.446  17.614  0.00  0.00    +0.000 OA
ATOM      2  S   UNL     1       3.623   6.172  18.248  0.00  0.00    +0.000 S 
ATOM      3  O   UNL     1       3.802   6.080  19.687  0.00  0.00    +0.000 OA
ENDROOT
BRANCH   2   4
ATOM      4  C   UNL     1       5.094   5.500  17.492  0.00  0.00    +0.000 A 
ATOM      5  C   UNL     1       6.294   5.488  18.207  0.00  0.00    +0.000 A 
ATOM      6  C   UNL     1       7.455   4.996  17.605  0.00  0.00    +0.000 A 
ATOM      7  C   UNL     1       7.414   4.529  16.288  0.00  0.00    +0.000 A 
ATOM      8  C   UNL     1       6.213   4.558  15.580  0.00  0.00    +0.000 A 
ATOM      9 BR   UNL     1       6.173   3.940  13.792  0.00  0.00    +0.000 Br
ATOM     10  C   UNL     1       5.046   5.044  16.170  0.00  0.00    +0.000 A 
ENDBRANCH   2   4
BRANCH   2  11
ATOM     11  C   UNL     1       2.355   5.021  17.772  0.00  0.00    +0.000 C 
BRANCH  11  12
ATOM     12  C   UNL     1       1.708   4.360  18.987  0.00  0.00    +0.000 C 
BRANCH  12  13
ATOM     13  N   UNL     1       2.009   2.918  19.023  0.00  0.00    +0.000 NA
ATOM     14  C   UNL     1       2.736   2.439  17.836  0.00  0.00    +0.000 C 
ATOM     15  C   UNL     1       3.695   1.373  18.336  0.00  0.00    +0.000 C 
ATOM     16  C   UNL     1       4.069   1.881  19.714  0.00  0.00    +0.000 C 
ATOM     17  C   UNL     1       2.764   2.494  20.222  0.00  0.00    +0.000 C 
BRANCH  16  18
ATOM     18  O   UNL     1       5.094   2.869  19.610  0.00  0.00    +0.000 OA
ATOM     19  H   UNL     1       5.943   2.441  19.817  0.00  0.00    +0.000 HD
ENDBRANCH  16  18
ENDBRANCH  12  13
ENDBRANCH  11  12
ENDBRANCH   2  11
TORSDOF 5
ENDMDL
MODEL 7
REMARK VINA RESULT:      -6.2      3.941      5.170
REMARK  Name = 
REMARK  5 active torsions:
REMARK  status: ('A' for Active; 'I' for Inactive)
REMARK    1  A    between atoms: S_2  and  C_4
REMARK    2  A    between atoms: S_2  and  C_12
REMARK    3  A    between atoms: C_4  and  C_5
REMARK    4  A    between atoms: C_5  and  N_6
REMARK    5  A    between atoms: C_9  and  O_10
REMARK                            x       y       z     vdW  Elec       q    Type
REMARK                         _______ _______ _______ _____ _____    ______ ____
ROOT
ATOM      1  O   UNL     1       2.999   7.057  17.486  0.00  0.00    +0.000 OA
ATOM      2  S   UNL     1       3.378   5.867  18.219  0.00  0.00    +0.000 S 
ATOM      3  O   UNL     1       3.521   5.897  19.665  0.00  0.00    +0.000 OA
ENDROOT
BRANCH   2   4
ATOM      4  C   UNL     1       4.934   5.304  17.549  0.00  0.00    +0.000 A 
ATOM      5  C   UNL     1       6.063   5.256  18.371  0.00  0.00    +0.000 A 
ATOM      6  C   UNL     1       7.290   4.851  17.840  0.00  0.00    +0.000 A 
ATOM      7  C   UNL     1       7.387   4.507  16.489  0.00  0.00    +0.000 A 
ATOM      8  C   UNL     1       6.256   4.573  15.675  0.00  0.00    +0.000 A 
ATOM      9 BR   UNL     1       6.403   4.123  13.843  0.00  0.00    +0.000 Br
ATOM     10  C   UNL     1       5.024   4.972  16.193  0.00  0.00    +0.000 A 
ENDBRANCH   2   4
BRANCH   2  11
ATOM     11  C   UNL     1       2.254   4.555  17.800  0.00  0.00    +0.000 C 
BRANCH  11  12
ATOM     12  C   UNL     1       2.915   3.184  17.926  0.00  0.00    +0.000 C 
BRANCH  12  13
ATOM     13  N   UNL     1       2.411   2.465  19.110  0.00  0.00    +0.000 NA
ATOM     14  C   UNL     1       3.288   2.580  20.285  0.00  0.00    +0.000 C 
ATOM     15  C   UNL     1       2.365   2.646  21.490  0.00  0.00    +0.000 C 
ATOM     16  C   UNL     1       1.162   3.392  20.948  0.00  0.00    +0.000 C 
ATOM     17  C   UNL     1       1.047   2.867  19.517  0.00  0.00    +0.000 C 
BRANCH  16  18
ATOM     18  O   UNL     1       1.412   4.797  20.961  0.00  0.00    +0.000 OA
ATOM     19  H   UNL     1       1.174   5.134  21.843  0.00  0.00    +0.000 HD
ENDBRANCH  16  18
ENDBRANCH  12  13
ENDBRANCH  11  12
ENDBRANCH   2  11
TORSDOF 5
ENDMDL
MODEL 8
REMARK VINA RESULT:      -6.2      3.306      3.978
REMARK  Name = 
REMARK  5 active torsions:
REMARK  status: ('A' for Active; 'I' for Inactive)
REMARK    1  A    between atoms: S_2  and  C_4
REMARK    2  A    between atoms: S_2  and  C_12
REMARK    3  A    between atoms: C_4  and  C_5
REMARK    4  A    between atoms: C_5  and  N_6
REMARK    5  A    between atoms: C_9  and  O_10
REMARK                            x       y       z     vdW  Elec       q    Type
REMARK                         _______ _______ _______ _____ _____    ______ ____
ROOT
ATOM      1  O   UNL     1       2.246   4.352  17.847  0.00  0.00    +0.000 OA
ATOM      2  S   UNL     1       3.289   5.168  18.433  0.00  0.00    +0.000 S 
ATOM      3  O   UNL     1       4.212   4.610  19.407  0.00  0.00    +0.000 OA
ENDROOT
BRANCH   2   4
ATOM      4  C   UNL     1       2.497   6.570  19.202  0.00  0.00    +0.000 A 
ATOM      5  C   UNL     1       1.956   6.440  20.484  0.00  0.00    +0.000 A 
ATOM      6  C   UNL     1       1.303   7.525  21.074  0.00  0.00    +0.000 A 
ATOM      7  C   UNL     1       1.184   8.731  20.377  0.00  0.00    +0.000 A 
ATOM      8  C   UNL     1       1.716   8.844  19.093  0.00  0.00    +0.000 A 
ATOM      9 BR   UNL     1       1.533  10.476  18.152  0.00  0.00    +0.000 Br
ATOM     10  C   UNL     1       2.373   7.770  18.493  0.00  0.00    +0.000 A 
ENDBRANCH   2   4
BRANCH   2  11
ATOM     11  C   UNL     1       4.242   5.903  17.125  0.00  0.00    +0.000 C 
BRANCH  11  12
ATOM     12  C   UNL     1       5.305   4.944  16.594  0.00  0.00    +0.000 C 
BRANCH  12  13
ATOM     13  N   UNL     1       6.658   5.491  16.805  0.00  0.00    +0.000 NA
ATOM     14  C   UNL     1       6.660   6.862  17.339  0.00  0.00    +0.000 C 
ATOM     15  C   UNL     1       7.845   6.938  18.287  0.00  0.00    +0.000 C 
ATOM     16  C   UNL     1       7.899   5.540  18.868  0.00  0.00    +0.000 C 
ATOM     17  C   UNL     1       7.510   4.658  17.681  0.00  0.00    +0.000 C 
BRANCH  16  18
ATOM     18  O   UNL     1       6.955   5.416  19.930  0.00  0.00    +0.000 OA
ATOM     19  H   UNL     1       6.801   4.467  20.083  0.00  0.00    +0.000 HD
ENDBRANCH  16  18
ENDBRANCH  12  13
ENDBRANCH  11  12
ENDBRANCH   2  11
TORSDOF 5
ENDMDL
MODEL 9
REMARK VINA RESULT:      -6.2      4.318      5.607
REMARK  Name = 
REMARK  5 active torsions:
REMARK  status: ('A' for Active; 'I' for Inactive)
REMARK    1  A    between atoms: S_2  and  C_4
REMARK    2  A    between atoms: S_2  and  C_12
REMARK    3  A    between atoms: C_4  and  C_5
REMARK    4  A    between atoms: C_5  and  N_6
REMARK    5  A    between atoms: C_9  and  O_10
REMARK                            x       y       z     vdW  Elec       q    Type
REMARK                         _______ _______ _______ _____ _____    ______ ____
ROOT
ATOM      1  O   UNL     1       5.095   4.172  19.283  0.00  0.00    +0.000 OA
ATOM      2  S   UNL     1       4.421   3.744  18.075  0.00  0.00    +0.000 S 
ATOM      3  O   UNL     1       4.007   2.362  17.904  0.00  0.00    +0.000 OA
ENDROOT
BRANCH   2   4
ATOM      4  C   UNL     1       5.486   4.149  16.701  0.00  0.00    +0.000 A 
ATOM      5  C   UNL     1       6.615   4.944  16.914  0.00  0.00    +0.000 A 
ATOM      6  C   UNL     1       7.431   5.292  15.835  0.00  0.00    +0.000 A 
ATOM      7  C   UNL     1       7.108   4.855  14.547  0.00  0.00    +0.000 A 
ATOM      8  C   UNL     1       5.971   4.074  14.345  0.00  0.00    +0.000 A 
ATOM      9 BR   UNL     1       5.535   3.502  12.595  0.00  0.00    +0.000 Br
ATOM     10  C   UNL     1       5.150   3.716  15.415  0.00  0.00    +0.000 A 
ENDBRANCH   2   4
BRANCH   2  11
ATOM     11  C   UNL     1       3.003   4.783  17.813  0.00  0.00    +0.000 C 
BRANCH  11  12
ATOM     12  C   UNL     1       2.707   5.653  19.033  0.00  0.00    +0.000 C 
BRANCH  12  13
ATOM     13  N   UNL     1       1.730   4.998  19.920  0.00  0.00    +0.000 NA
ATOM     14  C   UNL     1       1.156   3.767  19.357  0.00  0.00    +0.000 C 
ATOM     15  C   UNL     1       0.970   2.819  20.528  0.00  0.00    +0.000 C 
ATOM     16  C   UNL     1       2.138   3.167  21.429  0.00  0.00    +0.000 C 
ATOM     17  C   UNL     1       2.261   4.681  21.264  0.00  0.00    +0.000 C 
BRANCH  16  18
ATOM     18  O   UNL     1       3.318   2.503  20.977  0.00  0.00    +0.000 OA
ATOM     19  H   UNL     1       3.318   1.606  21.353  0.00  0.00    +0.000 HD
ENDBRANCH  16  18
ENDBRANCH  12  13
ENDBRANCH  11  12
ENDBRANCH   2  11
TORSDOF 5
ENDMDL
