MODEL 1
REMARK VINA RESULT:      -7.1      0.000      0.000
REMARK  Name = 
REMARK  4 active torsions:
REMARK  status: ('A' for Active; 'I' for Inactive)
REMARK    1  A    between atoms: C_2  and  C_3
REMARK    2  A    between atoms: C_2  and  C_12
REMARK    3  A    between atoms: C_3  and  C_4
REMARK    4  A    between atoms: C_4  and  C_5
REMARK                            x       y       z     vdW  Elec       q    Type
REMARK                         _______ _______ _______ _____ _____    ______ ____
ROOT
ATOM      1  O   UNL     1       5.912   3.811  14.490  0.00  0.00    +0.000 OA
ATOM      2  C   UNL     1       5.588   4.302  15.563  0.00  0.00    +0.000 C 
ENDROOT
BRANCH   2   3
ATOM      3  C   UNL     1       5.996   5.727  15.919  0.00  0.00    +0.000 C 
ATOM      4  O   UNL     1       5.480   6.642  15.286  0.00  0.00    +0.000 OA
ATOM      5  N   UNL     1       6.939   5.910  16.911  0.00  0.00    +0.000 N 
ATOM      6  C   UNL     1       7.615   4.900  17.703  0.00  0.00    +0.000 C 
ATOM      7  C   UNL     1       7.800   5.591  19.043  0.00  0.00    +0.000 C 
ATOM      8  C   UNL     1       8.077   7.041  18.653  0.00  0.00    +0.000 C 
ATOM      9  C   UNL     1       7.292   7.243  17.360  0.00  0.00    +0.000 C 
ENDBRANCH   2   3
BRANCH   2  10
ATOM     10  C   UNL     1       4.810   3.585  16.639  0.00  0.00    +0.000 C 
BRANCH  10  11
ATOM     11  C   UNL     1       3.493   4.289  16.951  0.00  0.00    +0.000 C 
BRANCH  11  12
ATOM     12  C   UNL     1       2.905   3.789  18.249  0.00  0.00    +0.000 A 
ATOM     13  C   UNL     1       1.518   3.815  18.453  0.00  0.00    +0.000 A 
ATOM     14  C   UNL     1       0.974   3.391  19.666  0.00  0.00    +0.000 A 
ATOM     15  C   UNL     1       1.813   2.942  20.683  0.00  0.00    +0.000 A 
ATOM     16 CL   UNL     1       1.141   2.429  22.183  0.00  0.00    +0.000 Cl
ATOM     17  C   UNL     1       3.193   2.910  20.496  0.00  0.00    +0.000 A 
ATOM     18  C   UNL     1       3.739   3.335  19.282  0.00  0.00    +0.000 A 
ENDBRANCH  11  12
ENDBRANCH  10  11
ENDBRANCH   2  10
TORSDOF 4
ENDMDL
MODEL 2
REMARK VINA RESULT:      -6.9      3.632      5.108
REMARK  Name = 
REMARK  4 active torsions:
REMARK  status: ('A' for Active; 'I' for Inactive)
REMARK    1  A    between atoms: C_2  and  C_3
REMARK    2  A    between atoms: C_2  and  C_12
REMARK    3  A    between atoms: C_3  and  C_4
REMARK    4  A    between atoms: C_4  and  C_5
REMARK                            x       y       z     vdW  Elec       q    Type
REMARK                         _______ _______ _______ _____ _____    ______ ____
ROOT
ATOM      1  O   UNL     1       5.729   4.283  16.482  0.00  0.00    +0.000 OA
ATOM      2  C   UNL     1       5.265   4.738  17.519  0.00  0.00    +0.000 C 
ENDROOT
BRANCH   2   3
ATOM      3  C   UNL     1       4.778   3.808  18.625  0.00  0.00    +0.000 C 
ATOM      4  O   UNL     1       5.561   3.535  19.527  0.00  0.00    +0.000 OA
ATOM      5  N   UNL     1       3.496   3.303  18.537  0.00  0.00    +0.000 N 
ATOM      6  C   UNL     1       2.502   3.550  17.509  0.00  0.00    +0.000 C 
ATOM      7  C   UNL     1       1.196   3.504  18.284  0.00  0.00    +0.000 C 
ATOM      8  C   UNL     1       1.446   2.413  19.322  0.00  0.00    +0.000 C 
ATOM      9  C   UNL     1       2.943   2.494  19.607  0.00  0.00    +0.000 C 
ENDBRANCH   2   3
BRANCH   2  10
ATOM     10  C   UNL     1       5.091   6.208  17.813  0.00  0.00    +0.000 C 
BRANCH  10  11
ATOM     11  C   UNL     1       3.876   6.788  17.097  0.00  0.00    +0.000 C 
BRANCH  11  12
ATOM     12  C   UNL     1       2.929   7.441  18.075  0.00  0.00    +0.000 A 
ATOM     13  C   UNL     1       2.321   8.665  17.763  0.00  0.00    +0.000 A 
ATOM     14  C   UNL     1       1.477   9.290  18.680  0.00  0.00    +0.000 A 
ATOM     15  C   UNL     1       1.237   8.697  19.918  0.00  0.00    +0.000 A 
ATOM     16 CL   UNL     1       0.202   9.474  21.053  0.00  0.00    +0.000 Cl
ATOM     17  C   UNL     1       1.833   7.480  20.244  0.00  0.00    +0.000 A 
ATOM     18  C   UNL     1       2.679   6.854  19.325  0.00  0.00    +0.000 A 
ENDBRANCH  11  12
ENDBRANCH  10  11
ENDBRANCH   2  10
TORSDOF 4
ENDMDL
MODEL 3
REMARK VINA RESULT:      -6.9      3.844      5.528
REMARK  Name = 
REMARK  4 active torsions:
REMARK  status: ('A' for Active; 'I' for Inactive)
REMARK    1  A    between atoms: C_2  and  C_3
REMARK    2  A    between atoms: C_2  and  C_12
REMARK    3  A    between atoms: C_3  and  C_4
REMARK    4  A    between atoms: C_4  and  C_5
REMARK                            x       y       z     vdW  Elec       q    Type
REMARK                         _______ _______ _______ _____ _____    ______ ____
ROOT
ATOM      1  O   UNL     1       3.760   3.880  16.904  0.00  0.00    +0.000 OA
ATOM      2  C   UNL     1       4.200   4.415  17.913  0.00  0.00    +0.000 C 
ENDROOT
BRANCH   2   3
ATOM      3  C   UNL     1       4.241   3.659  19.237  0.00  0.00    +0.000 C 
ATOM      4  O   UNL     1       5.341   3.427  19.726  0.00  0.00    +0.000 OA
ATOM      5  N   UNL     1       3.046   3.254  19.796  0.00  0.00    +0.000 N 
ATOM      6  C   UNL     1       1.702   3.464  19.292  0.00  0.00    +0.000 C 
ATOM      7  C   UNL     1       0.884   3.612  20.563  0.00  0.00    +0.000 C 
ATOM      8  C   UNL     1       1.550   2.629  21.523  0.00  0.00    +0.000 C 
ATOM      9  C   UNL     1       3.016   2.619  21.100  0.00  0.00    +0.000 C 
ENDBRANCH   2   3
BRANCH   2  10
ATOM     10  C   UNL     1       4.703   5.836  17.986  0.00  0.00    +0.000 C 
BRANCH  10  11
ATOM     11  C   UNL     1       3.795   6.798  17.227  0.00  0.00    +0.000 C 
BRANCH  11  12
ATOM     12  C   UNL     1       2.893   7.554  18.174  0.00  0.00    +0.000 A 
ATOM     13  C   UNL     1       2.657   7.066  19.466  0.00  0.00    +0.000 A 
ATOM     14  C   UNL     1       1.793   7.740  20.330  0.00  0.00    +0.000 A 
ATOM     15  C   UNL     1       1.158   8.905  19.906  0.00  0.00    +0.000 A 
ATOM     16 CL   UNL     1       0.086   9.731  20.969  0.00  0.00    +0.000 Cl
ATOM     17  C   UNL     1       1.383   9.404  18.624  0.00  0.00    +0.000 A 
ATOM     18  C   UNL     1       2.247   8.728  17.759  0.00  0.00    +0.000 A 
ENDBRANCH  11  12
ENDBRANCH  10  11
ENDBRANCH   2  10
TORSDOF 4
ENDMDL
MODEL 4
REMARK VINA RESULT:      -6.9      4.794      7.976
REMARK  Name = 
REMARK  4 active torsions:
REMARK  status: ('A' for Active; 'I' for Inactive)
REMARK    1  A    between atoms: C_2  and  C_3
REMARK    2  A    between atoms: C_2  and  C_12
REMARK    3  A    between atoms: C_3  and  C_4
REMARK    4  A    between atoms: C_4  and  C_5
REMARK                            x       y       z     vdW  Elec       q    Type
REMARK                         _______ _______ _______ _____ _____    ______ ____
ROOT
ATOM      1  O   UNL     1       7.603   6.467  16.425  0.00  0.00    +0.000 OA
ATOM      2  C   UNL     1       7.501   6.703  17.621  0.00  0.00    +0.000 C 
ENDROOT
BRANCH   2   3
ATOM      3  C   UNL     1       6.592   5.856  18.505  0.00  0.00    +0.000 C 
ATOM      4  O   UNL     1       7.121   5.143  19.350  0.00  0.00    +0.000 OA
ATOM      5  N   UNL     1       5.230   5.917  18.289  0.00  0.00    +0.000 N 
ATOM      6  C   UNL     1       4.510   6.711  17.312  0.00  0.00    +0.000 C 
ATOM      7  C   UNL     1       3.214   7.041  18.033  0.00  0.00    +0.000 C 
ATOM      8  C   UNL     1       2.929   5.773  18.834  0.00  0.00    +0.000 C 
ATOM      9  C   UNL     1       4.310   5.211  19.161  0.00  0.00    +0.000 C 
ENDBRANCH   2   3
BRANCH   2  10
ATOM     10  C   UNL     1       8.201   7.831  18.340  0.00  0.00    +0.000 C 
BRANCH  10  11
ATOM     11  C   UNL     1       8.023   9.161  17.615  0.00  0.00    +0.000 C 
BRANCH  11  12
ATOM     12  C   UNL     1       8.736  10.276  18.344  0.00  0.00    +0.000 A 
ATOM     13  C   UNL     1       9.296  10.048  19.609  0.00  0.00    +0.000 A 
ATOM     14  C   UNL     1       9.921  11.085  20.302  0.00  0.00    +0.000 A 
ATOM     15  C   UNL     1       9.986  12.356  19.738  0.00  0.00    +0.000 A 
ATOM     16 CL   UNL     1      10.749  13.637  20.599  0.00  0.00    +0.000 Cl
ATOM     17  C   UNL     1       9.435  12.599  18.481  0.00  0.00    +0.000 A 
ATOM     18  C   UNL     1       8.808  11.561  17.787  0.00  0.00    +0.000 A 
ENDBRANCH  11  12
ENDBRANCH  10  11
ENDBRANCH   2  10
TORSDOF 4
ENDMDL
MODEL 5
REMARK VINA RESULT:      -6.9      3.722      5.375
REMARK  Name = 
REMARK  4 active torsions:
REMARK  status: ('A' for Active; 'I' for Inactive)
REMARK    1  A    between atoms: C_2  and  C_3
REMARK    2  A    between atoms: C_2  and  C_12
REMARK    3  A    between atoms: C_3  and  C_4
REMARK    4  A    between atoms: C_4  and  C_5
REMARK                            x       y       z     vdW  Elec       q    Type
REMARK                         _______ _______ _______ _____ _____    ______ ____
ROOT
ATOM      1  O   UNL     1       4.868   3.210  16.777  0.00  0.00    +0.000 OA
ATOM      2  C   UNL     1       4.218   3.840  17.600  0.00  0.00    +0.000 C 
ENDROOT
BRANCH   2   3
ATOM      3  C   UNL     1       4.256   3.459  19.075  0.00  0.00    +0.000 C 
ATOM      4  O   UNL     1       5.342   3.485  19.643  0.00  0.00    +0.000 OA
ATOM      5  N   UNL     1       3.076   3.080  19.684  0.00  0.00    +0.000 N 
ATOM      6  C   UNL     1       1.750   3.002  19.100  0.00  0.00    +0.000 C 
ATOM      7  C   UNL     1       0.847   3.379  20.262  0.00  0.00    +0.000 C 
ATOM      8  C   UNL     1       1.550   2.755  21.466  0.00  0.00    +0.000 C 
ATOM      9  C   UNL     1       3.032   2.802  21.107  0.00  0.00    +0.000 C 
ENDBRANCH   2   3
BRANCH   2  10
ATOM     10  C   UNL     1       3.310   5.001  17.275  0.00  0.00    +0.000 C 
BRANCH  10  11
ATOM     11  C   UNL     1       3.933   6.336  17.669  0.00  0.00    +0.000 C 
BRANCH  11  12
ATOM     12  C   UNL     1       2.938   7.204  18.402  0.00  0.00    +0.000 A 
ATOM     13  C   UNL     1       2.472   8.391  17.820  0.00  0.00    +0.000 A 
ATOM     14  C   UNL     1       1.583   9.215  18.511  0.00  0.00    +0.000 A 
ATOM     15  C   UNL     1       1.157   8.860  19.788  0.00  0.00    +0.000 A 
ATOM     16 CL   UNL     1       0.068   9.883  20.643  0.00  0.00    +0.000 Cl
ATOM     17  C   UNL     1       1.611   7.683  20.380  0.00  0.00    +0.000 A 
ATOM     18  C   UNL     1       2.502   6.858  19.690  0.00  0.00    +0.000 A 
ENDBRANCH  11  12
ENDBRANCH  10  11
ENDBRANCH   2  10
TORSDOF 4
ENDMDL
MODEL 6
REMARK VINA RESULT:      -6.9      4.752      7.865
REMARK  Name = 
REMARK  4 active torsions:
REMARK  status: ('A' for Active; 'I' for Inactive)
REMARK    1  A    between atoms: C_2  and  C_3
REMARK    2  A    between atoms: C_2  and  C_12
REMARK    3  A    between atoms: C_3  and  C_4
REMARK    4  A    between atoms: C_4  and  C_5
REMARK                            x       y       z     vdW  Elec       q    Type
REMARK                         _______ _______ _______ _____ _____    ______ ____
ROOT
ATOM      1  O   UNL     1       7.593   6.321  16.450  0.00  0.00    +0.000 OA
ATOM      2  C   UNL     1       7.454   6.592  17.635  0.00  0.00    +0.000 C 
ENDROOT
BRANCH   2   3
ATOM      3  C   UNL     1       6.506   5.780  18.511  0.00  0.00    +0.000 C 
ATOM      4  O   UNL     1       7.002   5.039  19.352  0.00  0.00    +0.000 OA
ATOM      5  N   UNL     1       5.148   5.903  18.294  0.00  0.00    +0.000 N 
ATOM      6  C   UNL     1       4.466   6.735  17.320  0.00  0.00    +0.000 C 
ATOM      7  C   UNL     1       3.185   7.116  18.042  0.00  0.00    +0.000 C 
ATOM      8  C   UNL     1       2.843   5.856  18.833  0.00  0.00    +0.000 C 
ATOM      9  C   UNL     1       4.196   5.232  19.159  0.00  0.00    +0.000 C 
ENDBRANCH   2   3
BRANCH   2  10
ATOM     10  C   UNL     1       8.142   7.733  18.345  0.00  0.00    +0.000 C 
BRANCH  10  11
ATOM     11  C   UNL     1       8.014   9.041  17.571  0.00  0.00    +0.000 C 
BRANCH  11  12
ATOM     12  C   UNL     1       8.652  10.183  18.327  0.00  0.00    +0.000 A 
ATOM     13  C   UNL     1       8.715  11.461  17.755  0.00  0.00    +0.000 A 
ATOM     14  C   UNL     1       9.339  12.509  18.433  0.00  0.00    +0.000 A 
ATOM     15  C   UNL     1       9.905  12.285  19.686  0.00  0.00    +0.000 A 
ATOM     16 CL   UNL     1      10.682  13.576  20.517  0.00  0.00    +0.000 Cl
ATOM     17  C   UNL     1       9.850  11.020  20.268  0.00  0.00    +0.000 A 
ATOM     18  C   UNL     1       9.227   9.970  19.589  0.00  0.00    +0.000 A 
ENDBRANCH  11  12
ENDBRANCH  10  11
ENDBRANCH   2  10
TORSDOF 4
ENDMDL
MODEL 7
REMARK VINA RESULT:      -6.8      3.912      5.681
REMARK  Name = 
REMARK  4 active torsions:
REMARK  status: ('A' for Active; 'I' for Inactive)
REMARK    1  A    between atoms: C_2  and  C_3
REMARK    2  A    between atoms: C_2  and  C_12
REMARK    3  A    between atoms: C_3  and  C_4
REMARK    4  A    between atoms: C_4  and  C_5
REMARK                            x       y       z     vdW  Elec       q    Type
REMARK                         _______ _______ _______ _____ _____    ______ ____
ROOT
ATOM      1  O   UNL     1       1.284   2.096  18.506  0.00  0.00    +0.000 OA
ATOM      2  C   UNL     1       2.267   2.640  18.992  0.00  0.00    +0.000 C 
ENDROOT
BRANCH   2   3
ATOM      3  C   UNL     1       2.108   3.722  20.055  0.00  0.00    +0.000 C 
ATOM      4  O   UNL     1       2.062   3.366  21.227  0.00  0.00    +0.000 OA
ATOM      5  N   UNL     1       1.999   5.034  19.642  0.00  0.00    +0.000 N 
ATOM      6  C   UNL     1       2.026   5.554  18.288  0.00  0.00    +0.000 C 
ATOM      7  C   UNL     1       2.699   6.906  18.459  0.00  0.00    +0.000 C 
ATOM      8  C   UNL     1       2.167   7.391  19.805  0.00  0.00    +0.000 C 
ATOM      9  C   UNL     1       1.945   6.114  20.610  0.00  0.00    +0.000 C 
ENDBRANCH   2   3
BRANCH   2  10
ATOM     10  C   UNL     1       3.695   2.353  18.597  0.00  0.00    +0.000 C 
BRANCH  10  11
ATOM     11  C   UNL     1       4.025   2.911  17.217  0.00  0.00    +0.000 C 
BRANCH  11  12
ATOM     12  C   UNL     1       4.976   4.080  17.317  0.00  0.00    +0.000 A 
ATOM     13  C   UNL     1       5.555   4.416  18.549  0.00  0.00    +0.000 A 
ATOM     14  C   UNL     1       6.403   5.519  18.653  0.00  0.00    +0.000 A 
ATOM     15  C   UNL     1       6.676   6.293  17.529  0.00  0.00    +0.000 A 
ATOM     16 CL   UNL     1       7.716   7.659  17.661  0.00  0.00    +0.000 Cl
ATOM     17  C   UNL     1       6.109   5.972  16.297  0.00  0.00    +0.000 A 
ATOM     18  C   UNL     1       5.259   4.868  16.192  0.00  0.00    +0.000 A 
ENDBRANCH  11  12
ENDBRANCH  10  11
ENDBRANCH   2  10
TORSDOF 4
ENDMDL
MODEL 8
REMARK VINA RESULT:      -6.7      3.923      5.569
REMARK  Name = 
REMARK  4 active torsions:
REMARK  status: ('A' for Active; 'I' for Inactive)
REMARK    1  A    between atoms: C_2  and  C_3
REMARK    2  A    between atoms: C_2  and  C_12
REMARK    3  A    between atoms: C_3  and  C_4
REMARK    4  A    between atoms: C_4  and  C_5
REMARK                            x       y       z     vdW  Elec       q    Type
REMARK                         _______ _______ _______ _____ _____    ______ ____
ROOT
ATOM      1  O   UNL     1       0.202   2.057  18.303  0.00  0.00    +0.000 OA
ATOM      2  C   UNL     1       1.322   2.415  18.645  0.00  0.00    +0.000 C 
ENDROOT
BRANCH   2   3
ATOM      3  C   UNL     1       1.503   3.419  19.777  0.00  0.00    +0.000 C 
ATOM      4  O   UNL     1       1.503   2.990  20.925  0.00  0.00    +0.000 OA
ATOM      5  N   UNL     1       1.630   4.755  19.452  0.00  0.00    +0.000 N 
ATOM      6  C   UNL     1       1.627   5.363  18.134  0.00  0.00    +0.000 C 
ATOM      7  C   UNL     1       2.582   6.533  18.300  0.00  0.00    +0.000 C 
ATOM      8  C   UNL     1       2.305   7.009  19.724  0.00  0.00    +0.000 C 
ATOM      9  C   UNL     1       1.903   5.744  20.477  0.00  0.00    +0.000 C 
ENDBRANCH   2   3
BRANCH   2  10
ATOM     10  C   UNL     1       2.607   1.957  17.999  0.00  0.00    +0.000 C 
BRANCH  10  11
ATOM     11  C   UNL     1       3.808   2.172  18.915  0.00  0.00    +0.000 C 
BRANCH  11  12
ATOM     12  C   UNL     1       4.610   3.377  18.485  0.00  0.00    +0.000 A 
ATOM     13  C   UNL     1       4.763   3.675  17.124  0.00  0.00    +0.000 A 
ATOM     14  C   UNL     1       5.535   4.766  16.721  0.00  0.00    +0.000 A 
ATOM     15  C   UNL     1       6.161   5.562  17.676  0.00  0.00    +0.000 A 
ATOM     16 CL   UNL     1       7.122   6.901  17.178  0.00  0.00    +0.000 Cl
ATOM     17  C   UNL     1       6.018   5.280  19.033  0.00  0.00    +0.000 A 
ATOM     18  C   UNL     1       5.246   4.188  19.437  0.00  0.00    +0.000 A 
ENDBRANCH  11  12
ENDBRANCH  10  11
ENDBRANCH   2  10
TORSDOF 4
ENDMDL
MODEL 9
REMARK VINA RESULT:      -6.6      4.333      5.877
REMARK  Name = 
REMARK  4 active torsions:
REMARK  status: ('A' for Active; 'I' for Inactive)
REMARK    1  A    between atoms: C_2  and  C_3
REMARK    2  A    between atoms: C_2  and  C_12
REMARK    3  A    between atoms: C_3  and  C_4
REMARK    4  A    between atoms: C_4  and  C_5
REMARK                            x       y       z     vdW  Elec       q    Type
REMARK                         _______ _______ _______ _____ _____    ______ ____
ROOT
ATOM      1  O   UNL     1       4.095   4.351  16.609  0.00  0.00    +0.000 OA
ATOM      2  C   UNL     1       4.059   4.839  17.731  0.00  0.00    +0.000 C 
ENDROOT
BRANCH   2   3
ATOM      3  C   UNL     1       4.162   3.952  18.967  0.00  0.00    +0.000 C 
ATOM      4  O   UNL     1       5.276   3.760  19.439  0.00  0.00    +0.000 OA
ATOM      5  N   UNL     1       3.003   3.394  19.469  0.00  0.00    +0.000 N 
ATOM      6  C   UNL     1       1.647   3.546  18.976  0.00  0.00    +0.000 C 
ATOM      7  C   UNL     1       0.818   3.491  20.249  0.00  0.00    +0.000 C 
ATOM      8  C   UNL     1       1.562   2.469  21.105  0.00  0.00    +0.000 C 
ATOM      9  C   UNL     1       3.024   2.624  20.698  0.00  0.00    +0.000 C 
ENDBRANCH   2   3
BRANCH   2  10
ATOM     10  C   UNL     1       3.883   6.309  18.025  0.00  0.00    +0.000 C 
BRANCH  10  11
ATOM     11  C   UNL     1       3.165   6.538  19.352  0.00  0.00    +0.000 C 
BRANCH  11  12
ATOM     12  C   UNL     1       2.239   7.729  19.269  0.00  0.00    +0.000 A 
ATOM     13  C   UNL     1       2.048   8.391  18.048  0.00  0.00    +0.000 A 
ATOM     14  C   UNL     1       1.224   9.515  17.976  0.00  0.00    +0.000 A 
ATOM     15  C   UNL     1       0.590   9.986  19.123  0.00  0.00    +0.000 A 
ATOM     16 CL   UNL     1      -0.418  11.378  19.034  0.00  0.00    +0.000 Cl
ATOM     17  C   UNL     1       0.769   9.337  20.343  0.00  0.00    +0.000 A 
ATOM     18  C   UNL     1       1.595   8.213  20.417  0.00  0.00    +0.000 A 
ENDBRANCH  11  12
ENDBRANCH  10  11
ENDBRANCH   2  10
TORSDOF 4
ENDMDL
