MODEL 1
REMARK VINA RESULT:      -7.8      0.000      0.000
REMARK  Name = 
REMARK  8 active torsions:
REMARK  status: ('A' for Active; 'I' for Inactive)
REMARK    1  A    between atoms: C_1  and  O_2
REMARK    2  A    between atoms: O_2  and  C_3
REMARK    3  A    between atoms: C_6  and  C_7
REMARK    4  A    between atoms: C_7  and  C_8
REMARK    5  A    between atoms: C_9  and  C_10
REMARK    6  A    between atoms: C_10  and  N_11
REMARK    7  A    between atoms: C_14  and  C_15
REMARK    8  A    between atoms: C_15  and  C_16
REMARK                            x       y       z     vdW  Elec       q    Type
REMARK                         _______ _______ _______ _____ _____    ______ ____
ROOT
ATOM      1  N   UNL     1       4.422   6.270  18.257  0.00  0.00    +0.000 NA
ATOM      2  C   UNL     1       5.473   5.411  18.830  0.00  0.00    +0.000 C 
ATOM      3  C   UNL     1       6.862   5.900  18.430  0.00  0.00    +0.000 C 
ATOM      4  C   UNL     1       7.036   5.914  16.908  0.00  0.00    +0.000 C 
ATOM      5  C   UNL     1       5.911   6.784  16.319  0.00  0.00    +0.000 C 
ATOM      6  C   UNL     1       4.520   6.340  16.789  0.00  0.00    +0.000 C 
ENDROOT
BRANCH   1   7
ATOM      7  C   UNL     1       3.086   5.794  18.642  0.00  0.00    +0.000 C 
BRANCH   7  10
ATOM      8  C   UNL     1       1.873   7.949  19.265  0.00  0.00    +0.000 C 
ATOM      9  C   UNL     1       1.913   8.449  17.841  0.00  0.00    +0.000 C 
ATOM     10  C   UNL     1       2.390   6.743  19.584  0.00  0.00    +0.000 C 
BRANCH   8  14
ATOM     11  C   UNL     1      -0.060  10.383  22.285  0.00  0.00    +0.000 A 
ATOM     12  C   UNL     1       0.743   9.303  22.647  0.00  0.00    +0.000 A 
ATOM     13  C   UNL     1       1.375   8.526  21.671  0.00  0.00    +0.000 A 
ATOM     14  C   UNL     1       1.195   8.781  20.301  0.00  0.00    +0.000 A 
ATOM     15  C   UNL     1       0.366   9.859  19.956  0.00  0.00    +0.000 A 
ATOM     16  C   UNL     1      -0.249  10.656  20.933  0.00  0.00    +0.000 A 
BRANCH  11  18
ATOM     17  C   UNL     1      -1.786  11.829  23.000  0.00  0.00    +0.000 C 
ATOM     18  O   UNL     1      -0.630  11.066  23.322  0.00  0.00    +0.000 OA
ENDBRANCH  11  18
ENDBRANCH   8  14
ENDBRANCH   7  10
ENDBRANCH   1   7
BRANCH   4  19
ATOM     19  C   UNL     1       7.027   4.505  16.270  0.00  0.00    +0.000 C 
BRANCH  19  20
ATOM     20  C   UNL     1       6.944   4.465  14.763  0.00  0.00    +0.000 A 
ATOM     21  C   UNL     1       7.840   5.219  13.986  0.00  0.00    +0.000 A 
ATOM     22  C   UNL     1       7.813   5.141  12.594  0.00  0.00    +0.000 A 
ATOM     23  C   UNL     1       6.894   4.306  11.961  0.00  0.00    +0.000 A 
ATOM     24  C   UNL     1       5.996   3.561  12.720  0.00  0.00    +0.000 A 
ATOM     25  C   UNL     1       6.018   3.640  14.114  0.00  0.00    +0.000 A 
ENDBRANCH  19  20
ENDBRANCH   4  19
TORSDOF 6
ENDMDL
MODEL 2
REMARK VINA RESULT:      -7.5      0.468      1.426
REMARK  Name = 
REMARK  8 active torsions:
REMARK  status: ('A' for Active; 'I' for Inactive)
REMARK    1  A    between atoms: C_1  and  O_2
REMARK    2  A    between atoms: O_2  and  C_3
REMARK    3  A    between atoms: C_6  and  C_7
REMARK    4  A    between atoms: C_7  and  C_8
REMARK    5  A    between atoms: C_9  and  C_10
REMARK    6  A    between atoms: C_10  and  N_11
REMARK    7  A    between atoms: C_14  and  C_15
REMARK    8  A    between atoms: C_15  and  C_16
REMARK                            x       y       z     vdW  Elec       q    Type
REMARK                         _______ _______ _______ _____ _____    ______ ____
ROOT
ATOM      1  N   UNL     1       4.193   6.041  18.540  0.00  0.00    +0.000 NA
ATOM      2  C   UNL     1       5.194   5.031  18.927  0.00  0.00    +0.000 C 
ATOM      3  C   UNL     1       6.589   5.431  18.457  0.00  0.00    +0.000 C 
ATOM      4  C   UNL     1       6.644   5.596  16.935  0.00  0.00    +0.000 C 
ATOM      5  C   UNL     1       5.569   6.625  16.540  0.00  0.00    +0.000 C 
ATOM      6  C   UNL     1       4.182   6.261  17.083  0.00  0.00    +0.000 C 
ENDROOT
BRANCH   1   7
ATOM      7  C   UNL     1       2.850   5.649  18.991  0.00  0.00    +0.000 C 
BRANCH   7  10
ATOM      8  C   UNL     1       1.794   7.916  19.495  0.00  0.00    +0.000 C 
ATOM      9  C   UNL     1       1.882   8.341  18.049  0.00  0.00    +0.000 C 
ATOM     10  C   UNL     1       2.218   6.692  19.878  0.00  0.00    +0.000 C 
BRANCH   8  14
ATOM     11  C   UNL     1      -0.052  10.605  22.348  0.00  0.00    +0.000 A 
ATOM     12  C   UNL     1      -0.055  10.900  20.987  0.00  0.00    +0.000 A 
ATOM     13  C   UNL     1       0.531  10.025  20.066  0.00  0.00    +0.000 A 
ATOM     14  C   UNL     1       1.172   8.846  20.482  0.00  0.00    +0.000 A 
ATOM     15  C   UNL     1       1.182   8.576  21.858  0.00  0.00    +0.000 A 
ATOM     16  C   UNL     1       0.573   9.439  22.782  0.00  0.00    +0.000 A 
BRANCH  11  18
ATOM     17  C   UNL     1      -0.862  12.814  22.570  0.00  0.00    +0.000 C 
ATOM     18  O   UNL     1      -0.649  11.534  23.153  0.00  0.00    +0.000 OA
ENDBRANCH  11  18
ENDBRANCH   8  14
ENDBRANCH   7  10
ENDBRANCH   1   7
BRANCH   4  19
ATOM     19  C   UNL     1       6.443   4.273  16.160  0.00  0.00    +0.000 C 
BRANCH  19  20
ATOM     20  C   UNL     1       6.743   4.323  14.682  0.00  0.00    +0.000 A 
ATOM     21  C   UNL     1       6.041   3.495  13.790  0.00  0.00    +0.000 A 
ATOM     22  C   UNL     1       6.267   3.577  12.416  0.00  0.00    +0.000 A 
ATOM     23  C   UNL     1       7.192   4.491  11.916  0.00  0.00    +0.000 A 
ATOM     24  C   UNL     1       7.900   5.311  12.791  0.00  0.00    +0.000 A 
ATOM     25  C   UNL     1       7.680   5.228  14.167  0.00  0.00    +0.000 A 
ENDBRANCH  19  20
ENDBRANCH   4  19
TORSDOF 6
ENDMDL
MODEL 3
REMARK VINA RESULT:      -7.4      2.296      4.668
REMARK  Name = 
REMARK  8 active torsions:
REMARK  status: ('A' for Active; 'I' for Inactive)
REMARK    1  A    between atoms: C_1  and  O_2
REMARK    2  A    between atoms: O_2  and  C_3
REMARK    3  A    between atoms: C_6  and  C_7
REMARK    4  A    between atoms: C_7  and  C_8
REMARK    5  A    between atoms: C_9  and  C_10
REMARK    6  A    between atoms: C_10  and  N_11
REMARK    7  A    between atoms: C_14  and  C_15
REMARK    8  A    between atoms: C_15  and  C_16
REMARK                            x       y       z     vdW  Elec       q    Type
REMARK                         _______ _______ _______ _____ _____    ______ ____
ROOT
ATOM      1  N   UNL     1       4.091   6.839  17.793  0.00  0.00    +0.000 NA
ATOM      2  C   UNL     1       3.757   6.101  19.023  0.00  0.00    +0.000 C 
ATOM      3  C   UNL     1       4.890   5.161  19.427  0.00  0.00    +0.000 C 
ATOM      4  C   UNL     1       5.192   4.140  18.327  0.00  0.00    +0.000 C 
ATOM      5  C   UNL     1       5.504   4.922  17.038  0.00  0.00    +0.000 C 
ATOM      6  C   UNL     1       4.399   5.924  16.679  0.00  0.00    +0.000 C 
ENDROOT
BRANCH   1   7
ATOM      7  C   UNL     1       2.996   7.739  17.406  0.00  0.00    +0.000 C 
BRANCH   7  10
ATOM      8  C   UNL     1       1.725   9.436  18.823  0.00  0.00    +0.000 C 
ATOM      9  C   UNL     1       1.984  10.543  17.830  0.00  0.00    +0.000 C 
ATOM     10  C   UNL     1       2.176   8.185  18.590  0.00  0.00    +0.000 C 
BRANCH   8  14
ATOM     11  C   UNL     1      -0.683  10.293  22.323  0.00  0.00    +0.000 A 
ATOM     12  C   UNL     1      -0.619  11.195  21.264  0.00  0.00    +0.000 A 
ATOM     13  C   UNL     1       0.149  10.912  20.130  0.00  0.00    +0.000 A 
ATOM     14  C   UNL     1       0.908   9.733  20.036  0.00  0.00    +0.000 A 
ATOM     15  C   UNL     1       0.849   8.847  21.121  0.00  0.00    +0.000 A 
ATOM     16  C   UNL     1       0.059   9.117  22.249  0.00  0.00    +0.000 A 
BRANCH  11  18
ATOM     17  C   UNL     1      -2.233  11.855  23.182  0.00  0.00    +0.000 C 
ATOM     18  O   UNL     1      -1.460  10.678  23.379  0.00  0.00    +0.000 OA
ENDBRANCH  11  18
ENDBRANCH   8  14
ENDBRANCH   7  10
ENDBRANCH   1   7
BRANCH   4  19
ATOM     19  C   UNL     1       4.046   3.129  18.088  0.00  0.00    +0.000 C 
BRANCH  19  20
ATOM     20  C   UNL     1       3.055   2.977  19.216  0.00  0.00    +0.000 A 
ATOM     21  C   UNL     1       3.492   2.585  20.492  0.00  0.00    +0.000 A 
ATOM     22  C   UNL     1       2.594   2.502  21.557  0.00  0.00    +0.000 A 
ATOM     23  C   UNL     1       1.250   2.815  21.360  0.00  0.00    +0.000 A 
ATOM     24  C   UNL     1       0.804   3.196  20.098  0.00  0.00    +0.000 A 
ATOM     25  C   UNL     1       1.700   3.277  19.030  0.00  0.00    +0.000 A 
ENDBRANCH  19  20
ENDBRANCH   4  19
TORSDOF 6
ENDMDL
MODEL 4
REMARK VINA RESULT:      -7.3      4.891      7.680
REMARK  Name = 
REMARK  8 active torsions:
REMARK  status: ('A' for Active; 'I' for Inactive)
REMARK    1  A    between atoms: C_1  and  O_2
REMARK    2  A    between atoms: O_2  and  C_3
REMARK    3  A    between atoms: C_6  and  C_7
REMARK    4  A    between atoms: C_7  and  C_8
REMARK    5  A    between atoms: C_9  and  C_10
REMARK    6  A    between atoms: C_10  and  N_11
REMARK    7  A    between atoms: C_14  and  C_15
REMARK    8  A    between atoms: C_15  and  C_16
REMARK                            x       y       z     vdW  Elec       q    Type
REMARK                         _______ _______ _______ _____ _____    ______ ____
ROOT
ATOM      1  N   UNL     1       6.591   5.703  17.948  0.00  0.00    +0.000 NA
ATOM      2  C   UNL     1       6.610   4.550  17.032  0.00  0.00    +0.000 C 
ATOM      3  C   UNL     1       5.330   4.484  16.203  0.00  0.00    +0.000 C 
ATOM      4  C   UNL     1       4.090   4.365  17.094  0.00  0.00    +0.000 C 
ATOM      5  C   UNL     1       4.101   5.555  18.071  0.00  0.00    +0.000 C 
ATOM      6  C   UNL     1       5.422   5.665  18.843  0.00  0.00    +0.000 C 
ENDROOT
BRANCH   1   7
ATOM      7  C   UNL     1       7.824   5.760  18.746  0.00  0.00    +0.000 C 
BRANCH   7  10
ATOM      8  C   UNL     1       8.062   8.222  18.123  0.00  0.00    +0.000 C 
ATOM      9  C   UNL     1       7.161   8.063  16.923  0.00  0.00    +0.000 C 
ATOM     10  C   UNL     1       8.321   7.172  18.932  0.00  0.00    +0.000 C 
BRANCH   8  14
ATOM     11  C   UNL     1       9.616  12.161  19.044  0.00  0.00    +0.000 A 
ATOM     12  C   UNL     1       8.919  11.930  17.861  0.00  0.00    +0.000 A 
ATOM     13  C   UNL     1       8.407  10.660  17.570  0.00  0.00    +0.000 A 
ATOM     14  C   UNL     1       8.611   9.574  18.438  0.00  0.00    +0.000 A 
ATOM     15  C   UNL     1       9.333   9.821  19.613  0.00  0.00    +0.000 A 
ATOM     16  C   UNL     1       9.826  11.099  19.919  0.00  0.00    +0.000 A 
BRANCH  11  18
ATOM     17  C   UNL     1      11.042  13.614  20.245  0.00  0.00    +0.000 C 
ATOM     18  O   UNL     1      10.073  13.437  19.218  0.00  0.00    +0.000 OA
ENDBRANCH  11  18
ENDBRANCH   8  14
ENDBRANCH   7  10
ENDBRANCH   1   7
BRANCH   4  19
ATOM     19  C   UNL     1       4.007   3.027  17.865  0.00  0.00    +0.000 C 
BRANCH  19  20
ATOM     20  C   UNL     1       3.057   3.000  19.039  0.00  0.00    +0.000 A 
ATOM     21  C   UNL     1       1.677   3.170  18.834  0.00  0.00    +0.000 A 
ATOM     22  C   UNL     1       0.785   3.085  19.903  0.00  0.00    +0.000 A 
ATOM     23  C   UNL     1       1.259   2.825  21.187  0.00  0.00    +0.000 A 
ATOM     24  C   UNL     1       2.625   2.664  21.403  0.00  0.00    +0.000 A 
ATOM     25  C   UNL     1       3.521   2.752  20.336  0.00  0.00    +0.000 A 
ENDBRANCH  19  20
ENDBRANCH   4  19
TORSDOF 6
ENDMDL
MODEL 5
REMARK VINA RESULT:      -7.3      4.003      9.217
REMARK  Name = 
REMARK  8 active torsions:
REMARK  status: ('A' for Active; 'I' for Inactive)
REMARK    1  A    between atoms: C_1  and  O_2
REMARK    2  A    between atoms: O_2  and  C_3
REMARK    3  A    between atoms: C_6  and  C_7
REMARK    4  A    between atoms: C_7  and  C_8
REMARK    5  A    between atoms: C_9  and  C_10
REMARK    6  A    between atoms: C_10  and  N_11
REMARK    7  A    between atoms: C_14  and  C_15
REMARK    8  A    between atoms: C_15  and  C_16
REMARK                            x       y       z     vdW  Elec       q    Type
REMARK                         _______ _______ _______ _____ _____    ______ ____
ROOT
ATOM      1  N   UNL     1       1.214   9.047  20.485  0.00  0.00    +0.000 NA
ATOM      2  C   UNL     1       1.029   9.103  19.025  0.00  0.00    +0.000 C 
ATOM      3  C   UNL     1       0.489  10.463  18.591  0.00  0.00    +0.000 C 
ATOM      4  C   UNL     1      -0.857  10.771  19.253  0.00  0.00    +0.000 C 
ATOM      5  C   UNL     1      -0.659  10.673  20.776  0.00  0.00    +0.000 C 
ATOM      6  C   UNL     1      -0.040   9.335  21.202  0.00  0.00    +0.000 C 
ENDROOT
BRANCH   1   7
ATOM      7  C   UNL     1       1.730   7.734  20.899  0.00  0.00    +0.000 C 
BRANCH   7  10
ATOM      8  C   UNL     1       2.563   5.772  19.499  0.00  0.00    +0.000 C 
ATOM      9  C   UNL     1       1.634   4.807  20.196  0.00  0.00    +0.000 C 
ATOM     10  C   UNL     1       2.564   7.083  19.826  0.00  0.00    +0.000 C 
BRANCH   8  14
ATOM     11  C   UNL     1       5.058   4.287  16.282  0.00  0.00    +0.000 A 
ATOM     12  C   UNL     1       4.394   3.406  17.133  0.00  0.00    +0.000 A 
ATOM     13  C   UNL     1       3.579   3.887  18.164  0.00  0.00    +0.000 A 
ATOM     14  C   UNL     1       3.434   5.265  18.399  0.00  0.00    +0.000 A 
ATOM     15  C   UNL     1       4.127   6.135  17.546  0.00  0.00    +0.000 A 
ATOM     16  C   UNL     1       4.924   5.656  16.495  0.00  0.00    +0.000 A 
BRANCH  11  18
ATOM     17  C   UNL     1       6.239   4.555  14.253  0.00  0.00    +0.000 C 
ATOM     18  O   UNL     1       5.828   3.704  15.316  0.00  0.00    +0.000 OA
ENDBRANCH  11  18
ENDBRANCH   8  14
ENDBRANCH   7  10
ENDBRANCH   1   7
BRANCH   4  19
ATOM     19  C   UNL     1      -2.003   9.841  18.791  0.00  0.00    +0.000 C 
BRANCH  19  20
ATOM     20  C   UNL     1      -2.713  10.250  17.523  0.00  0.00    +0.000 A 
ATOM     21  C   UNL     1      -3.819  11.114  17.580  0.00  0.00    +0.000 A 
ATOM     22  C   UNL     1      -4.444  11.548  16.410  0.00  0.00    +0.000 A 
ATOM     23  C   UNL     1      -3.967  11.128  15.170  0.00  0.00    +0.000 A 
ATOM     24  C   UNL     1      -2.877  10.265  15.101  0.00  0.00    +0.000 A 
ATOM     25  C   UNL     1      -2.252   9.826  16.270  0.00  0.00    +0.000 A 
ENDBRANCH  19  20
ENDBRANCH   4  19
TORSDOF 6
ENDMDL
MODEL 6
REMARK VINA RESULT:      -7.2      3.827      9.914
REMARK  Name = 
REMARK  8 active torsions:
REMARK  status: ('A' for Active; 'I' for Inactive)
REMARK    1  A    between atoms: C_1  and  O_2
REMARK    2  A    between atoms: O_2  and  C_3
REMARK    3  A    between atoms: C_6  and  C_7
REMARK    4  A    between atoms: C_7  and  C_8
REMARK    5  A    between atoms: C_9  and  C_10
REMARK    6  A    between atoms: C_10  and  N_11
REMARK    7  A    between atoms: C_14  and  C_15
REMARK    8  A    between atoms: C_15  and  C_16
REMARK                            x       y       z     vdW  Elec       q    Type
REMARK                         _______ _______ _______ _____ _____    ______ ____
ROOT
ATOM      1  N   UNL     1       1.114   9.205  20.462  0.00  0.00    +0.000 NA
ATOM      2  C   UNL     1       1.227   9.524  19.029  0.00  0.00    +0.000 C 
ATOM      3  C   UNL     1       0.866  10.982  18.760  0.00  0.00    +0.000 C 
ATOM      4  C   UNL     1      -0.564  11.299  19.207  0.00  0.00    +0.000 C 
ATOM      5  C   UNL     1      -0.680  10.926  20.696  0.00  0.00    +0.000 C 
ATOM      6  C   UNL     1      -0.239   9.483  20.975  0.00  0.00    +0.000 C 
ENDROOT
BRANCH   1   7
ATOM      7  C   UNL     1       1.459   7.798  20.716  0.00  0.00    +0.000 C 
BRANCH   7  10
ATOM      8  C   UNL     1       2.687   5.916  19.510  0.00  0.00    +0.000 C 
ATOM      9  C   UNL     1       2.276   4.904  20.552  0.00  0.00    +0.000 C 
ATOM     10  C   UNL     1       2.283   7.202  19.604  0.00  0.00    +0.000 C 
BRANCH   8  14
ATOM     11  C   UNL     1       4.989   4.579  16.091  0.00  0.00    +0.000 A 
ATOM     12  C   UNL     1       4.288   3.668  16.877  0.00  0.00    +0.000 A 
ATOM     13  C   UNL     1       3.535   4.102  17.974  0.00  0.00    +0.000 A 
ATOM     14  C   UNL     1       3.491   5.459  18.340  0.00  0.00    +0.000 A 
ATOM     15  C   UNL     1       4.221   6.358  17.549  0.00  0.00    +0.000 A 
ATOM     16  C   UNL     1       4.956   5.928  16.433  0.00  0.00    +0.000 A 
BRANCH  11  18
ATOM     17  C   UNL     1       6.794   4.808  14.583  0.00  0.00    +0.000 C 
ATOM     18  O   UNL     1       5.692   4.040  15.050  0.00  0.00    +0.000 OA
ENDBRANCH  11  18
ENDBRANCH   8  14
ENDBRANCH   7  10
ENDBRANCH   1   7
BRANCH   4  19
ATOM     19  C   UNL     1      -1.648  10.572  18.377  0.00  0.00    +0.000 C 
BRANCH  19  20
ATOM     20  C   UNL     1      -3.044  11.141  18.473  0.00  0.00    +0.000 A 
ATOM     21  C   UNL     1      -4.083  10.596  17.700  0.00  0.00    +0.000 A 
ATOM     22  C   UNL     1      -5.388  11.073  17.828  0.00  0.00    +0.000 A 
ATOM     23  C   UNL     1      -5.671  12.095  18.732  0.00  0.00    +0.000 A 
ATOM     24  C   UNL     1      -4.647  12.648  19.496  0.00  0.00    +0.000 A 
ATOM     25  C   UNL     1      -3.339  12.176  19.368  0.00  0.00    +0.000 A 
ENDBRANCH  19  20
ENDBRANCH   4  19
TORSDOF 6
ENDMDL
MODEL 7
REMARK VINA RESULT:      -7.2      5.770      8.222
REMARK  Name = 
REMARK  8 active torsions:
REMARK  status: ('A' for Active; 'I' for Inactive)
REMARK    1  A    between atoms: C_1  and  O_2
REMARK    2  A    between atoms: O_2  and  C_3
REMARK    3  A    between atoms: C_6  and  C_7
REMARK    4  A    between atoms: C_7  and  C_8
REMARK    5  A    between atoms: C_9  and  C_10
REMARK    6  A    between atoms: C_10  and  N_11
REMARK    7  A    between atoms: C_14  and  C_15
REMARK    8  A    between atoms: C_15  and  C_16
REMARK                            x       y       z     vdW  Elec       q    Type
REMARK                         _______ _______ _______ _____ _____    ______ ____
ROOT
ATOM      1  N   UNL     1       7.837   7.249  17.927  0.00  0.00    +0.000 NA
ATOM      2  C   UNL     1       7.520   5.911  18.456  0.00  0.00    +0.000 C 
ATOM      3  C   UNL     1       6.851   5.043  17.393  0.00  0.00    +0.000 C 
ATOM      4  C   UNL     1       5.551   5.676  16.889  0.00  0.00    +0.000 C 
ATOM      5  C   UNL     1       5.888   7.086  16.374  0.00  0.00    +0.000 C 
ATOM      6  C   UNL     1       6.634   7.929  17.417  0.00  0.00    +0.000 C 
ENDROOT
BRANCH   1   7
ATOM      7  C   UNL     1       8.478   8.082  18.955  0.00  0.00    +0.000 C 
BRANCH   7  10
ATOM      8  C   UNL     1       9.265  10.502  19.129  0.00  0.00    +0.000 C 
ATOM      9  C   UNL     1       9.216  10.468  20.638  0.00  0.00    +0.000 C 
ATOM     10  C   UNL     1       8.948   9.405  18.407  0.00  0.00    +0.000 C 
BRANCH   8  14
ATOM     11  C   UNL     1      10.632  14.133  17.199  0.00  0.00    +0.000 A 
ATOM     12  C   UNL     1       9.445  14.117  17.927  0.00  0.00    +0.000 A 
ATOM     13  C   UNL     1       9.011  12.947  18.560  0.00  0.00    +0.000 A 
ATOM     14  C   UNL     1       9.732  11.746  18.452  0.00  0.00    +0.000 A 
ATOM     15  C   UNL     1      10.913  11.776  17.697  0.00  0.00    +0.000 A 
ATOM     16  C   UNL     1      11.364  12.954  17.082  0.00  0.00    +0.000 A 
BRANCH  11  18
ATOM     17  C   UNL     1      12.099  15.985  17.150  0.00  0.00    +0.000 C 
ATOM     18  O   UNL     1      10.953  15.329  16.621  0.00  0.00    +0.000 OA
ENDBRANCH  11  18
ENDBRANCH   8  14
ENDBRANCH   7  10
ENDBRANCH   1   7
BRANCH   4  19
ATOM     19  C   UNL     1       4.436   5.738  17.959  0.00  0.00    +0.000 C 
BRANCH  19  20
ATOM     20  C   UNL     1       3.556   4.516  18.066  0.00  0.00    +0.000 A 
ATOM     21  C   UNL     1       2.175   4.657  18.285  0.00  0.00    +0.000 A 
ATOM     22  C   UNL     1       1.344   3.537  18.324  0.00  0.00    +0.000 A 
ATOM     23  C   UNL     1       1.881   2.265  18.139  0.00  0.00    +0.000 A 
ATOM     24  C   UNL     1       3.249   2.113  17.930  0.00  0.00    +0.000 A 
ATOM     25  C   UNL     1       4.084   3.231  17.895  0.00  0.00    +0.000 A 
ENDBRANCH  19  20
ENDBRANCH   4  19
TORSDOF 6
ENDMDL
MODEL 8
REMARK VINA RESULT:      -7.2      5.500      8.205
REMARK  Name = 
REMARK  8 active torsions:
REMARK  status: ('A' for Active; 'I' for Inactive)
REMARK    1  A    between atoms: C_1  and  O_2
REMARK    2  A    between atoms: O_2  and  C_3
REMARK    3  A    between atoms: C_6  and  C_7
REMARK    4  A    between atoms: C_7  and  C_8
REMARK    5  A    between atoms: C_9  and  C_10
REMARK    6  A    between atoms: C_10  and  N_11
REMARK    7  A    between atoms: C_14  and  C_15
REMARK    8  A    between atoms: C_15  and  C_16
REMARK                            x       y       z     vdW  Elec       q    Type
REMARK                         _______ _______ _______ _____ _____    ______ ____
ROOT
ATOM      1  N   UNL     1       6.863   7.421  17.152  0.00  0.00    +0.000 NA
ATOM      2  C   UNL     1       7.264   6.167  16.491  0.00  0.00    +0.000 C 
ATOM      3  C   UNL     1       6.194   5.696  15.510  0.00  0.00    +0.000 C 
ATOM      4  C   UNL     1       4.854   5.457  16.212  0.00  0.00    +0.000 C 
ATOM      5  C   UNL     1       4.465   6.763  16.928  0.00  0.00    +0.000 C 
ATOM      6  C   UNL     1       5.576   7.277  17.853  0.00  0.00    +0.000 C 
ENDROOT
BRANCH   1   7
ATOM      7  C   UNL     1       7.895   7.870  18.099  0.00  0.00    +0.000 C 
BRANCH   7  10
ATOM      8  C   UNL     1       8.984  10.113  18.635  0.00  0.00    +0.000 C 
ATOM      9  C   UNL     1       9.204   9.724  20.077  0.00  0.00    +0.000 C 
ATOM     10  C   UNL     1       8.413   9.247  17.770  0.00  0.00    +0.000 C 
BRANCH   8  14
ATOM     11  C   UNL     1      10.391  13.965  17.236  0.00  0.00    +0.000 A 
ATOM     12  C   UNL     1      11.267  12.891  17.364  0.00  0.00    +0.000 A 
ATOM     13  C   UNL     1      10.810  11.644  17.805  0.00  0.00    +0.000 A 
ATOM     14  C   UNL     1       9.467  11.444  18.167  0.00  0.00    +0.000 A 
ATOM     15  C   UNL     1       8.604  12.543  18.052  0.00  0.00    +0.000 A 
ATOM     16  C   UNL     1       9.055  13.788  17.587  0.00  0.00    +0.000 A 
BRANCH  11  18
ATOM     17  C   UNL     1      12.330  15.309  17.104  0.00  0.00    +0.000 C 
ATOM     18  O   UNL     1      10.950  15.134  16.803  0.00  0.00    +0.000 OA
ENDBRANCH  11  18
ENDBRANCH   8  14
ENDBRANCH   7  10
ENDBRANCH   1   7
BRANCH   4  19
ATOM     19  C   UNL     1       4.878   4.274  17.208  0.00  0.00    +0.000 C 
BRANCH  19  20
ATOM     20  C   UNL     1       3.632   4.088  18.040  0.00  0.00    +0.000 A 
ATOM     21  C   UNL     1       2.381   3.947  17.416  0.00  0.00    +0.000 A 
ATOM     22  C   UNL     1       1.233   3.712  18.173  0.00  0.00    +0.000 A 
ATOM     23  C   UNL     1       1.321   3.612  19.560  0.00  0.00    +0.000 A 
ATOM     24  C   UNL     1       2.554   3.759  20.189  0.00  0.00    +0.000 A 
ATOM     25  C   UNL     1       3.705   3.998  19.435  0.00  0.00    +0.000 A 
ENDBRANCH  19  20
ENDBRANCH   4  19
TORSDOF 6
ENDMDL
MODEL 9
REMARK VINA RESULT:      -7.2      3.915      9.718
REMARK  Name = 
REMARK  8 active torsions:
REMARK  status: ('A' for Active; 'I' for Inactive)
REMARK    1  A    between atoms: C_1  and  O_2
REMARK    2  A    between atoms: O_2  and  C_3
REMARK    3  A    between atoms: C_6  and  C_7
REMARK    4  A    between atoms: C_7  and  C_8
REMARK    5  A    between atoms: C_9  and  C_10
REMARK    6  A    between atoms: C_10  and  N_11
REMARK    7  A    between atoms: C_14  and  C_15
REMARK    8  A    between atoms: C_15  and  C_16
REMARK                            x       y       z     vdW  Elec       q    Type
REMARK                         _______ _______ _______ _____ _____    ______ ____
ROOT
ATOM      1  N   UNL     1       1.350   8.891  20.185  0.00  0.00    +0.000 NA
ATOM      2  C   UNL     1       1.352   9.166  18.738  0.00  0.00    +0.000 C 
ATOM      3  C   UNL     1       0.890  10.592  18.449  0.00  0.00    +0.000 C 
ATOM      4  C   UNL     1      -0.524  10.843  18.980  0.00  0.00    +0.000 C 
ATOM      5  C   UNL     1      -0.521  10.517  20.484  0.00  0.00    +0.000 C 
ATOM      6  C   UNL     1       0.020   9.111  20.778  0.00  0.00    +0.000 C 
ENDROOT
BRANCH   1   7
ATOM      7  C   UNL     1       1.791   7.515  20.459  0.00  0.00    +0.000 C 
BRANCH   7  10
ATOM      8  C   UNL     1       3.409   5.826  19.442  0.00  0.00    +0.000 C 
ATOM      9  C   UNL     1       2.878   4.711  20.310  0.00  0.00    +0.000 C 
ATOM     10  C   UNL     1       2.882   7.067  19.520  0.00  0.00    +0.000 C 
BRANCH   8  14
ATOM     11  C   UNL     1       6.529   4.973  16.558  0.00  0.00    +0.000 A 
ATOM     12  C   UNL     1       5.343   5.587  16.163  0.00  0.00    +0.000 A 
ATOM     13  C   UNL     1       4.342   5.872  17.097  0.00  0.00    +0.000 A 
ATOM     14  C   UNL     1       4.480   5.518  18.450  0.00  0.00    +0.000 A 
ATOM     15  C   UNL     1       5.672   4.882  18.825  0.00  0.00    +0.000 A 
ATOM     16  C   UNL     1       6.689   4.617  17.895  0.00  0.00    +0.000 A 
BRANCH  11  18
ATOM     17  C   UNL     1       6.909   4.744  14.237  0.00  0.00    +0.000 C 
ATOM     18  O   UNL     1       7.432   4.739  15.560  0.00  0.00    +0.000 OA
ENDBRANCH  11  18
ENDBRANCH   8  14
ENDBRANCH   7  10
ENDBRANCH   1   7
BRANCH   4  19
ATOM     19  C   UNL     1      -1.616  10.029  18.247  0.00  0.00    +0.000 C 
BRANCH  19  20
ATOM     20  C   UNL     1      -2.861  10.792  17.864  0.00  0.00    +0.000 A 
ATOM     21  C   UNL     1      -3.273  10.843  16.522  0.00  0.00    +0.000 A 
ATOM     22  C   UNL     1      -4.455  11.492  16.165  0.00  0.00    +0.000 A 
ATOM     23  C   UNL     1      -5.242  12.094  17.145  0.00  0.00    +0.000 A 
ATOM     24  C   UNL     1      -4.839  12.058  18.477  0.00  0.00    +0.000 A 
ATOM     25  C   UNL     1      -3.655  11.412  18.837  0.00  0.00    +0.000 A 
ENDBRANCH  19  20
ENDBRANCH   4  19
TORSDOF 6
ENDMDL
