MODEL 1
REMARK VINA RESULT:      -6.7      0.000      0.000
REMARK  Name = 
REMARK  6 active torsions:
REMARK  status: ('A' for Active; 'I' for Inactive)
REMARK    1  A    between atoms: C_1  and  O_2
REMARK    2  A    between atoms: O_2  and  C_3
REMARK    3  A    between atoms: C_8  and  O_9
REMARK    4  A    between atoms: O_9  and  C_10
REMARK    5  A    between atoms: N_12  and  C_13
REMARK    6  A    between atoms: C_13  and  C_14
REMARK                            x       y       z     vdW  Elec       q    Type
REMARK                         _______ _______ _______ _____ _____    ______ ____
ROOT
ATOM      1  C   UNL     1       1.974   5.817  20.367  0.00  0.00    +0.000 A 
ATOM      2  C   UNL     1       2.827   6.550  19.531  0.00  0.00    +0.000 A 
ATOM      3  C   UNL     1       3.780   5.902  18.749  0.00  0.00    +0.000 A 
ATOM      4  C   UNL     1       3.908   4.510  18.809  0.00  0.00    +0.000 A 
ATOM      5  C   UNL     1       3.065   3.775  19.651  0.00  0.00    +0.000 A 
ATOM      6  C   UNL     1       2.076   4.412  20.417  0.00  0.00    +0.000 A 
ATOM      7  C   UNL     1       5.014   3.857  18.005  0.00  0.00    +0.000 C 
ATOM      8  N   UNL     1       5.218   4.420  16.650  0.00  0.00    +0.000 NA
ATOM      9  C   UNL     1       4.699   5.793  16.485  0.00  0.00    +0.000 C 
ATOM     10  C   UNL     1       4.662   6.629  17.772  0.00  0.00    +0.000 C 
ENDROOT
BRANCH   1  12
ATOM     11  C   UNL     1       1.318   8.009  21.043  0.00  0.00    +0.000 C 
ATOM     12  O   UNL     1       1.057   6.613  21.009  0.00  0.00    +0.000 OA
ENDBRANCH   1  12
BRANCH   6  13
ATOM     13  O   UNL     1       1.183   3.735  21.204  0.00  0.00    +0.000 OA
ATOM     14  C   UNL     1       1.573   2.475  21.736  0.00  0.00    +0.000 C 
ENDBRANCH   6  13
BRANCH   8  15
ATOM     15  C   UNL     1       6.627   4.335  16.236  0.00  0.00    +0.000 C 
BRANCH  15  16
ATOM     16  C   UNL     1       6.819   4.454  14.738  0.00  0.00    +0.000 A 
ATOM     17  C   UNL     1       6.055   3.667  13.861  0.00  0.00    +0.000 A 
ATOM     18  C   UNL     1       6.257   3.746  12.485  0.00  0.00    +0.000 A 
ATOM     19  C   UNL     1       7.213   4.620  11.983  0.00  0.00    +0.000 A 
ATOM     20  F   UNL     1       7.420   4.683  10.662  0.00  0.00    +0.000 F 
ATOM     21  C   UNL     1       7.968   5.421  12.831  0.00  0.00    +0.000 A 
ATOM     22  C   UNL     1       7.769   5.342  14.210  0.00  0.00    +0.000 A 
ENDBRANCH  15  16
ENDBRANCH   8  15
TORSDOF 4
ENDMDL
MODEL 2
REMARK VINA RESULT:      -6.6      0.346      1.086
REMARK  Name = 
REMARK  6 active torsions:
REMARK  status: ('A' for Active; 'I' for Inactive)
REMARK    1  A    between atoms: C_1  and  O_2
REMARK    2  A    between atoms: O_2  and  C_3
REMARK    3  A    between atoms: C_8  and  O_9
REMARK    4  A    between atoms: O_9  and  C_10
REMARK    5  A    between atoms: N_12  and  C_13
REMARK    6  A    between atoms: C_13  and  C_14
REMARK                            x       y       z     vdW  Elec       q    Type
REMARK                         _______ _______ _______ _____ _____    ______ ____
ROOT
ATOM      1  C   UNL     1       2.142   6.020  20.311  0.00  0.00    +0.000 A 
ATOM      2  C   UNL     1       2.848   6.716  19.321  0.00  0.00    +0.000 A 
ATOM      3  C   UNL     1       3.875   6.095  18.614  0.00  0.00    +0.000 A 
ATOM      4  C   UNL     1       4.225   4.771  18.904  0.00  0.00    +0.000 A 
ATOM      5  C   UNL     1       3.530   4.076  19.901  0.00  0.00    +0.000 A 
ATOM      6  C   UNL     1       2.469   4.680  20.596  0.00  0.00    +0.000 A 
ATOM      7  C   UNL     1       5.402   4.164  18.169  0.00  0.00    +0.000 C 
ATOM      8  N   UNL     1       5.483   4.504  16.730  0.00  0.00    +0.000 NA
ATOM      9  C   UNL     1       4.748   5.730  16.359  0.00  0.00    +0.000 C 
ATOM     10  C   UNL     1       4.606   6.764  17.484  0.00  0.00    +0.000 C 
ENDROOT
BRANCH   1  12
ATOM     11  C   UNL     1       1.331   8.169  20.957  0.00  0.00    +0.000 C 
ATOM     12  O   UNL     1       1.125   6.767  20.854  0.00  0.00    +0.000 OA
ENDBRANCH   1  12
BRANCH   6  13
ATOM     13  O   UNL     1       1.714   4.023  21.531  0.00  0.00    +0.000 OA
ATOM     14  C   UNL     1       1.364   2.667  21.285  0.00  0.00    +0.000 C 
ENDBRANCH   6  13
BRANCH   8  15
ATOM     15  C   UNL     1       6.878   4.564  16.266  0.00  0.00    +0.000 C 
BRANCH  15  16
ATOM     16  C   UNL     1       7.008   4.560  14.757  0.00  0.00    +0.000 A 
ATOM     17  C   UNL     1       7.899   5.439  14.120  0.00  0.00    +0.000 A 
ATOM     18  C   UNL     1       7.992   5.464  12.729  0.00  0.00    +0.000 A 
ATOM     19  C   UNL     1       7.204   4.604  11.976  0.00  0.00    +0.000 A 
ATOM     20  F   UNL     1       7.279   4.641  10.640  0.00  0.00    +0.000 F 
ATOM     21  C   UNL     1       6.329   3.714  12.586  0.00  0.00    +0.000 A 
ATOM     22  C   UNL     1       6.232   3.688  13.978  0.00  0.00    +0.000 A 
ENDBRANCH  15  16
ENDBRANCH   8  15
TORSDOF 4
ENDMDL
MODEL 3
REMARK VINA RESULT:      -6.5      1.880      3.487
REMARK  Name = 
REMARK  6 active torsions:
REMARK  status: ('A' for Active; 'I' for Inactive)
REMARK    1  A    between atoms: C_1  and  O_2
REMARK    2  A    between atoms: O_2  and  C_3
REMARK    3  A    between atoms: C_8  and  O_9
REMARK    4  A    between atoms: O_9  and  C_10
REMARK    5  A    between atoms: N_12  and  C_13
REMARK    6  A    between atoms: C_13  and  C_14
REMARK                            x       y       z     vdW  Elec       q    Type
REMARK                         _______ _______ _______ _____ _____    ______ ____
ROOT
ATOM      1  C   UNL     1       1.443   8.267  19.752  0.00  0.00    +0.000 A 
ATOM      2  C   UNL     1       1.992   7.046  20.165  0.00  0.00    +0.000 A 
ATOM      3  C   UNL     1       2.868   6.348  19.338  0.00  0.00    +0.000 A 
ATOM      4  C   UNL     1       3.190   6.852  18.073  0.00  0.00    +0.000 A 
ATOM      5  C   UNL     1       2.634   8.066  17.651  0.00  0.00    +0.000 A 
ATOM      6  C   UNL     1       1.778   8.798  18.490  0.00  0.00    +0.000 A 
ATOM      7  C   UNL     1       4.080   6.017  17.175  0.00  0.00    +0.000 C 
ATOM      8  N   UNL     1       5.211   5.350  17.861  0.00  0.00    +0.000 NA
ATOM      9  C   UNL     1       5.017   5.181  19.315  0.00  0.00    +0.000 C 
ATOM     10  C   UNL     1       3.553   5.079  19.765  0.00  0.00    +0.000 C 
ENDROOT
BRANCH   1  12
ATOM     11  C   UNL     1       1.320   9.430  21.831  0.00  0.00    +0.000 C 
ATOM     12  O   UNL     1       0.657   8.844  20.720  0.00  0.00    +0.000 OA
ENDBRANCH   1  12
BRANCH   6  13
ATOM     13  O   UNL     1       1.262  10.021  18.153  0.00  0.00    +0.000 OA
ATOM     14  C   UNL     1       2.099  11.163  18.277  0.00  0.00    +0.000 C 
ENDBRANCH   6  13
BRANCH   8  15
ATOM     15  C   UNL     1       5.552   4.070  17.221  0.00  0.00    +0.000 C 
BRANCH  15  16
ATOM     16  C   UNL     1       6.124   4.231  15.827  0.00  0.00    +0.000 A 
ATOM     17  C   UNL     1       7.257   5.034  15.615  0.00  0.00    +0.000 A 
ATOM     18  C   UNL     1       7.762   5.215  14.329  0.00  0.00    +0.000 A 
ATOM     19  C   UNL     1       7.144   4.584  13.257  0.00  0.00    +0.000 A 
ATOM     20  F   UNL     1       7.618   4.773  12.019  0.00  0.00    +0.000 F 
ATOM     21  C   UNL     1       6.034   3.771  13.446  0.00  0.00    +0.000 A 
ATOM     22  C   UNL     1       5.524   3.590  14.732  0.00  0.00    +0.000 A 
ENDBRANCH  15  16
ENDBRANCH   8  15
TORSDOF 4
ENDMDL
MODEL 4
REMARK VINA RESULT:      -6.5      2.892      4.418
REMARK  Name = 
REMARK  6 active torsions:
REMARK  status: ('A' for Active; 'I' for Inactive)
REMARK    1  A    between atoms: C_1  and  O_2
REMARK    2  A    between atoms: O_2  and  C_3
REMARK    3  A    between atoms: C_8  and  O_9
REMARK    4  A    between atoms: O_9  and  C_10
REMARK    5  A    between atoms: N_12  and  C_13
REMARK    6  A    between atoms: C_13  and  C_14
REMARK                            x       y       z     vdW  Elec       q    Type
REMARK                         _______ _______ _______ _____ _____    ______ ____
ROOT
ATOM      1  C   UNL     1       1.109   9.776  19.383  0.00  0.00    +0.000 A 
ATOM      2  C   UNL     1       1.835   9.002  18.466  0.00  0.00    +0.000 A 
ATOM      3  C   UNL     1       2.255   7.717  18.800  0.00  0.00    +0.000 A 
ATOM      4  C   UNL     1       1.974   7.195  20.068  0.00  0.00    +0.000 A 
ATOM      5  C   UNL     1       1.260   7.969  20.991  0.00  0.00    +0.000 A 
ATOM      6  C   UNL     1       0.799   9.252  20.653  0.00  0.00    +0.000 A 
ATOM      7  C   UNL     1       2.524   5.827  20.417  0.00  0.00    +0.000 C 
ATOM      8  N   UNL     1       2.450   4.827  19.327  0.00  0.00    +0.000 NA
ATOM      9  C   UNL     1       2.340   5.416  17.977  0.00  0.00    +0.000 C 
ATOM     10  C   UNL     1       2.960   6.813  17.828  0.00  0.00    +0.000 C 
ENDROOT
BRANCH   1  12
ATOM     11  C   UNL     1       1.557  12.104  19.120  0.00  0.00    +0.000 C 
ATOM     12  O   UNL     1       0.722  10.985  18.859  0.00  0.00    +0.000 OA
ENDBRANCH   1  12
BRANCH   6  13
ATOM     13  O   UNL     1       0.039  10.022  21.494  0.00  0.00    +0.000 OA
ATOM     14  C   UNL     1      -0.302   9.494  22.769  0.00  0.00    +0.000 C 
ENDBRANCH   6  13
BRANCH   8  15
ATOM     15  C   UNL     1       3.566   3.870  19.396  0.00  0.00    +0.000 C 
BRANCH  15  16
ATOM     16  C   UNL     1       4.633   4.117  18.348  0.00  0.00    +0.000 A 
ATOM     17  C   UNL     1       4.479   3.610  17.048  0.00  0.00    +0.000 A 
ATOM     18  C   UNL     1       5.477   3.802  16.094  0.00  0.00    +0.000 A 
ATOM     19  C   UNL     1       6.621   4.513  16.435  0.00  0.00    +0.000 A 
ATOM     20  F   UNL     1       7.588   4.681  15.525  0.00  0.00    +0.000 F 
ATOM     21  C   UNL     1       6.785   5.038  17.711  0.00  0.00    +0.000 A 
ATOM     22  C   UNL     1       5.789   4.845  18.668  0.00  0.00    +0.000 A 
ENDBRANCH  15  16
ENDBRANCH   8  15
TORSDOF 4
ENDMDL
MODEL 5
REMARK VINA RESULT:      -6.5      2.943      4.577
REMARK  Name = 
REMARK  6 active torsions:
REMARK  status: ('A' for Active; 'I' for Inactive)
REMARK    1  A    between atoms: C_1  and  O_2
REMARK    2  A    between atoms: O_2  and  C_3
REMARK    3  A    between atoms: C_8  and  O_9
REMARK    4  A    between atoms: O_9  and  C_10
REMARK    5  A    between atoms: N_12  and  C_13
REMARK    6  A    between atoms: C_13  and  C_14
REMARK                            x       y       z     vdW  Elec       q    Type
REMARK                         _______ _______ _______ _____ _____    ______ ____
ROOT
ATOM      1  C   UNL     1       1.068   9.731  19.569  0.00  0.00    +0.000 A 
ATOM      2  C   UNL     1       1.769   8.962  18.630  0.00  0.00    +0.000 A 
ATOM      3  C   UNL     1       2.163   7.661  18.932  0.00  0.00    +0.000 A 
ATOM      4  C   UNL     1       1.880   7.117  20.190  0.00  0.00    +0.000 A 
ATOM      5  C   UNL     1       1.191   7.886  21.136  0.00  0.00    +0.000 A 
ATOM      6  C   UNL     1       0.756   9.186  20.830  0.00  0.00    +0.000 A 
ATOM      7  C   UNL     1       2.402   5.730  20.504  0.00  0.00    +0.000 C 
ATOM      8  N   UNL     1       2.297   4.757  19.393  0.00  0.00    +0.000 NA
ATOM      9  C   UNL     1       2.190   5.378  18.057  0.00  0.00    +0.000 C 
ATOM     10  C   UNL     1       2.839   6.763  17.934  0.00  0.00    +0.000 C 
ENDROOT
BRANCH   1  12
ATOM     11  C   UNL     1      -0.596  11.077  18.516  0.00  0.00    +0.000 C 
ATOM     12  O   UNL     1       0.704  10.960  19.075  0.00  0.00    +0.000 OA
ENDBRANCH   1  12
BRANCH   6  13
ATOM     13  O   UNL     1       0.021   9.954  21.694  0.00  0.00    +0.000 OA
ATOM     14  C   UNL     1      -0.049   9.558  23.057  0.00  0.00    +0.000 C 
ENDBRANCH   6  13
BRANCH   8  15
ATOM     15  C   UNL     1       3.391   3.773  19.431  0.00  0.00    +0.000 C 
BRANCH  15  16
ATOM     16  C   UNL     1       4.497   4.069  18.439  0.00  0.00    +0.000 A 
ATOM     17  C   UNL     1       5.608   4.837  18.826  0.00  0.00    +0.000 A 
ATOM     18  C   UNL     1       6.608   5.144  17.904  0.00  0.00    +0.000 A 
ATOM     19  C   UNL     1       6.505   4.673  16.602  0.00  0.00    +0.000 A 
ATOM     20  F   UNL     1       7.456   4.984  15.712  0.00  0.00    +0.000 F 
ATOM     21  C   UNL     1       5.424   3.898  16.203  0.00  0.00    +0.000 A 
ATOM     22  C   UNL     1       4.420   3.591  17.123  0.00  0.00    +0.000 A 
ENDBRANCH  15  16
ENDBRANCH   8  15
TORSDOF 4
ENDMDL
MODEL 6
REMARK VINA RESULT:      -6.4      2.195      4.018
REMARK  Name = 
REMARK  6 active torsions:
REMARK  status: ('A' for Active; 'I' for Inactive)
REMARK    1  A    between atoms: C_1  and  O_2
REMARK    2  A    between atoms: O_2  and  C_3
REMARK    3  A    between atoms: C_8  and  O_9
REMARK    4  A    between atoms: O_9  and  C_10
REMARK    5  A    between atoms: N_12  and  C_13
REMARK    6  A    between atoms: C_13  and  C_14
REMARK                            x       y       z     vdW  Elec       q    Type
REMARK                         _______ _______ _______ _____ _____    ______ ____
ROOT
ATOM      1  C   UNL     1       0.832   9.165  20.550  0.00  0.00    +0.000 A 
ATOM      2  C   UNL     1       1.174   7.839  20.850  0.00  0.00    +0.000 A 
ATOM      3  C   UNL     1       1.916   7.079  19.950  0.00  0.00    +0.000 A 
ATOM      4  C   UNL     1       2.309   7.628  18.725  0.00  0.00    +0.000 A 
ATOM      5  C   UNL     1       1.960   8.949  18.416  0.00  0.00    +0.000 A 
ATOM      6  C   UNL     1       1.243   9.738  19.331  0.00  0.00    +0.000 A 
ATOM      7  C   UNL     1       3.042   6.737  17.742  0.00  0.00    +0.000 C 
ATOM      8  N   UNL     1       4.051   5.837  18.347  0.00  0.00    +0.000 NA
ATOM      9  C   UNL     1       3.841   5.579  19.786  0.00  0.00    +0.000 C 
ATOM     10  C   UNL     1       2.384   5.683  20.256  0.00  0.00    +0.000 C 
ENDROOT
BRANCH   1  12
ATOM     11  C   UNL     1       0.429   9.322  22.897  0.00  0.00    +0.000 C 
ATOM     12  O   UNL     1       0.160   9.779  21.579  0.00  0.00    +0.000 OA
ENDBRANCH   1  12
BRANCH   6  13
ATOM     13  O   UNL     1       0.935  11.053  19.106  0.00  0.00    +0.000 OA
ATOM     14  C   UNL     1      -0.356  11.368  18.601  0.00  0.00    +0.000 C 
ENDBRANCH   6  13
BRANCH   8  15
ATOM     15  C   UNL     1       4.170   4.577  17.597  0.00  0.00    +0.000 C 
BRANCH  15  16
ATOM     16  C   UNL     1       5.120   4.669  16.420  0.00  0.00    +0.000 A 
ATOM     17  C   UNL     1       4.725   4.210  15.153  0.00  0.00    +0.000 A 
ATOM     18  C   UNL     1       5.611   4.257  14.078  0.00  0.00    +0.000 A 
ATOM     19  C   UNL     1       6.886   4.774  14.266  0.00  0.00    +0.000 A 
ATOM     20  F   UNL     1       7.744   4.801  13.238  0.00  0.00    +0.000 F 
ATOM     21  C   UNL     1       7.293   5.249  15.507  0.00  0.00    +0.000 A 
ATOM     22  C   UNL     1       6.408   5.201  16.585  0.00  0.00    +0.000 A 
ENDBRANCH  15  16
ENDBRANCH   8  15
TORSDOF 4
ENDMDL
MODEL 7
REMARK VINA RESULT:      -6.4      4.321      7.740
REMARK  Name = 
REMARK  6 active torsions:
REMARK  status: ('A' for Active; 'I' for Inactive)
REMARK    1  A    between atoms: C_1  and  O_2
REMARK    2  A    between atoms: O_2  and  C_3
REMARK    3  A    between atoms: C_8  and  O_9
REMARK    4  A    between atoms: O_9  and  C_10
REMARK    5  A    between atoms: N_12  and  C_13
REMARK    6  A    between atoms: C_13  and  C_14
REMARK                            x       y       z     vdW  Elec       q    Type
REMARK                         _______ _______ _______ _____ _____    ______ ____
ROOT
ATOM      1  C   UNL     1       7.034   4.693  13.279  0.00  0.00    +0.000 A 
ATOM      2  C   UNL     1       7.432   5.451  14.389  0.00  0.00    +0.000 A 
ATOM      3  C   UNL     1       6.831   5.258  15.630  0.00  0.00    +0.000 A 
ATOM      4  C   UNL     1       5.804   4.317  15.774  0.00  0.00    +0.000 A 
ATOM      5  C   UNL     1       5.395   3.567  14.665  0.00  0.00    +0.000 A 
ATOM      6  C   UNL     1       6.018   3.726  13.416  0.00  0.00    +0.000 A 
ATOM      7  C   UNL     1       5.122   4.202  17.122  0.00  0.00    +0.000 C 
ATOM      8  N   UNL     1       6.029   4.282  18.290  0.00  0.00    +0.000 NA
ATOM      9  C   UNL     1       7.317   4.947  18.007  0.00  0.00    +0.000 C 
ATOM     10  C   UNL     1       7.276   5.979  16.871  0.00  0.00    +0.000 C 
ENDROOT
BRANCH   1  12
ATOM     11  C   UNL     1       8.525   6.180  12.157  0.00  0.00    +0.000 C 
ATOM     12  O   UNL     1       7.779   4.970  12.159  0.00  0.00    +0.000 OA
ENDBRANCH   1  12
BRANCH   6  13
ATOM     13  O   UNL     1       5.703   2.971  12.318  0.00  0.00    +0.000 OA
ATOM     14  C   UNL     1       4.461   3.210  11.669  0.00  0.00    +0.000 C 
ENDBRANCH   6  13
BRANCH   8  15
ATOM     15  C   UNL     1       5.363   4.896  19.450  0.00  0.00    +0.000 C 
BRANCH  15  16
ATOM     16  C   UNL     1       3.966   4.360  19.689  0.00  0.00    +0.000 A 
ATOM     17  C   UNL     1       2.870   5.237  19.741  0.00  0.00    +0.000 A 
ATOM     18  C   UNL     1       1.590   4.752  20.000  0.00  0.00    +0.000 A 
ATOM     19  C   UNL     1       1.402   3.390  20.195  0.00  0.00    +0.000 A 
ATOM     20  F   UNL     1       0.175   2.925  20.463  0.00  0.00    +0.000 F 
ATOM     21  C   UNL     1       2.468   2.502  20.131  0.00  0.00    +0.000 A 
ATOM     22  C   UNL     1       3.752   2.985  19.874  0.00  0.00    +0.000 A 
ENDBRANCH  15  16
ENDBRANCH   8  15
TORSDOF 4
ENDMDL
MODEL 8
REMARK VINA RESULT:      -6.3      2.144      4.046
REMARK  Name = 
REMARK  6 active torsions:
REMARK  status: ('A' for Active; 'I' for Inactive)
REMARK    1  A    between atoms: C_1  and  O_2
REMARK    2  A    between atoms: O_2  and  C_3
REMARK    3  A    between atoms: C_8  and  O_9
REMARK    4  A    between atoms: O_9  and  C_10
REMARK    5  A    between atoms: N_12  and  C_13
REMARK    6  A    between atoms: C_13  and  C_14
REMARK                            x       y       z     vdW  Elec       q    Type
REMARK                         _______ _______ _______ _____ _____    ______ ____
ROOT
ATOM      1  C   UNL     1       0.997   9.084  20.644  0.00  0.00    +0.000 A 
ATOM      2  C   UNL     1       1.395   7.768  20.916  0.00  0.00    +0.000 A 
ATOM      3  C   UNL     1       2.054   7.014  19.949  0.00  0.00    +0.000 A 
ATOM      4  C   UNL     1       2.305   7.559  18.685  0.00  0.00    +0.000 A 
ATOM      5  C   UNL     1       1.898   8.869  18.405  0.00  0.00    +0.000 A 
ATOM      6  C   UNL     1       1.265   9.653  19.383  0.00  0.00    +0.000 A 
ATOM      7  C   UNL     1       2.948   6.673  17.638  0.00  0.00    +0.000 C 
ATOM      8  N   UNL     1       4.034   5.799  18.139  0.00  0.00    +0.000 NA
ATOM      9  C   UNL     1       3.982   5.551  19.594  0.00  0.00    +0.000 C 
ATOM     10  C   UNL     1       2.580   5.631  20.215  0.00  0.00    +0.000 C 
ENDROOT
BRANCH   1  12
ATOM     11  C   UNL     1      -0.595   8.980  22.418  0.00  0.00    +0.000 C 
ATOM     12  O   UNL     1       0.424   9.695  21.733  0.00  0.00    +0.000 OA
ENDBRANCH   1  12
BRANCH   6  13
ATOM     13  O   UNL     1       0.908  10.960  19.183  0.00  0.00    +0.000 OA
ATOM     14  C   UNL     1      -0.255  11.231  18.412  0.00  0.00    +0.000 C 
ENDBRANCH   6  13
BRANCH   8  15
ATOM     15  C   UNL     1       4.099   4.534  17.390  0.00  0.00    +0.000 C 
BRANCH  15  16
ATOM     16  C   UNL     1       5.085   4.571  16.240  0.00  0.00    +0.000 A 
ATOM     17  C   UNL     1       6.350   5.157  16.409  0.00  0.00    +0.000 A 
ATOM     18  C   UNL     1       7.243   5.226  15.341  0.00  0.00    +0.000 A 
ATOM     19  C   UNL     1       6.878   4.699  14.110  0.00  0.00    +0.000 A 
ATOM     20  F   UNL     1       7.729   4.783  13.079  0.00  0.00    +0.000 F 
ATOM     21  C   UNL     1       5.639   4.100  13.924  0.00  0.00    +0.000 A 
ATOM     22  C   UNL     1       4.741   4.031  14.991  0.00  0.00    +0.000 A 
ENDBRANCH  15  16
ENDBRANCH   8  15
TORSDOF 4
ENDMDL
MODEL 9
REMARK VINA RESULT:      -6.3      4.312      7.704
REMARK  Name = 
REMARK  6 active torsions:
REMARK  status: ('A' for Active; 'I' for Inactive)
REMARK    1  A    between atoms: C_1  and  O_2
REMARK    2  A    between atoms: O_2  and  C_3
REMARK    3  A    between atoms: C_8  and  O_9
REMARK    4  A    between atoms: O_9  and  C_10
REMARK    5  A    between atoms: N_12  and  C_13
REMARK    6  A    between atoms: C_13  and  C_14
REMARK                            x       y       z     vdW  Elec       q    Type
REMARK                         _______ _______ _______ _____ _____    ______ ____
ROOT
ATOM      1  C   UNL     1       7.019   4.608  13.151  0.00  0.00    +0.000 A 
ATOM      2  C   UNL     1       7.433   5.345  14.269  0.00  0.00    +0.000 A 
ATOM      3  C   UNL     1       6.828   5.151  15.508  0.00  0.00    +0.000 A 
ATOM      4  C   UNL     1       5.782   4.231  15.642  0.00  0.00    +0.000 A 
ATOM      5  C   UNL     1       5.357   3.502  14.525  0.00  0.00    +0.000 A 
ATOM      6  C   UNL     1       5.984   3.661  13.278  0.00  0.00    +0.000 A 
ATOM      7  C   UNL     1       5.097   4.116  16.989  0.00  0.00    +0.000 C 
ATOM      8  N   UNL     1       6.005   4.165  18.157  0.00  0.00    +0.000 NA
ATOM      9  C   UNL     1       7.307   4.805  17.881  0.00  0.00    +0.000 C 
ATOM     10  C   UNL     1       7.289   5.850  16.757  0.00  0.00    +0.000 C 
ENDROOT
BRANCH   1  12
ATOM     11  C   UNL     1       8.183   6.227  11.841  0.00  0.00    +0.000 C 
ATOM     12  O   UNL     1       7.771   4.881  12.035  0.00  0.00    +0.000 OA
ENDBRANCH   1  12
BRANCH   6  13
ATOM     13  O   UNL     1       5.652   2.924  12.172  0.00  0.00    +0.000 OA
ATOM     14  C   UNL     1       4.443   3.234  11.492  0.00  0.00    +0.000 C 
ENDBRANCH   6  13
BRANCH   8  15
ATOM     15  C   UNL     1       5.352   4.780  19.324  0.00  0.00    +0.000 C 
BRANCH  15  16
ATOM     16  C   UNL     1       3.938   4.282  19.549  0.00  0.00    +0.000 A 
ATOM     17  C   UNL     1       3.714   2.981  20.027  0.00  0.00    +0.000 A 
ATOM     18  C   UNL     1       2.414   2.508  20.198  0.00  0.00    +0.000 A 
ATOM     19  C   UNL     1       1.340   3.338  19.904  0.00  0.00    +0.000 A 
ATOM     20  F   UNL     1       0.092   2.877  20.050  0.00  0.00    +0.000 F 
ATOM     21  C   UNL     1       1.539   4.634  19.447  0.00  0.00    +0.000 A 
ATOM     22  C   UNL     1       2.840   5.110  19.272  0.00  0.00    +0.000 A 
ENDBRANCH  15  16
ENDBRANCH   8  15
TORSDOF 4
ENDMDL
