MODEL 1
REMARK VINA RESULT:      -6.5      0.000      0.000
REMARK  Name = 
REMARK  9 active torsions:
REMARK  status: ('A' for Active; 'I' for Inactive)
REMARK    1  A    between atoms: C_1  and  C_2
REMARK    2  A    between atoms: C_6  and  N_7
REMARK    3  A    between atoms: C_8  and  C_10
REMARK    4  A    between atoms: C_10  and  S_11
REMARK    5  A    between atoms: C_10  and  C_12
REMARK    6  A    between atoms: C_12  and  C_13
REMARK    7  A    between atoms: N_21  and  C_22
REMARK    8  A    between atoms: C_22  and  C_23
REMARK    9  A    between atoms: C_23  and  O_25
REMARK                            x       y       z     vdW  Elec       q    Type
REMARK                         _______ _______ _______ _____ _____    ______ ____
ROOT
ATOM      1  C   UNL     1       3.533   2.655  17.587  0.00  0.00    +0.000 C 
ATOM      2  C   UNL     1       3.011   4.092  17.440  0.00  0.00    +0.000 C 
ATOM      3  C   UNL     1       1.504   4.199  17.742  0.00  0.00    +0.000 C 
ATOM      4  C   UNL     1       1.057   3.664  19.101  0.00  0.00    +0.000 C 
ATOM      5  C   UNL     1       1.390   4.494  20.343  0.00  0.00    +0.000 C 
ATOM      6  C   UNL     1       2.605   5.416  20.328  0.00  0.00    +0.000 C 
ATOM      7  C   UNL     1       3.849   4.875  19.615  0.00  0.00    +0.000 C 
ATOM      8  O   UNL     1       4.798   4.347  20.185  0.00  0.00    +0.000 OA
ATOM      9  N   UNL     1       3.812   5.032  18.230  0.00  0.00    +0.000 N 
ENDROOT
BRANCH   6  10
ATOM     10  N   UNL     1       2.298   6.689  19.675  0.00  0.00    +0.000 N 
ATOM     11  C   UNL     1       1.751   7.770  20.321  0.00  0.00    +0.000 C 
ATOM     12  O   UNL     1       1.359   7.724  21.485  0.00  0.00    +0.000 OA
ATOM     13  H   UNL     1       2.538   6.781  18.689  0.00  0.00    +0.000 HD
BRANCH  11  14
ATOM     14  C   UNL     1       1.638   9.007  19.427  0.00  0.00    +0.000 C 
BRANCH  14  15
ATOM     15  S   UNL     1       2.098   8.500  17.722  0.00  0.00    +0.000 S 
ATOM     16  H   UNL     1       2.440   9.724  17.292  0.00  0.00    +0.000 HD
ENDBRANCH  14  15
BRANCH  14  17
ATOM     17  C   UNL     1       0.236   9.620  19.443  0.00  0.00    +0.000 C 
BRANCH  17  18
ATOM     18  C   UNL     1       0.148  10.855  20.316  0.00  0.00    +0.000 A 
ATOM     19  C   UNL     1      -0.631  10.868  21.480  0.00  0.00    +0.000 A 
ATOM     20  C   UNL     1      -0.722  12.029  22.255  0.00  0.00    +0.000 A 
ATOM     21  C   UNL     1      -0.045  13.185  21.873  0.00  0.00    +0.000 A 
ATOM     22  C   UNL     1       0.735  13.182  20.720  0.00  0.00    +0.000 A 
ATOM     23  C   UNL     1       0.832  12.024  19.947  0.00  0.00    +0.000 A 
ENDBRANCH  17  18
ENDBRANCH  14  17
ENDBRANCH  11  14
ENDBRANCH   6  10
BRANCH   9  24
ATOM     24  C   UNL     1       4.966   5.683  17.610  0.00  0.00    +0.000 C 
BRANCH  24  25
ATOM     25  C   UNL     1       5.967   4.651  17.094  0.00  0.00    +0.000 C 
ATOM     26  O   UNL     1       6.115   4.347  15.922  0.00  0.00    +0.000 OA
BRANCH  25  27
ATOM     27  O   UNL     1       6.728   4.104  18.082  0.00  0.00    +0.000 OA
ATOM     28  H   UNL     1       7.407   3.478  17.769  0.00  0.00    +0.000 HD
ENDBRANCH  25  27
ENDBRANCH  24  25
ENDBRANCH   9  24
TORSDOF 8
ENDMDL
MODEL 2
REMARK VINA RESULT:      -6.5      4.177      7.141
REMARK  Name = 
REMARK  9 active torsions:
REMARK  status: ('A' for Active; 'I' for Inactive)
REMARK    1  A    between atoms: C_1  and  C_2
REMARK    2  A    between atoms: C_6  and  N_7
REMARK    3  A    between atoms: C_8  and  C_10
REMARK    4  A    between atoms: C_10  and  S_11
REMARK    5  A    between atoms: C_10  and  C_12
REMARK    6  A    between atoms: C_12  and  C_13
REMARK    7  A    between atoms: N_21  and  C_22
REMARK    8  A    between atoms: C_22  and  C_23
REMARK    9  A    between atoms: C_23  and  O_25
REMARK                            x       y       z     vdW  Elec       q    Type
REMARK                         _______ _______ _______ _____ _____    ______ ____
ROOT
ATOM      1  C   UNL     1       0.687   2.393  19.583  0.00  0.00    +0.000 C 
ATOM      2  C   UNL     1       2.083   2.637  18.989  0.00  0.00    +0.000 C 
ATOM      3  C   UNL     1       2.016   3.223  17.566  0.00  0.00    +0.000 C 
ATOM      4  C   UNL     1       1.199   4.504  17.412  0.00  0.00    +0.000 C 
ATOM      5  C   UNL     1       1.799   5.807  17.948  0.00  0.00    +0.000 C 
ATOM      6  C   UNL     1       2.794   5.757  19.102  0.00  0.00    +0.000 C 
ATOM      7  C   UNL     1       2.495   4.735  20.203  0.00  0.00    +0.000 C 
ATOM      8  O   UNL     1       1.940   5.004  21.263  0.00  0.00    +0.000 OA
ATOM      9  N   UNL     1       2.911   3.441  19.893  0.00  0.00    +0.000 N 
ENDROOT
BRANCH   6  10
ATOM     10  N   UNL     1       4.143   5.442  18.627  0.00  0.00    +0.000 N 
ATOM     11  C   UNL     1       4.865   6.247  17.781  0.00  0.00    +0.000 C 
ATOM     12  O   UNL     1       4.395   7.251  17.251  0.00  0.00    +0.000 OA
ATOM     13  H   UNL     1       4.576   4.588  18.975  0.00  0.00    +0.000 HD
BRANCH  11  14
ATOM     14  C   UNL     1       6.286   5.733  17.535  0.00  0.00    +0.000 C 
BRANCH  14  15
ATOM     15  S   UNL     1       7.159   5.731  19.152  0.00  0.00    +0.000 S 
ATOM     16  H   UNL     1       8.123   4.868  18.796  0.00  0.00    +0.000 HD
ENDBRANCH  14  15
BRANCH  14  17
ATOM     17  C   UNL     1       6.308   4.335  16.914  0.00  0.00    +0.000 C 
BRANCH  17  18
ATOM     18  C   UNL     1       6.541   4.365  15.417  0.00  0.00    +0.000 A 
ATOM     19  C   UNL     1       7.507   5.205  14.849  0.00  0.00    +0.000 A 
ATOM     20  C   UNL     1       7.686   5.239  13.462  0.00  0.00    +0.000 A 
ATOM     21  C   UNL     1       6.899   4.443  12.632  0.00  0.00    +0.000 A 
ATOM     22  C   UNL     1       5.938   3.602  13.186  0.00  0.00    +0.000 A 
ATOM     23  C   UNL     1       5.762   3.562  14.569  0.00  0.00    +0.000 A 
ENDBRANCH  17  18
ENDBRANCH  14  17
ENDBRANCH  11  14
ENDBRANCH   6  10
BRANCH   9  24
ATOM     24  C   UNL     1       3.754   2.766  20.880  0.00  0.00    +0.000 C 
BRANCH  24  25
ATOM     25  C   UNL     1       4.889   2.002  20.202  0.00  0.00    +0.000 C 
ATOM     26  O   UNL     1       5.232   0.865  20.482  0.00  0.00    +0.000 OA
BRANCH  25  27
ATOM     27  O   UNL     1       5.486   2.708  19.202  0.00  0.00    +0.000 OA
ATOM     28  H   UNL     1       6.435   2.880  19.341  0.00  0.00    +0.000 HD
ENDBRANCH  25  27
ENDBRANCH  24  25
ENDBRANCH   9  24
TORSDOF 8
ENDMDL
MODEL 3
REMARK VINA RESULT:      -6.4      1.075      1.334
REMARK  Name = 
REMARK  9 active torsions:
REMARK  status: ('A' for Active; 'I' for Inactive)
REMARK    1  A    between atoms: C_1  and  C_2
REMARK    2  A    between atoms: C_6  and  N_7
REMARK    3  A    between atoms: C_8  and  C_10
REMARK    4  A    between atoms: C_10  and  S_11
REMARK    5  A    between atoms: C_10  and  C_12
REMARK    6  A    between atoms: C_12  and  C_13
REMARK    7  A    between atoms: N_21  and  C_22
REMARK    8  A    between atoms: C_22  and  C_23
REMARK    9  A    between atoms: C_23  and  O_25
REMARK                            x       y       z     vdW  Elec       q    Type
REMARK                         _______ _______ _______ _____ _____    ______ ____
ROOT
ATOM      1  C   UNL     1       3.473   2.822  17.303  0.00  0.00    +0.000 C 
ATOM      2  C   UNL     1       2.938   4.262  17.293  0.00  0.00    +0.000 C 
ATOM      3  C   UNL     1       1.508   4.356  17.859  0.00  0.00    +0.000 C 
ATOM      4  C   UNL     1       1.306   3.779  19.259  0.00  0.00    +0.000 C 
ATOM      5  C   UNL     1       1.855   4.573  20.447  0.00  0.00    +0.000 C 
ATOM      6  C   UNL     1       3.052   5.497  20.246  0.00  0.00    +0.000 C 
ATOM      7  C   UNL     1       4.149   4.981  19.309  0.00  0.00    +0.000 C 
ATOM      8  O   UNL     1       5.181   4.439  19.687  0.00  0.00    +0.000 OA
ATOM      9  N   UNL     1       3.868   5.179  17.958  0.00  0.00    +0.000 N 
ENDROOT
BRANCH   6  10
ATOM     10  N   UNL     1       2.638   6.789  19.695  0.00  0.00    +0.000 N 
ATOM     11  C   UNL     1       1.819   7.675  20.350  0.00  0.00    +0.000 C 
ATOM     12  O   UNL     1       1.263   7.410  21.413  0.00  0.00    +0.000 OA
ATOM     13  H   UNL     1       3.010   7.052  18.784  0.00  0.00    +0.000 HD
BRANCH  11  14
ATOM     14  C   UNL     1       1.639   8.994  19.595  0.00  0.00    +0.000 C 
BRANCH  14  15
ATOM     15  S   UNL     1       1.972   8.663  17.818  0.00  0.00    +0.000 S 
ATOM     16  H   UNL     1       2.921   7.735  18.018  0.00  0.00    +0.000 HD
ENDBRANCH  14  15
BRANCH  14  17
ATOM     17  C   UNL     1       0.241   9.589  19.775  0.00  0.00    +0.000 C 
BRANCH  17  18
ATOM     18  C   UNL     1       0.180  11.059  19.410  0.00  0.00    +0.000 A 
ATOM     19  C   UNL     1      -0.823  11.557  18.568  0.00  0.00    +0.000 A 
ATOM     20  C   UNL     1      -0.843  12.911  18.220  0.00  0.00    +0.000 A 
ATOM     21  C   UNL     1       0.139  13.776  18.700  0.00  0.00    +0.000 A 
ATOM     22  C   UNL     1       1.137  13.292  19.539  0.00  0.00    +0.000 A 
ATOM     23  C   UNL     1       1.157  11.942  19.893  0.00  0.00    +0.000 A 
ENDBRANCH  17  18
ENDBRANCH  14  17
ENDBRANCH  11  14
ENDBRANCH   6  10
BRANCH   9  24
ATOM     24  C   UNL     1       4.898   5.851  17.164  0.00  0.00    +0.000 C 
BRANCH  24  25
ATOM     25  C   UNL     1       5.651   4.854  16.285  0.00  0.00    +0.000 C 
ATOM     26  O   UNL     1       5.500   4.731  15.081  0.00  0.00    +0.000 OA
BRANCH  25  27
ATOM     27  O   UNL     1       6.559   4.112  16.977  0.00  0.00    +0.000 OA
ATOM     28  H   UNL     1       7.425   4.545  17.099  0.00  0.00    +0.000 HD
ENDBRANCH  25  27
ENDBRANCH  24  25
ENDBRANCH   9  24
TORSDOF 8
ENDMDL
MODEL 4
REMARK VINA RESULT:      -6.4      1.538      1.932
REMARK  Name = 
REMARK  9 active torsions:
REMARK  status: ('A' for Active; 'I' for Inactive)
REMARK    1  A    between atoms: C_1  and  C_2
REMARK    2  A    between atoms: C_6  and  N_7
REMARK    3  A    between atoms: C_8  and  C_10
REMARK    4  A    between atoms: C_10  and  S_11
REMARK    5  A    between atoms: C_10  and  C_12
REMARK    6  A    between atoms: C_12  and  C_13
REMARK    7  A    between atoms: N_21  and  C_22
REMARK    8  A    between atoms: C_22  and  C_23
REMARK    9  A    between atoms: C_23  and  O_25
REMARK                            x       y       z     vdW  Elec       q    Type
REMARK                         _______ _______ _______ _____ _____    ______ ____
ROOT
ATOM      1  C   UNL     1       3.445   1.420  18.132  0.00  0.00    +0.000 C 
ATOM      2  C   UNL     1       3.213   2.865  17.664  0.00  0.00    +0.000 C 
ATOM      3  C   UNL     1       1.734   3.281  17.775  0.00  0.00    +0.000 C 
ATOM      4  C   UNL     1       1.096   3.115  19.153  0.00  0.00    +0.000 C 
ATOM      5  C   UNL     1       1.485   4.112  20.248  0.00  0.00    +0.000 C 
ATOM      6  C   UNL     1       2.848   4.793  20.195  0.00  0.00    +0.000 C 
ATOM      7  C   UNL     1       4.019   3.918  19.735  0.00  0.00    +0.000 C 
ATOM      8  O   UNL     1       4.808   3.365  20.493  0.00  0.00    +0.000 OA
ATOM      9  N   UNL     1       4.114   3.796  18.349  0.00  0.00    +0.000 N 
ENDROOT
BRANCH   6  10
ATOM     10  N   UNL     1       2.833   5.941  19.287  0.00  0.00    +0.000 N 
ATOM     11  C   UNL     1       2.266   7.154  19.593  0.00  0.00    +0.000 C 
ATOM     12  O   UNL     1       1.615   7.347  20.617  0.00  0.00    +0.000 OA
ATOM     13  H   UNL     1       3.301   5.836  18.388  0.00  0.00    +0.000 HD
BRANCH  11  14
ATOM     14  C   UNL     1       2.491   8.211  18.509  0.00  0.00    +0.000 C 
BRANCH  14  15
ATOM     15  S   UNL     1       3.765   7.557  17.358  0.00  0.00    +0.000 S 
ATOM     16  H   UNL     1       4.627   7.158  18.305  0.00  0.00    +0.000 HD
ENDBRANCH  14  15
BRANCH  14  17
ATOM     17  C   UNL     1       1.208   8.555  17.748  0.00  0.00    +0.000 C 
BRANCH  17  18
ATOM     18  C   UNL     1       0.555   9.827  18.251  0.00  0.00    +0.000 A 
ATOM     19  C   UNL     1       1.243  10.714  19.089  0.00  0.00    +0.000 A 
ATOM     20  C   UNL     1       0.611  11.867  19.566  0.00  0.00    +0.000 A 
ATOM     21  C   UNL     1      -0.710  12.141  19.217  0.00  0.00    +0.000 A 
ATOM     22  C   UNL     1      -1.401  11.268  18.382  0.00  0.00    +0.000 A 
ATOM     23  C   UNL     1      -0.772  10.119  17.900  0.00  0.00    +0.000 A 
ENDBRANCH  17  18
ENDBRANCH  14  17
ENDBRANCH  11  14
ENDBRANCH   6  10
BRANCH   9  24
ATOM     24  C   UNL     1       5.412   4.105  17.748  0.00  0.00    +0.000 C 
BRANCH  24  25
ATOM     25  C   UNL     1       5.345   4.023  16.225  0.00  0.00    +0.000 C 
ATOM     26  O   UNL     1       4.831   4.861  15.502  0.00  0.00    +0.000 OA
BRANCH  25  27
ATOM     27  O   UNL     1       5.957   2.915  15.722  0.00  0.00    +0.000 OA
ATOM     28  H   UNL     1       6.569   3.093  14.984  0.00  0.00    +0.000 HD
ENDBRANCH  25  27
ENDBRANCH  24  25
ENDBRANCH   9  24
TORSDOF 8
ENDMDL
MODEL 5
REMARK VINA RESULT:      -6.3      1.332      1.489
REMARK  Name = 
REMARK  9 active torsions:
REMARK  status: ('A' for Active; 'I' for Inactive)
REMARK    1  A    between atoms: C_1  and  C_2
REMARK    2  A    between atoms: C_6  and  N_7
REMARK    3  A    between atoms: C_8  and  C_10
REMARK    4  A    between atoms: C_10  and  S_11
REMARK    5  A    between atoms: C_10  and  C_12
REMARK    6  A    between atoms: C_12  and  C_13
REMARK    7  A    between atoms: N_21  and  C_22
REMARK    8  A    between atoms: C_22  and  C_23
REMARK    9  A    between atoms: C_23  and  O_25
REMARK                            x       y       z     vdW  Elec       q    Type
REMARK                         _______ _______ _______ _____ _____    ______ ____
ROOT
ATOM      1  C   UNL     1       2.926   1.706  17.867  0.00  0.00    +0.000 C 
ATOM      2  C   UNL     1       2.741   3.184  17.492  0.00  0.00    +0.000 C 
ATOM      3  C   UNL     1       1.372   3.731  17.939  0.00  0.00    +0.000 C 
ATOM      4  C   UNL     1       1.041   3.568  19.421  0.00  0.00    +0.000 C 
ATOM      5  C   UNL     1       1.759   4.478  20.421  0.00  0.00    +0.000 C 
ATOM      6  C   UNL     1       3.138   5.032  20.078  0.00  0.00    +0.000 C 
ATOM      7  C   UNL     1       4.085   4.072  19.350  0.00  0.00    +0.000 C 
ATOM      8  O   UNL     1       4.963   3.417  19.902  0.00  0.00    +0.000 OA
ATOM      9  N   UNL     1       3.860   3.999  17.976  0.00  0.00    +0.000 N 
ENDROOT
BRANCH   6  10
ATOM     10  N   UNL     1       3.037   6.213  19.219  0.00  0.00    +0.000 N 
ATOM     11  C   UNL     1       2.339   7.347  19.553  0.00  0.00    +0.000 C 
ATOM     12  O   UNL     1       1.636   7.426  20.558  0.00  0.00    +0.000 OA
ATOM     13  H   UNL     1       3.544   6.196  18.335  0.00  0.00    +0.000 HD
BRANCH  11  14
ATOM     14  C   UNL     1       2.493   8.469  18.524  0.00  0.00    +0.000 C 
BRANCH  14  15
ATOM     15  S   UNL     1       3.535   7.824  17.156  0.00  0.00    +0.000 S 
ATOM     16  H   UNL     1       3.884   6.681  17.765  0.00  0.00    +0.000 HD
ENDBRANCH  14  15
BRANCH  14  17
ATOM     17  C   UNL     1       1.147   8.962  17.985  0.00  0.00    +0.000 C 
BRANCH  17  18
ATOM     18  C   UNL     1       0.714  10.274  18.607  0.00  0.00    +0.000 A 
ATOM     19  C   UNL     1      -0.559  10.424  19.174  0.00  0.00    +0.000 A 
ATOM     20  C   UNL     1      -0.949  11.652  19.715  0.00  0.00    +0.000 A 
ATOM     21  C   UNL     1      -0.080  12.741  19.691  0.00  0.00    +0.000 A 
ATOM     22  C   UNL     1       1.188  12.601  19.134  0.00  0.00    +0.000 A 
ATOM     23  C   UNL     1       1.583  11.376  18.597  0.00  0.00    +0.000 A 
ENDBRANCH  17  18
ENDBRANCH  14  17
ENDBRANCH  11  14
ENDBRANCH   6  10
BRANCH   9  24
ATOM     24  C   UNL     1       5.018   4.210  17.107  0.00  0.00    +0.000 C 
BRANCH  24  25
ATOM     25  C   UNL     1       6.135   4.941  17.849  0.00  0.00    +0.000 C 
ATOM     26  O   UNL     1       6.106   6.117  18.173  0.00  0.00    +0.000 OA
BRANCH  25  27
ATOM     27  O   UNL     1       7.187   4.134  18.160  0.00  0.00    +0.000 OA
ATOM     28  H   UNL     1       8.055   4.577  18.141  0.00  0.00    +0.000 HD
ENDBRANCH  25  27
ENDBRANCH  24  25
ENDBRANCH   9  24
TORSDOF 8
ENDMDL
MODEL 6
REMARK VINA RESULT:      -6.3      4.018      7.416
REMARK  Name = 
REMARK  9 active torsions:
REMARK  status: ('A' for Active; 'I' for Inactive)
REMARK    1  A    between atoms: C_1  and  C_2
REMARK    2  A    between atoms: C_6  and  N_7
REMARK    3  A    between atoms: C_8  and  C_10
REMARK    4  A    between atoms: C_10  and  S_11
REMARK    5  A    between atoms: C_10  and  C_12
REMARK    6  A    between atoms: C_12  and  C_13
REMARK    7  A    between atoms: N_21  and  C_22
REMARK    8  A    between atoms: C_22  and  C_23
REMARK    9  A    between atoms: C_23  and  O_25
REMARK                            x       y       z     vdW  Elec       q    Type
REMARK                         _______ _______ _______ _____ _____    ______ ____
ROOT
ATOM      1  C   UNL     1       0.584   3.165  19.386  0.00  0.00    +0.000 C 
ATOM      2  C   UNL     1       1.872   3.222  18.552  0.00  0.00    +0.000 C 
ATOM      3  C   UNL     1       1.768   4.227  17.389  0.00  0.00    +0.000 C 
ATOM      4  C   UNL     1       1.383   5.654  17.774  0.00  0.00    +0.000 C 
ATOM      5  C   UNL     1       2.440   6.522  18.463  0.00  0.00    +0.000 C 
ATOM      6  C   UNL     1       3.539   5.857  19.285  0.00  0.00    +0.000 C 
ATOM      7  C   UNL     1       3.111   4.649  20.125  0.00  0.00    +0.000 C 
ATOM      8  O   UNL     1       2.846   4.699  21.321  0.00  0.00    +0.000 OA
ATOM      9  N   UNL     1       3.044   3.460  19.400  0.00  0.00    +0.000 N 
ENDROOT
BRANCH   6  10
ATOM     10  N   UNL     1       4.626   5.378  18.429  0.00  0.00    +0.000 N 
ATOM     11  C   UNL     1       5.217   6.132  17.446  0.00  0.00    +0.000 C 
ATOM     12  O   UNL     1       4.805   7.242  17.117  0.00  0.00    +0.000 OA
ATOM     13  H   UNL     1       4.980   4.438  18.601  0.00  0.00    +0.000 HD
BRANCH  11  14
ATOM     14  C   UNL     1       6.401   5.426  16.781  0.00  0.00    +0.000 C 
BRANCH  14  15
ATOM     15  S   UNL     1       7.589   4.972  18.107  0.00  0.00    +0.000 S 
ATOM     16  H   UNL     1       8.381   4.209  17.339  0.00  0.00    +0.000 HD
ENDBRANCH  14  15
BRANCH  14  17
ATOM     17  C   UNL     1       5.978   4.183  15.994  0.00  0.00    +0.000 C 
BRANCH  17  18
ATOM     18  C   UNL     1       6.401   4.241  14.540  0.00  0.00    +0.000 A 
ATOM     19  C   UNL     1       7.412   5.111  14.112  0.00  0.00    +0.000 A 
ATOM     20  C   UNL     1       7.766   5.170  12.760  0.00  0.00    +0.000 A 
ATOM     21  C   UNL     1       7.112   4.370  11.826  0.00  0.00    +0.000 A 
ATOM     22  C   UNL     1       6.108   3.500  12.241  0.00  0.00    +0.000 A 
ATOM     23  C   UNL     1       5.756   3.434  13.589  0.00  0.00    +0.000 A 
ENDBRANCH  17  18
ENDBRANCH  14  17
ENDBRANCH  11  14
ENDBRANCH   6  10
BRANCH   9  24
ATOM     24  C   UNL     1       3.776   2.315  19.943  0.00  0.00    +0.000 C 
BRANCH  24  25
ATOM     25  C   UNL     1       4.243   1.383  18.827  0.00  0.00    +0.000 C 
ATOM     26  O   UNL     1       4.104   1.598  17.633  0.00  0.00    +0.000 OA
BRANCH  25  27
ATOM     27  O   UNL     1       4.878   0.271  19.290  0.00  0.00    +0.000 OA
ATOM     28  H   UNL     1       5.175   0.332  20.216  0.00  0.00    +0.000 HD
ENDBRANCH  25  27
ENDBRANCH  24  25
ENDBRANCH   9  24
TORSDOF 8
ENDMDL
MODEL 7
REMARK VINA RESULT:      -6.3      1.441      1.701
REMARK  Name = 
REMARK  9 active torsions:
REMARK  status: ('A' for Active; 'I' for Inactive)
REMARK    1  A    between atoms: C_1  and  C_2
REMARK    2  A    between atoms: C_6  and  N_7
REMARK    3  A    between atoms: C_8  and  C_10
REMARK    4  A    between atoms: C_10  and  S_11
REMARK    5  A    between atoms: C_10  and  C_12
REMARK    6  A    between atoms: C_12  and  C_13
REMARK    7  A    between atoms: N_21  and  C_22
REMARK    8  A    between atoms: C_22  and  C_23
REMARK    9  A    between atoms: C_23  and  O_25
REMARK                            x       y       z     vdW  Elec       q    Type
REMARK                         _______ _______ _______ _____ _____    ______ ____
ROOT
ATOM      1  C   UNL     1       4.973   3.447  16.830  0.00  0.00    +0.000 C 
ATOM      2  C   UNL     1       4.194   4.768  16.930  0.00  0.00    +0.000 C 
ATOM      3  C   UNL     1       2.692   4.540  17.185  0.00  0.00    +0.000 C 
ATOM      4  C   UNL     1       2.345   3.686  18.403  0.00  0.00    +0.000 C 
ATOM      5  C   UNL     1       2.512   4.313  19.790  0.00  0.00    +0.000 C 
ATOM      6  C   UNL     1       3.535   5.425  19.995  0.00  0.00    +0.000 C 
ATOM      7  C   UNL     1       4.861   5.263  19.245  0.00  0.00    +0.000 C 
ATOM      8  O   UNL     1       5.888   4.818  19.745  0.00  0.00    +0.000 OA
ATOM      9  N   UNL     1       4.803   5.670  17.912  0.00  0.00    +0.000 N 
ENDROOT
BRANCH   6  10
ATOM     10  N   UNL     1       3.001   6.722  19.576  0.00  0.00    +0.000 N 
ATOM     11  C   UNL     1       1.986   7.379  20.227  0.00  0.00    +0.000 C 
ATOM     12  O   UNL     1       1.353   6.880  21.154  0.00  0.00    +0.000 OA
ATOM     13  H   UNL     1       3.435   7.172  18.771  0.00  0.00    +0.000 HD
BRANCH  11  14
ATOM     14  C   UNL     1       1.701   8.766  19.644  0.00  0.00    +0.000 C 
BRANCH  14  15
ATOM     15  S   UNL     1       1.876   8.644  17.819  0.00  0.00    +0.000 S 
ATOM     16  H   UNL     1       1.226   7.478  17.688  0.00  0.00    +0.000 HD
ENDBRANCH  14  15
BRANCH  14  17
ATOM     17  C   UNL     1       0.310   9.285  20.014  0.00  0.00    +0.000 C 
BRANCH  17  18
ATOM     18  C   UNL     1       0.020  10.651  19.426  0.00  0.00    +0.000 A 
ATOM     19  C   UNL     1      -1.106  10.872  18.622  0.00  0.00    +0.000 A 
ATOM     20  C   UNL     1      -1.338  12.133  18.064  0.00  0.00    +0.000 A 
ATOM     21  C   UNL     1      -0.447  13.179  18.296  0.00  0.00    +0.000 A 
ATOM     22  C   UNL     1       0.672  12.972  19.096  0.00  0.00    +0.000 A 
ATOM     23  C   UNL     1       0.904  11.716  19.659  0.00  0.00    +0.000 A 
ENDBRANCH  17  18
ENDBRANCH  14  17
ENDBRANCH  11  14
ENDBRANCH   6  10
BRANCH   9  24
ATOM     24  C   UNL     1       5.820   6.625  17.470  0.00  0.00    +0.000 C 
BRANCH  24  25
ATOM     25  C   UNL     1       6.991   5.908  16.801  0.00  0.00    +0.000 C 
ATOM     26  O   UNL     1       7.218   5.908  15.602  0.00  0.00    +0.000 OA
BRANCH  25  27
ATOM     27  O   UNL     1       7.807   5.275  17.689  0.00  0.00    +0.000 OA
ATOM     28  H   UNL     1       8.484   5.848  18.095  0.00  0.00    +0.000 HD
ENDBRANCH  25  27
ENDBRANCH  24  25
ENDBRANCH   9  24
TORSDOF 8
ENDMDL
MODEL 8
REMARK VINA RESULT:      -6.2      3.394      5.712
REMARK  Name = 
REMARK  9 active torsions:
REMARK  status: ('A' for Active; 'I' for Inactive)
REMARK    1  A    between atoms: C_1  and  C_2
REMARK    2  A    between atoms: C_6  and  N_7
REMARK    3  A    between atoms: C_8  and  C_10
REMARK    4  A    between atoms: C_10  and  S_11
REMARK    5  A    between atoms: C_10  and  C_12
REMARK    6  A    between atoms: C_12  and  C_13
REMARK    7  A    between atoms: N_21  and  C_22
REMARK    8  A    between atoms: C_22  and  C_23
REMARK    9  A    between atoms: C_23  and  O_25
REMARK                            x       y       z     vdW  Elec       q    Type
REMARK                         _______ _______ _______ _____ _____    ______ ____
ROOT
ATOM      1  C   UNL     1       7.856   4.254  16.599  0.00  0.00    +0.000 C 
ATOM      2  C   UNL     1       6.792   4.564  17.663  0.00  0.00    +0.000 C 
ATOM      3  C   UNL     1       7.227   5.700  18.608  0.00  0.00    +0.000 C 
ATOM      4  C   UNL     1       7.627   7.011  17.934  0.00  0.00    +0.000 C 
ATOM      5  C   UNL     1       6.514   7.887  17.352  0.00  0.00    +0.000 C 
ATOM      6  C   UNL     1       5.213   7.240  16.890  0.00  0.00    +0.000 C 
ATOM      7  C   UNL     1       5.350   5.891  16.178  0.00  0.00    +0.000 C 
ATOM      8  O   UNL     1       5.348   5.748  14.960  0.00  0.00    +0.000 OA
ATOM      9  N   UNL     1       5.484   4.810  17.049  0.00  0.00    +0.000 N 
ENDROOT
BRANCH   6  10
ATOM     10  N   UNL     1       4.308   7.003  18.016  0.00  0.00    +0.000 N 
ATOM     11  C   UNL     1       3.084   7.608  18.156  0.00  0.00    +0.000 C 
ATOM     12  O   UNL     1       2.687   8.495  17.405  0.00  0.00    +0.000 OA
ATOM     13  H   UNL     1       4.598   6.322  18.717  0.00  0.00    +0.000 HD
BRANCH  11  14
ATOM     14  C   UNL     1       2.298   7.094  19.365  0.00  0.00    +0.000 C 
BRANCH  14  15
ATOM     15  S   UNL     1       1.402   8.526  20.089  0.00  0.00    +0.000 S 
ATOM     16  H   UNL     1       2.410   8.951  20.866  0.00  0.00    +0.000 HD
ENDBRANCH  14  15
BRANCH  14  17
ATOM     17  C   UNL     1       1.316   5.979  18.999  0.00  0.00    +0.000 C 
BRANCH  17  18
ATOM     18  C   UNL     1       1.478   4.749  19.869  0.00  0.00    +0.000 A 
ATOM     19  C   UNL     1       2.137   4.815  21.104  0.00  0.00    +0.000 A 
ATOM     20  C   UNL     1       2.302   3.661  21.877  0.00  0.00    +0.000 A 
ATOM     21  C   UNL     1       1.819   2.435  21.424  0.00  0.00    +0.000 A 
ATOM     22  C   UNL     1       1.161   2.360  20.201  0.00  0.00    +0.000 A 
ATOM     23  C   UNL     1       0.989   3.509  19.429  0.00  0.00    +0.000 A 
ENDBRANCH  17  18
ENDBRANCH  14  17
ENDBRANCH  11  14
ENDBRANCH   6  10
BRANCH   9  24
ATOM     24  C   UNL     1       4.564   3.689  16.855  0.00  0.00    +0.000 C 
BRANCH  24  25
ATOM     25  C   UNL     1       4.367   2.910  18.154  0.00  0.00    +0.000 C 
ATOM     26  O   UNL     1       4.559   3.357  19.273  0.00  0.00    +0.000 OA
BRANCH  25  27
ATOM     27  O   UNL     1       3.912   1.642  17.953  0.00  0.00    +0.000 OA
ATOM     28  H   UNL     1       4.324   0.970  18.526  0.00  0.00    +0.000 HD
ENDBRANCH  25  27
ENDBRANCH  24  25
ENDBRANCH   9  24
TORSDOF 8
ENDMDL
MODEL 9
REMARK VINA RESULT:      -6.2      1.350      1.700
REMARK  Name = 
REMARK  9 active torsions:
REMARK  status: ('A' for Active; 'I' for Inactive)
REMARK    1  A    between atoms: C_1  and  C_2
REMARK    2  A    between atoms: C_6  and  N_7
REMARK    3  A    between atoms: C_8  and  C_10
REMARK    4  A    between atoms: C_10  and  S_11
REMARK    5  A    between atoms: C_10  and  C_12
REMARK    6  A    between atoms: C_12  and  C_13
REMARK    7  A    between atoms: N_21  and  C_22
REMARK    8  A    between atoms: C_22  and  C_23
REMARK    9  A    between atoms: C_23  and  O_25
REMARK                            x       y       z     vdW  Elec       q    Type
REMARK                         _______ _______ _______ _____ _____    ______ ____
ROOT
ATOM      1  C   UNL     1       3.599   1.733  17.823  0.00  0.00    +0.000 C 
ATOM      2  C   UNL     1       3.314   3.192  17.436  0.00  0.00    +0.000 C 
ATOM      3  C   UNL     1       1.813   3.532  17.512  0.00  0.00    +0.000 C 
ATOM      4  C   UNL     1       1.134   3.249  18.851  0.00  0.00    +0.000 C 
ATOM      5  C   UNL     1       1.432   4.191  20.020  0.00  0.00    +0.000 C 
ATOM      6  C   UNL     1       2.762   4.937  20.064  0.00  0.00    +0.000 C 
ATOM      7  C   UNL     1       3.990   4.148  19.598  0.00  0.00    +0.000 C 
ATOM      8  O   UNL     1       4.776   3.586  20.352  0.00  0.00    +0.000 OA
ATOM      9  N   UNL     1       4.142   4.119  18.212  0.00  0.00    +0.000 N 
ENDROOT
BRANCH   6  10
ATOM     10  N   UNL     1       2.724   6.139  19.228  0.00  0.00    +0.000 N 
ATOM     11  C   UNL     1       2.180   7.334  19.628  0.00  0.00    +0.000 C 
ATOM     12  O   UNL     1       1.568   7.469  20.685  0.00  0.00    +0.000 OA
ATOM     13  H   UNL     1       3.158   6.085  18.308  0.00  0.00    +0.000 HD
BRANCH  11  14
ATOM     14  C   UNL     1       2.375   8.453  18.602  0.00  0.00    +0.000 C 
BRANCH  14  15
ATOM     15  S   UNL     1       3.672   7.901  17.424  0.00  0.00    +0.000 S 
ATOM     16  H   UNL     1       4.138   6.896  18.180  0.00  0.00    +0.000 HD
ENDBRANCH  14  15
BRANCH  14  17
ATOM     17  C   UNL     1       1.085   8.798  17.855  0.00  0.00    +0.000 C 
BRANCH  17  18
ATOM     18  C   UNL     1       0.366   9.992  18.451  0.00  0.00    +0.000 A 
ATOM     19  C   UNL     1      -0.977  10.255  18.151  0.00  0.00    +0.000 A 
ATOM     20  C   UNL     1      -1.613  11.379  18.688  0.00  0.00    +0.000 A 
ATOM     21  C   UNL     1      -0.914  12.251  19.520  0.00  0.00    +0.000 A 
ATOM     22  C   UNL     1       0.419  11.997  19.828  0.00  0.00    +0.000 A 
ATOM     23  C   UNL     1       1.055  10.874  19.298  0.00  0.00    +0.000 A 
ENDBRANCH  17  18
ENDBRANCH  14  17
ENDBRANCH  11  14
ENDBRANCH   6  10
BRANCH   9  24
ATOM     24  C   UNL     1       5.446   4.525  17.685  0.00  0.00    +0.000 C 
BRANCH  24  25
ATOM     25  C   UNL     1       5.501   4.354  16.168  0.00  0.00    +0.000 C 
ATOM     26  O   UNL     1       5.905   3.358  15.591  0.00  0.00    +0.000 OA
BRANCH  25  27
ATOM     27  O   UNL     1       5.013   5.431  15.491  0.00  0.00    +0.000 OA
ATOM     28  H   UNL     1       4.221   5.245  14.955  0.00  0.00    +0.000 HD
ENDBRANCH  25  27
ENDBRANCH  24  25
ENDBRANCH   9  24
TORSDOF 8
ENDMDL
