MODEL 1
REMARK VINA RESULT:      -7.6      0.000      0.000
REMARK  Name = 
REMARK  5 active torsions:
REMARK  status: ('A' for Active; 'I' for Inactive)
REMARK    1  A    between atoms: C_1  and  O_2
REMARK    2  A    between atoms: O_2  and  C_3
REMARK    3  A    between atoms: C_8  and  C_9
REMARK    4  A    between atoms: C_10  and  C_11
REMARK    5  A    between atoms: C_14  and  C_15
REMARK                            x       y       z     vdW  Elec       q    Type
REMARK                         _______ _______ _______ _____ _____    ______ ____
ROOT
ATOM      1  C   UNL     1       2.683   7.954  18.110  0.00  0.00    +0.000 C 
ATOM      2  O   UNL     1       2.666   8.622  17.083  0.00  0.00    +0.000 OA
ATOM      3  N   UNL     1       3.502   6.808  18.208  0.00  0.00    +0.000 N 
ATOM      4  C   UNL     1       3.212   5.707  18.992  0.00  0.00    +0.000 A 
ATOM      5  C   UNL     1       2.110   4.811  18.490  0.00  0.00    +0.000 C 
ATOM      6  N   UNL     1       4.365   5.280  19.474  0.00  0.00    +0.000 NA
ATOM      7  C   UNL     1       5.164   5.424  18.366  0.00  0.00    +0.000 A 
ATOM      8  C   UNL     1       6.321   4.712  18.041  0.00  0.00    +0.000 A 
ATOM      9  C   UNL     1       6.676   4.653  16.692  0.00  0.00    +0.000 A 
ATOM     10  C   UNL     1       5.963   5.387  15.735  0.00  0.00    +0.000 A 
ATOM     11  C   UNL     1       4.931   6.282  16.087  0.00  0.00    +0.000 A 
ATOM     12  C   UNL     1       4.541   6.272  17.432  0.00  0.00    +0.000 A 
ENDROOT
BRANCH   1  14
ATOM     13  C   UNL     1       1.189   9.409  19.543  0.00  0.00    +0.000 C 
ATOM     14  C   UNL     1       1.924   8.286  19.391  0.00  0.00    +0.000 C 
BRANCH  13  20
ATOM     15  C   UNL     1      -0.360  11.086  20.835  0.00  0.00    +0.000 A 
ATOM     16  C   UNL     1      -1.069  11.385  22.026  0.00  0.00    +0.000 A 
ATOM     17  C   UNL     1      -1.021  10.542  23.132  0.00  0.00    +0.000 A 
ATOM     18  C   UNL     1      -0.221   9.412  23.067  0.00  0.00    +0.000 A 
ATOM     19  C   UNL     1       0.509   9.130  21.914  0.00  0.00    +0.000 A 
ATOM     20  C   UNL     1       0.463   9.936  20.756  0.00  0.00    +0.000 A 
BRANCH  15  22
ATOM     21  C   UNL     1      -1.664  12.633  19.611  0.00  0.00    +0.000 C 
ATOM     22  O   UNL     1      -0.446  11.901  19.736  0.00  0.00    +0.000 OA
ENDBRANCH  15  22
ENDBRANCH  13  20
ENDBRANCH   1  14
TORSDOF 3
ENDMDL
MODEL 2
REMARK VINA RESULT:      -7.3      2.390      8.093
REMARK  Name = 
REMARK  5 active torsions:
REMARK  status: ('A' for Active; 'I' for Inactive)
REMARK    1  A    between atoms: C_1  and  O_2
REMARK    2  A    between atoms: O_2  and  C_3
REMARK    3  A    between atoms: C_8  and  C_9
REMARK    4  A    between atoms: C_10  and  C_11
REMARK    5  A    between atoms: C_14  and  C_15
REMARK                            x       y       z     vdW  Elec       q    Type
REMARK                         _______ _______ _______ _____ _____    ______ ____
ROOT
ATOM      1  C   UNL     1       1.457   8.150  20.229  0.00  0.00    +0.000 C 
ATOM      2  O   UNL     1       1.117   7.421  21.153  0.00  0.00    +0.000 OA
ATOM      3  N   UNL     1       1.048   9.501  20.193  0.00  0.00    +0.000 N 
ATOM      4  C   UNL     1       0.854  10.226  19.032  0.00  0.00    +0.000 A 
ATOM      5  C   UNL     1      -0.381   9.886  18.239  0.00  0.00    +0.000 C 
ATOM      6  N   UNL     1       1.267  11.455  19.288  0.00  0.00    +0.000 NA
ATOM      7  C   UNL     1       0.773  11.622  20.558  0.00  0.00    +0.000 A 
ATOM      8  C   UNL     1       0.421  12.813  21.195  0.00  0.00    +0.000 A 
ATOM      9  C   UNL     1      -0.502  12.730  22.239  0.00  0.00    +0.000 A 
ATOM     10  C   UNL     1      -0.947  11.484  22.700  0.00  0.00    +0.000 A 
ATOM     11  C   UNL     1      -0.425  10.269  22.207  0.00  0.00    +0.000 A 
ATOM     12  C   UNL     1       0.442  10.371  21.112  0.00  0.00    +0.000 A 
ENDROOT
BRANCH   1  14
ATOM     13  C   UNL     1       2.757   6.475  18.849  0.00  0.00    +0.000 C 
ATOM     14  C   UNL     1       2.385   7.751  19.086  0.00  0.00    +0.000 C 
BRANCH  13  20
ATOM     15  C   UNL     1       3.970   4.558  17.532  0.00  0.00    +0.000 A 
ATOM     16  C   UNL     1       4.837   4.200  16.469  0.00  0.00    +0.000 A 
ATOM     17  C   UNL     1       5.437   5.163  15.664  0.00  0.00    +0.000 A 
ATOM     18  C   UNL     1       5.208   6.501  15.952  0.00  0.00    +0.000 A 
ATOM     19  C   UNL     1       4.387   6.862  17.019  0.00  0.00    +0.000 A 
ATOM     20  C   UNL     1       3.730   5.920  17.838  0.00  0.00    +0.000 A 
BRANCH  15  22
ATOM     21  C   UNL     1       4.162   3.004  19.304  0.00  0.00    +0.000 C 
ATOM     22  O   UNL     1       3.350   3.601  18.294  0.00  0.00    +0.000 OA
ENDBRANCH  15  22
ENDBRANCH  13  20
ENDBRANCH   1  14
TORSDOF 3
ENDMDL
MODEL 3
REMARK VINA RESULT:      -7.0      5.028      9.022
REMARK  Name = 
REMARK  5 active torsions:
REMARK  status: ('A' for Active; 'I' for Inactive)
REMARK    1  A    between atoms: C_1  and  O_2
REMARK    2  A    between atoms: O_2  and  C_3
REMARK    3  A    between atoms: C_8  and  C_9
REMARK    4  A    between atoms: C_10  and  C_11
REMARK    5  A    between atoms: C_14  and  C_15
REMARK                            x       y       z     vdW  Elec       q    Type
REMARK                         _______ _______ _______ _____ _____    ______ ____
ROOT
ATOM      1  C   UNL     1       5.322   4.254  17.891  0.00  0.00    +0.000 C 
ATOM      2  O   UNL     1       5.858   4.997  18.705  0.00  0.00    +0.000 OA
ATOM      3  N   UNL     1       4.054   3.692  18.159  0.00  0.00    +0.000 N 
ATOM      4  C   UNL     1       3.622   2.474  17.668  0.00  0.00    +0.000 A 
ATOM      5  C   UNL     1       4.237   1.252  18.300  0.00  0.00    +0.000 C 
ATOM      6  N   UNL     1       2.336   2.615  17.404  0.00  0.00    +0.000 NA
ATOM      7  C   UNL     1       1.939   3.350  18.494  0.00  0.00    +0.000 A 
ATOM      8  C   UNL     1       0.673   3.404  19.081  0.00  0.00    +0.000 A 
ATOM      9  C   UNL     1       0.607   3.786  20.422  0.00  0.00    +0.000 A 
ATOM     10  C   UNL     1       1.756   4.216  21.098  0.00  0.00    +0.000 A 
ATOM     11  C   UNL     1       2.998   4.375  20.447  0.00  0.00    +0.000 A 
ATOM     12  C   UNL     1       3.062   3.917  19.124  0.00  0.00    +0.000 A 
ENDROOT
BRANCH   1  14
ATOM     13  C   UNL     1       5.496   4.538  15.383  0.00  0.00    +0.000 C 
ATOM     14  C   UNL     1       5.878   3.906  16.514  0.00  0.00    +0.000 C 
BRANCH  13  20
ATOM     15  C   UNL     1       7.052   4.643  13.274  0.00  0.00    +0.000 A 
ATOM     16  C   UNL     1       7.301   4.205  11.948  0.00  0.00    +0.000 A 
ATOM     17  C   UNL     1       6.422   3.355  11.286  0.00  0.00    +0.000 A 
ATOM     18  C   UNL     1       5.257   2.973  11.934  0.00  0.00    +0.000 A 
ATOM     19  C   UNL     1       4.986   3.429  13.223  0.00  0.00    +0.000 A 
ATOM     20  C   UNL     1       5.865   4.263  13.947  0.00  0.00    +0.000 A 
BRANCH  15  22
ATOM     21  C   UNL     1       8.983   5.999  13.127  0.00  0.00    +0.000 C 
ATOM     22  O   UNL     1       7.944   5.447  13.935  0.00  0.00    +0.000 OA
ENDBRANCH  15  22
ENDBRANCH  13  20
ENDBRANCH   1  14
TORSDOF 3
ENDMDL
MODEL 4
REMARK VINA RESULT:      -6.9      2.420      7.844
REMARK  Name = 
REMARK  5 active torsions:
REMARK  status: ('A' for Active; 'I' for Inactive)
REMARK    1  A    between atoms: C_1  and  O_2
REMARK    2  A    between atoms: O_2  and  C_3
REMARK    3  A    between atoms: C_8  and  C_9
REMARK    4  A    between atoms: C_10  and  C_11
REMARK    5  A    between atoms: C_14  and  C_15
REMARK                            x       y       z     vdW  Elec       q    Type
REMARK                         _______ _______ _______ _____ _____    ______ ____
ROOT
ATOM      1  C   UNL     1       1.853  10.038  18.054  0.00  0.00    +0.000 C 
ATOM      2  O   UNL     1       2.628  10.856  17.573  0.00  0.00    +0.000 OA
ATOM      3  N   UNL     1       0.775  10.461  18.862  0.00  0.00    +0.000 N 
ATOM      4  C   UNL     1       0.220   9.707  19.879  0.00  0.00    +0.000 A 
ATOM      5  C   UNL     1       1.044   9.585  21.135  0.00  0.00    +0.000 C 
ATOM      6  N   UNL     1      -1.079   9.946  19.854  0.00  0.00    +0.000 NA
ATOM      7  C   UNL     1      -1.076  11.300  19.622  0.00  0.00    +0.000 A 
ATOM      8  C   UNL     1      -2.051  12.235  19.974  0.00  0.00    +0.000 A 
ATOM      9  C   UNL     1      -1.642  13.564  20.105  0.00  0.00    +0.000 A 
ATOM     10  C   UNL     1      -0.336  13.944  19.770  0.00  0.00    +0.000 A 
ATOM     11  C   UNL     1       0.589  13.043  19.202  0.00  0.00    +0.000 A 
ATOM     12  C   UNL     1       0.187  11.702  19.148  0.00  0.00    +0.000 A 
ENDROOT
BRANCH   1  14
ATOM     13  C   UNL     1       3.009   7.792  17.927  0.00  0.00    +0.000 C 
ATOM     14  C   UNL     1       1.889   8.535  17.802  0.00  0.00    +0.000 C 
BRANCH  13  20
ATOM     15  C   UNL     1       4.409   5.741  17.078  0.00  0.00    +0.000 A 
ATOM     16  C   UNL     1       4.518   4.333  16.965  0.00  0.00    +0.000 A 
ATOM     17  C   UNL     1       3.518   3.486  17.430  0.00  0.00    +0.000 A 
ATOM     18  C   UNL     1       2.373   4.050  17.973  0.00  0.00    +0.000 A 
ATOM     19  C   UNL     1       2.241   5.435  18.054  0.00  0.00    +0.000 A 
ATOM     20  C   UNL     1       3.244   6.332  17.628  0.00  0.00    +0.000 A 
BRANCH  15  22
ATOM     21  C   UNL     1       6.631   6.483  17.401  0.00  0.00    +0.000 C 
ATOM     22  O   UNL     1       5.418   6.568  16.655  0.00  0.00    +0.000 OA
ENDBRANCH  15  22
ENDBRANCH  13  20
ENDBRANCH   1  14
TORSDOF 3
ENDMDL
MODEL 5
REMARK VINA RESULT:      -6.8      6.951      9.529
REMARK  Name = 
REMARK  5 active torsions:
REMARK  status: ('A' for Active; 'I' for Inactive)
REMARK    1  A    between atoms: C_1  and  O_2
REMARK    2  A    between atoms: O_2  and  C_3
REMARK    3  A    between atoms: C_8  and  C_9
REMARK    4  A    between atoms: C_10  and  C_11
REMARK    5  A    between atoms: C_14  and  C_15
REMARK                            x       y       z     vdW  Elec       q    Type
REMARK                         _______ _______ _______ _____ _____    ______ ____
ROOT
ATOM      1  C   UNL     1       8.618  11.263  18.073  0.00  0.00    +0.000 C 
ATOM      2  O   UNL     1       7.951  11.844  17.226  0.00  0.00    +0.000 OA
ATOM      3  N   UNL     1       9.408  11.992  18.989  0.00  0.00    +0.000 N 
ATOM      4  C   UNL     1      10.576  11.521  19.558  0.00  0.00    +0.000 A 
ATOM      5  C   UNL     1      11.777  11.463  18.650  0.00  0.00    +0.000 C 
ATOM      6  N   UNL     1      10.596  11.974  20.798  0.00  0.00    +0.000 NA
ATOM      7  C   UNL     1      10.129  13.251  20.601  0.00  0.00    +0.000 A 
ATOM      8  C   UNL     1      10.375  14.385  21.377  0.00  0.00    +0.000 A 
ATOM      9  C   UNL     1      10.243  15.626  20.751  0.00  0.00    +0.000 A 
ATOM     10  C   UNL     1       9.761  15.715  19.439  0.00  0.00    +0.000 A 
ATOM     11  C   UNL     1       9.301  14.587  18.727  0.00  0.00    +0.000 A 
ATOM     12  C   UNL     1       9.510  13.345  19.341  0.00  0.00    +0.000 A 
ENDROOT
BRANCH   1  14
ATOM     13  C   UNL     1       7.760   8.910  17.713  0.00  0.00    +0.000 C 
ATOM     14  C   UNL     1       8.634   9.755  18.302  0.00  0.00    +0.000 C 
BRANCH  13  20
ATOM     15  C   UNL     1       6.884   6.530  17.042  0.00  0.00    +0.000 A 
ATOM     16  C   UNL     1       6.895   5.136  17.297  0.00  0.00    +0.000 A 
ATOM     17  C   UNL     1       7.616   4.596  18.357  0.00  0.00    +0.000 A 
ATOM     18  C   UNL     1       8.296   5.461  19.202  0.00  0.00    +0.000 A 
ATOM     19  C   UNL     1       8.260   6.836  18.980  0.00  0.00    +0.000 A 
ATOM     20  C   UNL     1       7.572   7.425  17.898  0.00  0.00    +0.000 A 
BRANCH  15  22
ATOM     21  C   UNL     1       5.166   6.223  15.446  0.00  0.00    +0.000 C 
ATOM     22  O   UNL     1       6.204   7.050  15.970  0.00  0.00    +0.000 OA
ENDBRANCH  15  22
ENDBRANCH  13  20
ENDBRANCH   1  14
TORSDOF 3
ENDMDL
MODEL 6
REMARK VINA RESULT:      -6.8      3.020      8.230
REMARK  Name = 
REMARK  5 active torsions:
REMARK  status: ('A' for Active; 'I' for Inactive)
REMARK    1  A    between atoms: C_1  and  O_2
REMARK    2  A    between atoms: O_2  and  C_3
REMARK    3  A    between atoms: C_8  and  C_9
REMARK    4  A    between atoms: C_10  and  C_11
REMARK    5  A    between atoms: C_14  and  C_15
REMARK                            x       y       z     vdW  Elec       q    Type
REMARK                         _______ _______ _______ _____ _____    ______ ____
ROOT
ATOM      1  C   UNL     1       0.411   9.020  21.691  0.00  0.00    +0.000 C 
ATOM      2  O   UNL     1      -0.225   8.565  22.634  0.00  0.00    +0.000 OA
ATOM      3  N   UNL     1       0.327  10.392  21.365  0.00  0.00    +0.000 N 
ATOM      4  C   UNL     1       0.485  10.901  20.090  0.00  0.00    +0.000 A 
ATOM      5  C   UNL     1      -0.656  10.659  19.136  0.00  0.00    +0.000 C 
ATOM      6  N   UNL     1       1.119  12.052  20.224  0.00  0.00    +0.000 NA
ATOM      7  C   UNL     1       0.483  12.555  21.333  0.00  0.00    +0.000 A 
ATOM      8  C   UNL     1       0.313  13.893  21.694  0.00  0.00    +0.000 A 
ATOM      9  C   UNL     1      -0.755  14.195  22.540  0.00  0.00    +0.000 A 
ATOM     10  C   UNL     1      -1.536  13.172  23.095  0.00  0.00    +0.000 A 
ATOM     11  C   UNL     1      -1.231  11.807  22.910  0.00  0.00    +0.000 A 
ATOM     12  C   UNL     1      -0.204  11.524  22.001  0.00  0.00    +0.000 A 
ENDROOT
BRANCH   1  14
ATOM     13  C   UNL     1       1.326   6.895  20.668  0.00  0.00    +0.000 C 
ATOM     14  C   UNL     1       1.391   8.235  20.826  0.00  0.00    +0.000 C 
BRANCH  13  20
ATOM     15  C   UNL     1       2.647   4.654  20.331  0.00  0.00    +0.000 A 
ATOM     16  C   UNL     1       3.442   3.851  19.474  0.00  0.00    +0.000 A 
ATOM     17  C   UNL     1       3.822   4.291  18.211  0.00  0.00    +0.000 A 
ATOM     18  C   UNL     1       3.445   5.566  17.814  0.00  0.00    +0.000 A 
ATOM     19  C   UNL     1       2.695   6.376  18.664  0.00  0.00    +0.000 A 
ATOM     20  C   UNL     1       2.257   5.958  19.939  0.00  0.00    +0.000 A 
BRANCH  15  22
ATOM     21  C   UNL     1       1.803   2.838  21.589  0.00  0.00    +0.000 C 
ATOM     22  O   UNL     1       2.241   4.196  21.558  0.00  0.00    +0.000 OA
ENDBRANCH  15  22
ENDBRANCH  13  20
ENDBRANCH   1  14
TORSDOF 3
ENDMDL
MODEL 7
REMARK VINA RESULT:      -6.8      2.186      8.104
REMARK  Name = 
REMARK  5 active torsions:
REMARK  status: ('A' for Active; 'I' for Inactive)
REMARK    1  A    between atoms: C_1  and  O_2
REMARK    2  A    between atoms: O_2  and  C_3
REMARK    3  A    between atoms: C_8  and  C_9
REMARK    4  A    between atoms: C_10  and  C_11
REMARK    5  A    between atoms: C_14  and  C_15
REMARK                            x       y       z     vdW  Elec       q    Type
REMARK                         _______ _______ _______ _____ _____    ______ ____
ROOT
ATOM      1  C   UNL     1       2.173   7.235  19.612  0.00  0.00    +0.000 C 
ATOM      2  O   UNL     1       1.825   6.391  20.428  0.00  0.00    +0.000 OA
ATOM      3  N   UNL     1       1.648   8.545  19.666  0.00  0.00    +0.000 N 
ATOM      4  C   UNL     1       1.487   9.366  18.566  0.00  0.00    +0.000 A 
ATOM      5  C   UNL     1       0.358   9.009  17.634  0.00  0.00    +0.000 C 
ATOM      6  N   UNL     1       1.765  10.592  18.972  0.00  0.00    +0.000 NA
ATOM      7  C   UNL     1       1.154  10.588  20.202  0.00  0.00    +0.000 A 
ATOM      8  C   UNL     1       0.645  11.676  20.913  0.00  0.00    +0.000 A 
ATOM      9  C   UNL     1      -0.350  11.412  21.856  0.00  0.00    +0.000 A 
ATOM     10  C   UNL     1      -0.717  10.094  22.155  0.00  0.00    +0.000 A 
ATOM     11  C   UNL     1      -0.049   8.981  21.601  0.00  0.00    +0.000 A 
ATOM     12  C   UNL     1       0.892   9.264  20.603  0.00  0.00    +0.000 A 
ENDROOT
BRANCH   1  14
ATOM     13  C   UNL     1       3.949   5.898  18.404  0.00  0.00    +0.000 C 
ATOM     14  C   UNL     1       3.224   7.031  18.526  0.00  0.00    +0.000 C 
BRANCH  13  20
ATOM     15  C   UNL     1       6.347   5.023  17.796  0.00  0.00    +0.000 A 
ATOM     16  C   UNL     1       7.265   4.660  16.779  0.00  0.00    +0.000 A 
ATOM     17  C   UNL     1       6.941   4.776  15.431  0.00  0.00    +0.000 A 
ATOM     18  C   UNL     1       5.705   5.306  15.092  0.00  0.00    +0.000 A 
ATOM     19  C   UNL     1       4.811   5.701  16.085  0.00  0.00    +0.000 A 
ATOM     20  C   UNL     1       5.082   5.568  17.463  0.00  0.00    +0.000 A 
BRANCH  15  22
ATOM     21  C   UNL     1       7.766   5.638  19.585  0.00  0.00    +0.000 C 
ATOM     22  O   UNL     1       6.658   4.866  19.122  0.00  0.00    +0.000 OA
ENDBRANCH  15  22
ENDBRANCH  13  20
ENDBRANCH   1  14
TORSDOF 3
ENDMDL
MODEL 8
REMARK VINA RESULT:      -6.8      2.531      8.070
REMARK  Name = 
REMARK  5 active torsions:
REMARK  status: ('A' for Active; 'I' for Inactive)
REMARK    1  A    between atoms: C_1  and  O_2
REMARK    2  A    between atoms: O_2  and  C_3
REMARK    3  A    between atoms: C_8  and  C_9
REMARK    4  A    between atoms: C_10  and  C_11
REMARK    5  A    between atoms: C_14  and  C_15
REMARK                            x       y       z     vdW  Elec       q    Type
REMARK                         _______ _______ _______ _____ _____    ______ ____
ROOT
ATOM      1  C   UNL     1       0.260  10.037  18.798  0.00  0.00    +0.000 C 
ATOM      2  O   UNL     1      -0.440  10.035  17.793  0.00  0.00    +0.000 OA
ATOM      3  N   UNL     1      -0.106  10.804  19.925  0.00  0.00    +0.000 N 
ATOM      4  C   UNL     1       0.793  11.344  20.826  0.00  0.00    +0.000 A 
ATOM      5  C   UNL     1       1.582  12.532  20.339  0.00  0.00    +0.000 C 
ATOM      6  N   UNL     1       0.226  11.257  22.016  0.00  0.00    +0.000 NA
ATOM      7  C   UNL     1      -1.065  11.603  21.700  0.00  0.00    +0.000 A 
ATOM      8  C   UNL     1      -2.027  12.182  22.529  0.00  0.00    +0.000 A 
ATOM      9  C   UNL     1      -3.055  12.896  21.911  0.00  0.00    +0.000 A 
ATOM     10  C   UNL     1      -3.171  12.914  20.514  0.00  0.00    +0.000 A 
ATOM     11  C   UNL     1      -2.331  12.148  19.679  0.00  0.00    +0.000 A 
ATOM     12  C   UNL     1      -1.263  11.498  20.310  0.00  0.00    +0.000 A 
ENDROOT
BRANCH   1  14
ATOM     13  C   UNL     1       1.841   8.152  18.208  0.00  0.00    +0.000 C 
ATOM     14  C   UNL     1       1.517   9.197  18.999  0.00  0.00    +0.000 C 
BRANCH  13  20
ATOM     15  C   UNL     1       3.097   6.087  19.229  0.00  0.00    +0.000 A 
ATOM     16  C   UNL     1       4.178   5.176  19.131  0.00  0.00    +0.000 A 
ATOM     17  C   UNL     1       5.125   5.279  18.117  0.00  0.00    +0.000 A 
ATOM     18  C   UNL     1       5.020   6.330  17.218  0.00  0.00    +0.000 A 
ATOM     19  C   UNL     1       3.981   7.252  17.330  0.00  0.00    +0.000 A 
ATOM     20  C   UNL     1       2.979   7.167  18.319  0.00  0.00    +0.000 A 
BRANCH  15  22
ATOM     21  C   UNL     1       2.181   4.726  20.932  0.00  0.00    +0.000 C 
ATOM     22  O   UNL     1       2.144   5.954  20.207  0.00  0.00    +0.000 OA
ENDBRANCH  15  22
ENDBRANCH  13  20
ENDBRANCH   1  14
TORSDOF 3
ENDMDL
MODEL 9
REMARK VINA RESULT:      -6.7      5.066      7.312
REMARK  Name = 
REMARK  5 active torsions:
REMARK  status: ('A' for Active; 'I' for Inactive)
REMARK    1  A    between atoms: C_1  and  O_2
REMARK    2  A    between atoms: O_2  and  C_3
REMARK    3  A    between atoms: C_8  and  C_9
REMARK    4  A    between atoms: C_10  and  C_11
REMARK    5  A    between atoms: C_14  and  C_15
REMARK                            x       y       z     vdW  Elec       q    Type
REMARK                         _______ _______ _______ _____ _____    ______ ____
ROOT
ATOM      1  C   UNL     1       7.450   6.584  18.305  0.00  0.00    +0.000 C 
ATOM      2  O   UNL     1       8.127   5.680  18.779  0.00  0.00    +0.000 OA
ATOM      3  N   UNL     1       6.089   6.373  17.992  0.00  0.00    +0.000 N 
ATOM      4  C   UNL     1       5.408   7.034  16.988  0.00  0.00    +0.000 A 
ATOM      5  C   UNL     1       5.742   6.618  15.579  0.00  0.00    +0.000 C 
ATOM      6  N   UNL     1       4.184   7.239  17.439  0.00  0.00    +0.000 NA
ATOM      7  C   UNL     1       3.947   6.037  18.061  0.00  0.00    +0.000 A 
ATOM      8  C   UNL     1       2.718   5.416  18.291  0.00  0.00    +0.000 A 
ATOM      9  C   UNL     1       2.726   4.031  18.463  0.00  0.00    +0.000 A 
ATOM     10  C   UNL     1       3.936   3.327  18.526  0.00  0.00    +0.000 A 
ATOM     11  C   UNL     1       5.188   3.979  18.516  0.00  0.00    +0.000 A 
ATOM     12  C   UNL     1       5.162   5.358  18.269  0.00  0.00    +0.000 A 
ENDROOT
BRANCH   1  14
ATOM     13  C   UNL     1       8.666   8.702  18.965  0.00  0.00    +0.000 C 
ATOM     14  C   UNL     1       7.927   8.013  18.069  0.00  0.00    +0.000 C 
BRANCH  13  20
ATOM     15  C   UNL     1       9.320  11.003  20.042  0.00  0.00    +0.000 A 
ATOM     16  C   UNL     1       9.881  12.292  19.860  0.00  0.00    +0.000 A 
ATOM     17  C   UNL     1      10.312  12.729  18.612  0.00  0.00    +0.000 A 
ATOM     18  C   UNL     1      10.139  11.888  17.522  0.00  0.00    +0.000 A 
ATOM     19  C   UNL     1       9.554  10.634  17.685  0.00  0.00    +0.000 A 
ATOM     20  C   UNL     1       9.135  10.136  18.937  0.00  0.00    +0.000 A 
BRANCH  15  22
ATOM     21  C   UNL     1       8.494  11.583  22.180  0.00  0.00    +0.000 C 
ATOM     22  O   UNL     1       8.936  10.565  21.283  0.00  0.00    +0.000 OA
ENDBRANCH  15  22
ENDBRANCH  13  20
ENDBRANCH   1  14
TORSDOF 3
ENDMDL
