MODEL 1
REMARK VINA RESULT:      -5.5      0.000      0.000
REMARK  Name = 
REMARK  23 active torsions:
REMARK  status: ('A' for Active; 'I' for Inactive)
REMARK    1  A    between atoms: C_1  and  C_2
REMARK    2  A    between atoms: C_2  and  C_3
REMARK    3  A    between atoms: C_3  and  C_4
REMARK    4  A    between atoms: C_4  and  C_5
REMARK    5  A    between atoms: C_5  and  C_6
REMARK    6  A    between atoms: C_6  and  C_7
REMARK    7  A    between atoms: C_7  and  C_8
REMARK    8  A    between atoms: C_8  and  C_9
REMARK    9  A    between atoms: C_9  and  C_10
REMARK   10  A    between atoms: C_10  and  C_11
REMARK   11  A    between atoms: C_11  and  C_12
REMARK   12  A    between atoms: C_12  and  C_13
REMARK   13  A    between atoms: C_13  and  C_14
REMARK   14  A    between atoms: C_14  and  C_15
REMARK   15  A    between atoms: C_15  and  C_16
REMARK   16  A    between atoms: C_16  and  C_17
REMARK   17  A    between atoms: C_17  and  C_18
REMARK   18  A    between atoms: C_18  and  N_19
REMARK   19  A    between atoms: N_19  and  C_20
REMARK   20  A    between atoms: N_19  and  C_21
REMARK   21  A    between atoms: N_19  and  C_22
REMARK   22  A    between atoms: C_22  and  C_23
REMARK   23  A    between atoms: C_23  and  O_24
REMARK                            x       y       z     vdW  Elec       q    Type
REMARK                         _______ _______ _______ _____ _____    ______ ____
ROOT
ATOM      1  C   UNL     1       5.955   6.778  17.413  0.00  0.00    +0.000 C 
ENDROOT
BRANCH   1   2
ATOM      2  C   UNL     1       5.296   6.516  16.091  0.00  0.00    +0.000 C 
BRANCH   2   3
ATOM      3  C   UNL     1       5.396   5.046  15.799  0.00  0.00    +0.000 C 
BRANCH   3   4
ATOM      4  C   UNL     1       5.030   4.321  17.056  0.00  0.00    +0.000 C 
BRANCH   4   5
ATOM      5  C   UNL     1       3.640   3.768  16.891  0.00  0.00    +0.000 C 
BRANCH   5   6
ATOM      6  C   UNL     1       3.424   2.769  17.987  0.00  0.00    +0.000 C 
BRANCH   6   7
ATOM      7  C   UNL     1       1.993   2.308  17.941  0.00  0.00    +0.000 C 
BRANCH   7   8
ATOM      8  C   UNL     1       1.640   1.849  19.330  0.00  0.00    +0.000 C 
BRANCH   8   9
ATOM      9  C   UNL     1       0.831   2.901  20.053  0.00  0.00    +0.000 C 
BRANCH   9  10
ATOM     10  C   UNL     1       1.461   3.209  21.403  0.00  0.00    +0.000 C 
BRANCH  10  11
ATOM     11  C   UNL     1       2.354   4.448  21.335  0.00  0.00    +0.000 C 
BRANCH  11  13
ATOM     12  C   UNL     1       2.795   6.160  19.585  0.00  0.00    +0.000 C 
ATOM     13  C   UNL     1       1.739   5.556  20.498  0.00  0.00    +0.000 C 
ENDBRANCH  11  13
ENDBRANCH  10  11
ENDBRANCH   9  10
ENDBRANCH   8   9
ENDBRANCH   7   8
ENDBRANCH   6   7
ENDBRANCH   5   6
ENDBRANCH   4   5
ENDBRANCH   3   4
ENDBRANCH   2   3
ENDBRANCH   1   2
BRANCH   1  14
ATOM     14  C   UNL     1       7.447   6.745  17.199  0.00  0.00    +0.000 C 
BRANCH  14  15
ATOM     15  C   UNL     1       8.060   7.675  18.207  0.00  0.00    +0.000 C 
BRANCH  15  16
ATOM     16  C   UNL     1       7.994   9.104  17.710  0.00  0.00    +0.000 C 
BRANCH  16  17
ATOM     17  C   UNL     1       8.901   9.986  18.548  0.00  0.00    +0.000 C 
BRANCH  17  18
ATOM     18  C   UNL     1       8.797  11.452  18.123  0.00  0.00    +0.000 C 
BRANCH  18  19
ATOM     19  N   UNL     1       9.933  12.335  18.655  0.00  0.00    +0.000 N 
ATOM     20  C   UNL     1      11.029  11.453  19.257  0.00  0.00    +0.000 C 
ATOM     21  C   UNL     1      10.514  13.188  17.531  0.00  0.00    +0.000 C 
BRANCH  19  22
ATOM     22  C   UNL     1       9.282  13.255  19.739  0.00  0.00    +0.000 C 
BRANCH  22  23
ATOM     23  C   UNL     1      10.171  14.389  20.258  0.00  0.00    +0.000 C 
BRANCH  23  24
ATOM     24  O   UNL     1      10.299  14.358  21.672  0.00  0.00    +0.000 OA
ATOM     25  H   UNL     1      10.677  15.205  21.969  0.00  0.00    +0.000 HD
ENDBRANCH  23  24
ENDBRANCH  22  23
ENDBRANCH  19  22
ENDBRANCH  18  19
ENDBRANCH  17  18
ENDBRANCH  16  17
ENDBRANCH  15  16
ENDBRANCH  14  15
ENDBRANCH   1  14
TORSDOF 20
ENDMDL
MODEL 2
REMARK VINA RESULT:      -5.3      1.532      2.817
REMARK  Name = 
REMARK  23 active torsions:
REMARK  status: ('A' for Active; 'I' for Inactive)
REMARK    1  A    between atoms: C_1  and  C_2
REMARK    2  A    between atoms: C_2  and  C_3
REMARK    3  A    between atoms: C_3  and  C_4
REMARK    4  A    between atoms: C_4  and  C_5
REMARK    5  A    between atoms: C_5  and  C_6
REMARK    6  A    between atoms: C_6  and  C_7
REMARK    7  A    between atoms: C_7  and  C_8
REMARK    8  A    between atoms: C_8  and  C_9
REMARK    9  A    between atoms: C_9  and  C_10
REMARK   10  A    between atoms: C_10  and  C_11
REMARK   11  A    between atoms: C_11  and  C_12
REMARK   12  A    between atoms: C_12  and  C_13
REMARK   13  A    between atoms: C_13  and  C_14
REMARK   14  A    between atoms: C_14  and  C_15
REMARK   15  A    between atoms: C_15  and  C_16
REMARK   16  A    between atoms: C_16  and  C_17
REMARK   17  A    between atoms: C_17  and  C_18
REMARK   18  A    between atoms: C_18  and  N_19
REMARK   19  A    between atoms: N_19  and  C_20
REMARK   20  A    between atoms: N_19  and  C_21
REMARK   21  A    between atoms: N_19  and  C_22
REMARK   22  A    between atoms: C_22  and  C_23
REMARK   23  A    between atoms: C_23  and  O_24
REMARK                            x       y       z     vdW  Elec       q    Type
REMARK                         _______ _______ _______ _____ _____    ______ ____
ROOT
ATOM      1  C   UNL     1       5.823   6.587  17.548  0.00  0.00    +0.000 C 
ENDROOT
BRANCH   1   2
ATOM      2  C   UNL     1       4.492   6.648  16.858  0.00  0.00    +0.000 C 
BRANCH   2   3
ATOM      3  C   UNL     1       3.577   7.510  17.680  0.00  0.00    +0.000 C 
BRANCH   3   4
ATOM      4  C   UNL     1       2.464   6.636  18.165  0.00  0.00    +0.000 C 
BRANCH   4   5
ATOM      5  C   UNL     1       2.658   6.403  19.639  0.00  0.00    +0.000 C 
BRANCH   5   6
ATOM      6  C   UNL     1       1.640   5.391  20.069  0.00  0.00    +0.000 C 
BRANCH   6   7
ATOM      7  C   UNL     1       2.222   4.569  21.186  0.00  0.00    +0.000 C 
BRANCH   7   8
ATOM      8  C   UNL     1       1.472   3.265  21.204  0.00  0.00    +0.000 C 
BRANCH   8   9
ATOM      9  C   UNL     1       1.093   2.845  19.802  0.00  0.00    +0.000 C 
BRANCH   9  10
ATOM     10  C   UNL     1       2.182   1.965  19.208  0.00  0.00    +0.000 C 
BRANCH  10  11
ATOM     11  C   UNL     1       2.348   2.216  17.708  0.00  0.00    +0.000 C 
BRANCH  11  13
ATOM     12  C   UNL     1       4.431   3.264  18.577  0.00  0.00    +0.000 C 
ATOM     13  C   UNL     1       3.457   3.209  17.410  0.00  0.00    +0.000 C 
ENDBRANCH  11  13
ENDBRANCH  10  11
ENDBRANCH   9  10
ENDBRANCH   8   9
ENDBRANCH   7   8
ENDBRANCH   6   7
ENDBRANCH   5   6
ENDBRANCH   4   5
ENDBRANCH   3   4
ENDBRANCH   2   3
ENDBRANCH   1   2
BRANCH   1  14
ATOM     14  C   UNL     1       6.502   7.920  17.357  0.00  0.00    +0.000 C 
BRANCH  14  15
ATOM     15  C   UNL     1       7.978   7.694  17.519  0.00  0.00    +0.000 C 
BRANCH  15  16
ATOM     16  C   UNL     1       8.527   8.591  18.608  0.00  0.00    +0.000 C 
BRANCH  16  17
ATOM     17  C   UNL     1       8.409  10.045  18.189  0.00  0.00    +0.000 C 
BRANCH  17  18
ATOM     18  C   UNL     1       9.785  10.664  17.934  0.00  0.00    +0.000 C 
BRANCH  18  19
ATOM     19  N   UNL     1      10.141  11.804  18.895  0.00  0.00    +0.000 N 
ATOM     20  C   UNL     1       9.259  11.719  20.142  0.00  0.00    +0.000 C 
ATOM     21  C   UNL     1      11.612  11.724  19.295  0.00  0.00    +0.000 C 
BRANCH  19  22
ATOM     22  C   UNL     1       9.878  13.126  18.099  0.00  0.00    +0.000 C 
BRANCH  22  23
ATOM     23  C   UNL     1       8.457  13.684  18.206  0.00  0.00    +0.000 C 
BRANCH  23  24
ATOM     24  O   UNL     1       7.669  13.349  17.073  0.00  0.00    +0.000 OA
ATOM     25  H   UNL     1       7.551  12.381  17.050  0.00  0.00    +0.000 HD
ENDBRANCH  23  24
ENDBRANCH  22  23
ENDBRANCH  19  22
ENDBRANCH  18  19
ENDBRANCH  17  18
ENDBRANCH  16  17
ENDBRANCH  15  16
ENDBRANCH  14  15
ENDBRANCH   1  14
TORSDOF 20
ENDMDL
MODEL 3
REMARK VINA RESULT:      -5.3      1.689      3.207
REMARK  Name = 
REMARK  23 active torsions:
REMARK  status: ('A' for Active; 'I' for Inactive)
REMARK    1  A    between atoms: C_1  and  C_2
REMARK    2  A    between atoms: C_2  and  C_3
REMARK    3  A    between atoms: C_3  and  C_4
REMARK    4  A    between atoms: C_4  and  C_5
REMARK    5  A    between atoms: C_5  and  C_6
REMARK    6  A    between atoms: C_6  and  C_7
REMARK    7  A    between atoms: C_7  and  C_8
REMARK    8  A    between atoms: C_8  and  C_9
REMARK    9  A    between atoms: C_9  and  C_10
REMARK   10  A    between atoms: C_10  and  C_11
REMARK   11  A    between atoms: C_11  and  C_12
REMARK   12  A    between atoms: C_12  and  C_13
REMARK   13  A    between atoms: C_13  and  C_14
REMARK   14  A    between atoms: C_14  and  C_15
REMARK   15  A    between atoms: C_15  and  C_16
REMARK   16  A    between atoms: C_16  and  C_17
REMARK   17  A    between atoms: C_17  and  C_18
REMARK   18  A    between atoms: C_18  and  N_19
REMARK   19  A    between atoms: N_19  and  C_20
REMARK   20  A    between atoms: N_19  and  C_21
REMARK   21  A    between atoms: N_19  and  C_22
REMARK   22  A    between atoms: C_22  and  C_23
REMARK   23  A    between atoms: C_23  and  O_24
REMARK                            x       y       z     vdW  Elec       q    Type
REMARK                         _______ _______ _______ _____ _____    ______ ____
ROOT
ATOM      1  C   UNL     1       8.206   7.430  18.488  0.00  0.00    +0.000 C 
ENDROOT
BRANCH   1   2
ATOM      2  C   UNL     1       7.228   6.549  17.769  0.00  0.00    +0.000 C 
BRANCH   2   3
ATOM      3  C   UNL     1       6.112   7.411  17.252  0.00  0.00    +0.000 C 
BRANCH   3   4
ATOM      4  C   UNL     1       5.363   6.603  16.239  0.00  0.00    +0.000 C 
BRANCH   4   5
ATOM      5  C   UNL     1       6.312   5.595  15.648  0.00  0.00    +0.000 C 
BRANCH   5   6
ATOM      6  C   UNL     1       5.486   4.467  15.109  0.00  0.00    +0.000 C 
BRANCH   6   7
ATOM      7  C   UNL     1       5.288   3.451  16.200  0.00  0.00    +0.000 C 
BRANCH   7   8
ATOM      8  C   UNL     1       4.029   3.835  16.929  0.00  0.00    +0.000 C 
BRANCH   8   9
ATOM      9  C   UNL     1       4.142   3.513  18.402  0.00  0.00    +0.000 C 
BRANCH   9  10
ATOM     10  C   UNL     1       3.158   2.415  18.774  0.00  0.00    +0.000 C 
BRANCH  10  11
ATOM     11  C   UNL     1       1.750   2.729  18.266  0.00  0.00    +0.000 C 
BRANCH  11  13
ATOM     12  C   UNL     1       1.128   3.605  20.510  0.00  0.00    +0.000 C 
ATOM     13  C   UNL     1       0.714   2.681  19.375  0.00  0.00    +0.000 C 
ENDBRANCH  11  13
ENDBRANCH  10  11
ENDBRANCH   9  10
ENDBRANCH   8   9
ENDBRANCH   7   8
ENDBRANCH   6   7
ENDBRANCH   5   6
ENDBRANCH   4   5
ENDBRANCH   3   4
ENDBRANCH   2   3
ENDBRANCH   1   2
BRANCH   1  14
ATOM     14  C   UNL     1       8.093   8.816  17.905  0.00  0.00    +0.000 C 
BRANCH  14  15
ATOM     15  C   UNL     1       8.793   9.752  18.848  0.00  0.00    +0.000 C 
BRANCH  15  16
ATOM     16  C   UNL     1       9.571  10.793  18.069  0.00  0.00    +0.000 C 
BRANCH  16  17
ATOM     17  C   UNL     1      10.636  11.412  18.955  0.00  0.00    +0.000 C 
BRANCH  17  18
ATOM     18  C   UNL     1      10.088  12.614  19.727  0.00  0.00    +0.000 C 
BRANCH  18  19
ATOM     19  N   UNL     1      10.826  13.927  19.439  0.00  0.00    +0.000 N 
ATOM     20  C   UNL     1      10.539  14.932  20.556  0.00  0.00    +0.000 C 
ATOM     21  C   UNL     1      12.328  13.682  19.336  0.00  0.00    +0.000 C 
BRANCH  19  22
ATOM     22  C   UNL     1      10.274  14.430  18.064  0.00  0.00    +0.000 C 
BRANCH  22  23
ATOM     23  C   UNL     1      11.335  14.769  17.015  0.00  0.00    +0.000 C 
BRANCH  23  24
ATOM     24  O   UNL     1      11.243  13.927  15.876  0.00  0.00    +0.000 OA
ATOM     25  H   UNL     1      11.510  14.436  15.088  0.00  0.00    +0.000 HD
ENDBRANCH  23  24
ENDBRANCH  22  23
ENDBRANCH  19  22
ENDBRANCH  18  19
ENDBRANCH  17  18
ENDBRANCH  16  17
ENDBRANCH  15  16
ENDBRANCH  14  15
ENDBRANCH   1  14
TORSDOF 20
ENDMDL
MODEL 4
REMARK VINA RESULT:      -5.2      1.928      3.249
REMARK  Name = 
REMARK  23 active torsions:
REMARK  status: ('A' for Active; 'I' for Inactive)
REMARK    1  A    between atoms: C_1  and  C_2
REMARK    2  A    between atoms: C_2  and  C_3
REMARK    3  A    between atoms: C_3  and  C_4
REMARK    4  A    between atoms: C_4  and  C_5
REMARK    5  A    between atoms: C_5  and  C_6
REMARK    6  A    between atoms: C_6  and  C_7
REMARK    7  A    between atoms: C_7  and  C_8
REMARK    8  A    between atoms: C_8  and  C_9
REMARK    9  A    between atoms: C_9  and  C_10
REMARK   10  A    between atoms: C_10  and  C_11
REMARK   11  A    between atoms: C_11  and  C_12
REMARK   12  A    between atoms: C_12  and  C_13
REMARK   13  A    between atoms: C_13  and  C_14
REMARK   14  A    between atoms: C_14  and  C_15
REMARK   15  A    between atoms: C_15  and  C_16
REMARK   16  A    between atoms: C_16  and  C_17
REMARK   17  A    between atoms: C_17  and  C_18
REMARK   18  A    between atoms: C_18  and  N_19
REMARK   19  A    between atoms: N_19  and  C_20
REMARK   20  A    between atoms: N_19  and  C_21
REMARK   21  A    between atoms: N_19  and  C_22
REMARK   22  A    between atoms: C_22  and  C_23
REMARK   23  A    between atoms: C_23  and  O_24
REMARK                            x       y       z     vdW  Elec       q    Type
REMARK                         _______ _______ _______ _____ _____    ______ ____
ROOT
ATOM      1  C   UNL     1       7.772   8.507  17.623  0.00  0.00    +0.000 C 
ENDROOT
BRANCH   1   2
ATOM      2  C   UNL     1       8.257   7.480  18.603  0.00  0.00    +0.000 C 
BRANCH   2   3
ATOM      3  C   UNL     1       7.806   6.128  18.128  0.00  0.00    +0.000 C 
BRANCH   3   4
ATOM      4  C   UNL     1       6.310   6.123  18.167  0.00  0.00    +0.000 C 
BRANCH   4   5
ATOM      5  C   UNL     1       5.873   5.224  19.292  0.00  0.00    +0.000 C 
BRANCH   5   6
ATOM      6  C   UNL     1       4.393   5.033  19.161  0.00  0.00    +0.000 C 
BRANCH   6   7
ATOM      7  C   UNL     1       3.994   5.327  17.741  0.00  0.00    +0.000 C 
BRANCH   7   8
ATOM      8  C   UNL     1       2.495   5.455  17.728  0.00  0.00    +0.000 C 
BRANCH   8   9
ATOM      9  C   UNL     1       1.890   4.807  18.953  0.00  0.00    +0.000 C 
BRANCH   9  10
ATOM     10  C   UNL     1       1.182   3.518  18.566  0.00  0.00    +0.000 C 
BRANCH  10  11
ATOM     11  C   UNL     1       1.592   2.359  19.476  0.00  0.00    +0.000 C 
BRANCH  11  13
ATOM     12  C   UNL     1       2.450   2.829  21.763  0.00  0.00    +0.000 C 
ATOM     13  C   UNL     1       1.203   2.598  20.924  0.00  0.00    +0.000 C 
ENDBRANCH  11  13
ENDBRANCH  10  11
ENDBRANCH   9  10
ENDBRANCH   8   9
ENDBRANCH   7   8
ENDBRANCH   6   7
ENDBRANCH   5   6
ENDBRANCH   4   5
ENDBRANCH   3   4
ENDBRANCH   2   3
ENDBRANCH   1   2
BRANCH   1  14
ATOM     14  C   UNL     1       8.533   9.783  17.878  0.00  0.00    +0.000 C 
BRANCH  14  15
ATOM     15  C   UNL     1       9.007   9.739  19.303  0.00  0.00    +0.000 C 
BRANCH  15  16
ATOM     16  C   UNL     1      10.131  10.732  19.511  0.00  0.00    +0.000 C 
BRANCH  16  17
ATOM     17  C   UNL     1       9.563  12.086  19.893  0.00  0.00    +0.000 C 
BRANCH  17  18
ATOM     18  C   UNL     1      10.514  13.219  19.504  0.00  0.00    +0.000 C 
BRANCH  18  19
ATOM     19  N   UNL     1      10.206  13.850  18.141  0.00  0.00    +0.000 N 
ATOM     20  C   UNL     1      10.969  13.102  17.046  0.00  0.00    +0.000 C 
ATOM     21  C   UNL     1       8.708  13.797  17.856  0.00  0.00    +0.000 C 
BRANCH  19  22
ATOM     22  C   UNL     1      10.675  15.338  18.247  0.00  0.00    +0.000 C 
BRANCH  22  23
ATOM     23  C   UNL     1      11.364  15.900  17.001  0.00  0.00    +0.000 C 
BRANCH  23  24
ATOM     24  O   UNL     1      10.427  16.315  16.018  0.00  0.00    +0.000 OA
ATOM     25  H   UNL     1       9.533  16.279  16.404  0.00  0.00    +0.000 HD
ENDBRANCH  23  24
ENDBRANCH  22  23
ENDBRANCH  19  22
ENDBRANCH  18  19
ENDBRANCH  17  18
ENDBRANCH  16  17
ENDBRANCH  15  16
ENDBRANCH  14  15
ENDBRANCH   1  14
TORSDOF 20
ENDMDL
MODEL 5
REMARK VINA RESULT:      -5.2      0.932      1.259
REMARK  Name = 
REMARK  23 active torsions:
REMARK  status: ('A' for Active; 'I' for Inactive)
REMARK    1  A    between atoms: C_1  and  C_2
REMARK    2  A    between atoms: C_2  and  C_3
REMARK    3  A    between atoms: C_3  and  C_4
REMARK    4  A    between atoms: C_4  and  C_5
REMARK    5  A    between atoms: C_5  and  C_6
REMARK    6  A    between atoms: C_6  and  C_7
REMARK    7  A    between atoms: C_7  and  C_8
REMARK    8  A    between atoms: C_8  and  C_9
REMARK    9  A    between atoms: C_9  and  C_10
REMARK   10  A    between atoms: C_10  and  C_11
REMARK   11  A    between atoms: C_11  and  C_12
REMARK   12  A    between atoms: C_12  and  C_13
REMARK   13  A    between atoms: C_13  and  C_14
REMARK   14  A    between atoms: C_14  and  C_15
REMARK   15  A    between atoms: C_15  and  C_16
REMARK   16  A    between atoms: C_16  and  C_17
REMARK   17  A    between atoms: C_17  and  C_18
REMARK   18  A    between atoms: C_18  and  N_19
REMARK   19  A    between atoms: N_19  and  C_20
REMARK   20  A    between atoms: N_19  and  C_21
REMARK   21  A    between atoms: N_19  and  C_22
REMARK   22  A    between atoms: C_22  and  C_23
REMARK   23  A    between atoms: C_23  and  O_24
REMARK                            x       y       z     vdW  Elec       q    Type
REMARK                         _______ _______ _______ _____ _____    ______ ____
ROOT
ATOM      1  C   UNL     1       6.737   6.810  17.443  0.00  0.00    +0.000 C 
ENDROOT
BRANCH   1   2
ATOM      2  C   UNL     1       7.151   5.613  16.640  0.00  0.00    +0.000 C 
BRANCH   2   3
ATOM      3  C   UNL     1       6.287   4.454  17.046  0.00  0.00    +0.000 C 
BRANCH   3   4
ATOM      4  C   UNL     1       5.224   4.309  16.002  0.00  0.00    +0.000 C 
BRANCH   4   5
ATOM      5  C   UNL     1       4.049   3.603  16.624  0.00  0.00    +0.000 C 
BRANCH   5   6
ATOM      6  C   UNL     1       4.368   3.396  18.074  0.00  0.00    +0.000 C 
BRANCH   6   7
ATOM      7  C   UNL     1       3.472   2.316  18.614  0.00  0.00    +0.000 C 
BRANCH   7   8
ATOM      8  C   UNL     1       2.159   2.439  17.891  0.00  0.00    +0.000 C 
BRANCH   8   9
ATOM      9  C   UNL     1       1.001   2.282  18.850  0.00  0.00    +0.000 C 
BRANCH   9  10
ATOM     10  C   UNL     1       1.405   2.753  20.238  0.00  0.00    +0.000 C 
BRANCH  10  11
ATOM     11  C   UNL     1       0.958   4.193  20.493  0.00  0.00    +0.000 C 
BRANCH  11  13
ATOM     12  C   UNL     1       1.658   6.577  20.630  0.00  0.00    +0.000 C 
ATOM     13  C   UNL     1       2.133   5.133  20.695  0.00  0.00    +0.000 C 
ENDBRANCH  11  13
ENDBRANCH  10  11
ENDBRANCH   9  10
ENDBRANCH   8   9
ENDBRANCH   7   8
ENDBRANCH   6   7
ENDBRANCH   5   6
ENDBRANCH   4   5
ENDBRANCH   3   4
ENDBRANCH   2   3
ENDBRANCH   1   2
BRANCH   1  14
ATOM     14  C   UNL     1       7.977   7.397  18.068  0.00  0.00    +0.000 C 
BRANCH  14  15
ATOM     15  C   UNL     1       7.966   8.871  17.776  0.00  0.00    +0.000 C 
BRANCH  15  16
ATOM     16  C   UNL     1       8.820   9.610  18.785  0.00  0.00    +0.000 C 
BRANCH  16  17
ATOM     17  C   UNL     1       9.520  10.777  18.114  0.00  0.00    +0.000 C 
BRANCH  17  18
ATOM     18  C   UNL     1       9.125  12.108  18.758  0.00  0.00    +0.000 C 
BRANCH  18  19
ATOM     19  N   UNL     1      10.318  12.956  19.214  0.00  0.00    +0.000 N 
ATOM     20  C   UNL     1      11.232  12.117  20.109  0.00  0.00    +0.000 C 
ATOM     21  C   UNL     1      11.100  13.466  18.007  0.00  0.00    +0.000 C 
BRANCH  19  22
ATOM     22  C   UNL     1       9.705  14.163  19.998  0.00  0.00    +0.000 C 
BRANCH  22  23
ATOM     23  C   UNL     1      10.545  14.681  21.169  0.00  0.00    +0.000 C 
BRANCH  23  24
ATOM     24  O   UNL     1       9.780  14.796  22.360  0.00  0.00    +0.000 OA
ATOM     25  H   UNL     1       9.280  13.970  22.491  0.00  0.00    +0.000 HD
ENDBRANCH  23  24
ENDBRANCH  22  23
ENDBRANCH  19  22
ENDBRANCH  18  19
ENDBRANCH  17  18
ENDBRANCH  16  17
ENDBRANCH  15  16
ENDBRANCH  14  15
ENDBRANCH   1  14
TORSDOF 20
ENDMDL
MODEL 6
REMARK VINA RESULT:      -5.2      4.250      7.604
REMARK  Name = 
REMARK  23 active torsions:
REMARK  status: ('A' for Active; 'I' for Inactive)
REMARK    1  A    between atoms: C_1  and  C_2
REMARK    2  A    between atoms: C_2  and  C_3
REMARK    3  A    between atoms: C_3  and  C_4
REMARK    4  A    between atoms: C_4  and  C_5
REMARK    5  A    between atoms: C_5  and  C_6
REMARK    6  A    between atoms: C_6  and  C_7
REMARK    7  A    between atoms: C_7  and  C_8
REMARK    8  A    between atoms: C_8  and  C_9
REMARK    9  A    between atoms: C_9  and  C_10
REMARK   10  A    between atoms: C_10  and  C_11
REMARK   11  A    between atoms: C_11  and  C_12
REMARK   12  A    between atoms: C_12  and  C_13
REMARK   13  A    between atoms: C_13  and  C_14
REMARK   14  A    between atoms: C_14  and  C_15
REMARK   15  A    between atoms: C_15  and  C_16
REMARK   16  A    between atoms: C_16  and  C_17
REMARK   17  A    between atoms: C_17  and  C_18
REMARK   18  A    between atoms: C_18  and  N_19
REMARK   19  A    between atoms: N_19  and  C_20
REMARK   20  A    between atoms: N_19  and  C_21
REMARK   21  A    between atoms: N_19  and  C_22
REMARK   22  A    between atoms: C_22  and  C_23
REMARK   23  A    between atoms: C_23  and  O_24
REMARK                            x       y       z     vdW  Elec       q    Type
REMARK                         _______ _______ _______ _____ _____    ______ ____
ROOT
ATOM      1  C   UNL     1       0.874   3.052  19.847  0.00  0.00    +0.000 C 
ENDROOT
BRANCH   1   2
ATOM      2  C   UNL     1       1.444   3.157  21.230  0.00  0.00    +0.000 C 
BRANCH   2   3
ATOM      3  C   UNL     1       2.265   4.412  21.305  0.00  0.00    +0.000 C 
BRANCH   3   4
ATOM      4  C   UNL     1       1.611   5.421  20.415  0.00  0.00    +0.000 C 
BRANCH   4   5
ATOM      5  C   UNL     1       2.572   6.562  20.213  0.00  0.00    +0.000 C 
BRANCH   5   6
ATOM      6  C   UNL     1       1.756   7.797  19.979  0.00  0.00    +0.000 C 
BRANCH   6   7
ATOM      7  C   UNL     1       1.103   8.194  21.275  0.00  0.00    +0.000 C 
BRANCH   7   8
ATOM      8  C   UNL     1       0.129   9.293  20.952  0.00  0.00    +0.000 C 
BRANCH   8   9
ATOM      9  C   UNL     1       0.785  10.361  20.106  0.00  0.00    +0.000 C 
BRANCH   9  10
ATOM     10  C   UNL     1       0.034  11.676  20.250  0.00  0.00    +0.000 C 
BRANCH  10  11
ATOM     11  C   UNL     1       0.422  12.666  19.151  0.00  0.00    +0.000 C 
BRANCH  11  13
ATOM     12  C   UNL     1       2.559  13.445  18.142  0.00  0.00    +0.000 C 
ATOM     13  C   UNL     1       1.752  13.342  19.428  0.00  0.00    +0.000 C 
ENDBRANCH  11  13
ENDBRANCH  10  11
ENDBRANCH   9  10
ENDBRANCH   8   9
ENDBRANCH   7   8
ENDBRANCH   6   7
ENDBRANCH   5   6
ENDBRANCH   4   5
ENDBRANCH   3   4
ENDBRANCH   2   3
ENDBRANCH   1   2
BRANCH   1  14
ATOM     14  C   UNL     1       1.603   1.943  19.131  0.00  0.00    +0.000 C 
BRANCH  14  15
ATOM     15  C   UNL     1       2.095   2.504  17.828  0.00  0.00    +0.000 C 
BRANCH  15  16
ATOM     16  C   UNL     1       3.586   2.760  17.900  0.00  0.00    +0.000 C 
BRANCH  16  17
ATOM     17  C   UNL     1       3.929   4.036  17.154  0.00  0.00    +0.000 C 
BRANCH  17  18
ATOM     18  C   UNL     1       4.869   4.924  17.973  0.00  0.00    +0.000 C 
BRANCH  18  19
ATOM     19  N   UNL     1       5.999   5.556  17.152  0.00  0.00    +0.000 N 
ATOM     20  C   UNL     1       6.786   4.459  16.432  0.00  0.00    +0.000 C 
ATOM     21  C   UNL     1       5.431   6.539  16.133  0.00  0.00    +0.000 C 
BRANCH  19  22
ATOM     22  C   UNL     1       6.896   6.318  18.183  0.00  0.00    +0.000 C 
BRANCH  22  23
ATOM     23  C   UNL     1       7.940   5.462  18.903  0.00  0.00    +0.000 C 
BRANCH  23  24
ATOM     24  O   UNL     1       7.815   5.550  20.315  0.00  0.00    +0.000 OA
ATOM     25  H   UNL     1       6.884   5.740  20.535  0.00  0.00    +0.000 HD
ENDBRANCH  23  24
ENDBRANCH  22  23
ENDBRANCH  19  22
ENDBRANCH  18  19
ENDBRANCH  17  18
ENDBRANCH  16  17
ENDBRANCH  15  16
ENDBRANCH  14  15
ENDBRANCH   1  14
TORSDOF 20
ENDMDL
MODEL 7
REMARK VINA RESULT:      -5.2      4.844      7.477
REMARK  Name = 
REMARK  23 active torsions:
REMARK  status: ('A' for Active; 'I' for Inactive)
REMARK    1  A    between atoms: C_1  and  C_2
REMARK    2  A    between atoms: C_2  and  C_3
REMARK    3  A    between atoms: C_3  and  C_4
REMARK    4  A    between atoms: C_4  and  C_5
REMARK    5  A    between atoms: C_5  and  C_6
REMARK    6  A    between atoms: C_6  and  C_7
REMARK    7  A    between atoms: C_7  and  C_8
REMARK    8  A    between atoms: C_8  and  C_9
REMARK    9  A    between atoms: C_9  and  C_10
REMARK   10  A    between atoms: C_10  and  C_11
REMARK   11  A    between atoms: C_11  and  C_12
REMARK   12  A    between atoms: C_12  and  C_13
REMARK   13  A    between atoms: C_13  and  C_14
REMARK   14  A    between atoms: C_14  and  C_15
REMARK   15  A    between atoms: C_15  and  C_16
REMARK   16  A    between atoms: C_16  and  C_17
REMARK   17  A    between atoms: C_17  and  C_18
REMARK   18  A    between atoms: C_18  and  N_19
REMARK   19  A    between atoms: N_19  and  C_20
REMARK   20  A    between atoms: N_19  and  C_21
REMARK   21  A    between atoms: N_19  and  C_22
REMARK   22  A    between atoms: C_22  and  C_23
REMARK   23  A    between atoms: C_23  and  O_24
REMARK                            x       y       z     vdW  Elec       q    Type
REMARK                         _______ _______ _______ _____ _____    ______ ____
ROOT
ATOM      1  C   UNL     1       3.141   2.312  21.244  0.00  0.00    +0.000 C 
ENDROOT
BRANCH   1   2
ATOM      2  C   UNL     1       2.147   3.347  21.680  0.00  0.00    +0.000 C 
BRANCH   2   3
ATOM      3  C   UNL     1       1.007   3.342  20.702  0.00  0.00    +0.000 C 
BRANCH   3   4
ATOM      4  C   UNL     1       0.974   4.691  20.055  0.00  0.00    +0.000 C 
BRANCH   4   5
ATOM      5  C   UNL     1       1.979   5.570  20.752  0.00  0.00    +0.000 C 
BRANCH   5   6
ATOM      6  C   UNL     1       2.959   6.034  19.717  0.00  0.00    +0.000 C 
BRANCH   6   7
ATOM      7  C   UNL     1       2.205   6.732  18.620  0.00  0.00    +0.000 C 
BRANCH   7   8
ATOM      8  C   UNL     1       2.118   8.183  19.006  0.00  0.00    +0.000 C 
BRANCH   8   9
ATOM      9  C   UNL     1       1.926   9.053  17.785  0.00  0.00    +0.000 C 
BRANCH   9  10
ATOM     10  C   UNL     1       1.171  10.319  18.159  0.00  0.00    +0.000 C 
BRANCH  10  11
ATOM     11  C   UNL     1      -0.007  10.015  19.086  0.00  0.00    +0.000 C 
BRANCH  11  13
ATOM     12  C   UNL     1       0.101  10.082  21.570  0.00  0.00    +0.000 C 
ATOM     13  C   UNL     1      -0.027  10.918  20.306  0.00  0.00    +0.000 C 
ENDBRANCH  11  13
ENDBRANCH  10  11
ENDBRANCH   9  10
ENDBRANCH   8   9
ENDBRANCH   7   8
ENDBRANCH   6   7
ENDBRANCH   5   6
ENDBRANCH   4   5
ENDBRANCH   3   4
ENDBRANCH   2   3
ENDBRANCH   1   2
BRANCH   1  14
ATOM     14  C   UNL     1       2.791   1.898  19.838  0.00  0.00    +0.000 C 
BRANCH  14  15
ATOM     15  C   UNL     1       3.834   2.486  18.930  0.00  0.00    +0.000 C 
BRANCH  15  16
ATOM     16  C   UNL     1       3.251   2.733  17.554  0.00  0.00    +0.000 C 
BRANCH  16  17
ATOM     17  C   UNL     1       3.899   3.954  16.929  0.00  0.00    +0.000 C 
BRANCH  17  18
ATOM     18  C   UNL     1       5.260   4.248  17.564  0.00  0.00    +0.000 C 
BRANCH  18  19
ATOM     19  N   UNL     1       6.158   5.156  16.715  0.00  0.00    +0.000 N 
ATOM     20  C   UNL     1       5.316   6.270  16.089  0.00  0.00    +0.000 C 
ATOM     21  C   UNL     1       7.263   5.764  17.574  0.00  0.00    +0.000 C 
BRANCH  19  22
ATOM     22  C   UNL     1       6.784   4.230  15.621  0.00  0.00    +0.000 C 
BRANCH  22  23
ATOM     23  C   UNL     1       6.900   4.849  14.225  0.00  0.00    +0.000 C 
BRANCH  23  24
ATOM     24  O   UNL     1       8.075   5.635  14.090  0.00  0.00    +0.000 OA
ATOM     25  H   UNL     1       8.841   5.101  14.368  0.00  0.00    +0.000 HD
ENDBRANCH  23  24
ENDBRANCH  22  23
ENDBRANCH  19  22
ENDBRANCH  18  19
ENDBRANCH  17  18
ENDBRANCH  16  17
ENDBRANCH  15  16
ENDBRANCH  14  15
ENDBRANCH   1  14
TORSDOF 20
ENDMDL
MODEL 8
REMARK VINA RESULT:      -5.2      5.005      7.080
REMARK  Name = 
REMARK  23 active torsions:
REMARK  status: ('A' for Active; 'I' for Inactive)
REMARK    1  A    between atoms: C_1  and  C_2
REMARK    2  A    between atoms: C_2  and  C_3
REMARK    3  A    between atoms: C_3  and  C_4
REMARK    4  A    between atoms: C_4  and  C_5
REMARK    5  A    between atoms: C_5  and  C_6
REMARK    6  A    between atoms: C_6  and  C_7
REMARK    7  A    between atoms: C_7  and  C_8
REMARK    8  A    between atoms: C_8  and  C_9
REMARK    9  A    between atoms: C_9  and  C_10
REMARK   10  A    between atoms: C_10  and  C_11
REMARK   11  A    between atoms: C_11  and  C_12
REMARK   12  A    between atoms: C_12  and  C_13
REMARK   13  A    between atoms: C_13  and  C_14
REMARK   14  A    between atoms: C_14  and  C_15
REMARK   15  A    between atoms: C_15  and  C_16
REMARK   16  A    between atoms: C_16  and  C_17
REMARK   17  A    between atoms: C_17  and  C_18
REMARK   18  A    between atoms: C_18  and  N_19
REMARK   19  A    between atoms: N_19  and  C_20
REMARK   20  A    between atoms: N_19  and  C_21
REMARK   21  A    between atoms: N_19  and  C_22
REMARK   22  A    between atoms: C_22  and  C_23
REMARK   23  A    between atoms: C_23  and  O_24
REMARK                            x       y       z     vdW  Elec       q    Type
REMARK                         _______ _______ _______ _____ _____    ______ ____
ROOT
ATOM      1  C   UNL     1       1.920   7.663  20.176  0.00  0.00    +0.000 C 
ENDROOT
BRANCH   1   2
ATOM      2  C   UNL     1       1.661   8.772  19.199  0.00  0.00    +0.000 C 
BRANCH   2   3
ATOM      3  C   UNL     1       2.015   8.279  17.825  0.00  0.00    +0.000 C 
BRANCH   3   4
ATOM      4  C   UNL     1       2.859   7.056  17.999  0.00  0.00    +0.000 C 
BRANCH   4   5
ATOM      5  C   UNL     1       4.162   7.280  17.278  0.00  0.00    +0.000 C 
BRANCH   5   6
ATOM      6  C   UNL     1       4.809   5.939  17.099  0.00  0.00    +0.000 C 
BRANCH   6   7
ATOM      7  C   UNL     1       4.020   4.918  17.872  0.00  0.00    +0.000 C 
BRANCH   7   8
ATOM      8  C   UNL     1       3.941   3.688  17.011  0.00  0.00    +0.000 C 
BRANCH   8   9
ATOM      9  C   UNL     1       2.717   2.869  17.356  0.00  0.00    +0.000 C 
BRANCH   9  10
ATOM     10  C   UNL     1       1.739   3.706  18.164  0.00  0.00    +0.000 C 
BRANCH  10  11
ATOM     11  C   UNL     1       0.922   2.842  19.125  0.00  0.00    +0.000 C 
BRANCH  11  13
ATOM     12  C   UNL     1       2.215   3.985  20.917  0.00  0.00    +0.000 C 
ATOM     13  C   UNL     1       0.852   3.439  20.519  0.00  0.00    +0.000 C 
ENDBRANCH  11  13
ENDBRANCH  10  11
ENDBRANCH   9  10
ENDBRANCH   8   9
ENDBRANCH   7   8
ENDBRANCH   6   7
ENDBRANCH   5   6
ENDBRANCH   4   5
ENDBRANCH   3   4
ENDBRANCH   2   3
ENDBRANCH   1   2
BRANCH   1  14
ATOM     14  C   UNL     1       0.881   7.755  21.264  0.00  0.00    +0.000 C 
BRANCH  14  15
ATOM     15  C   UNL     1       0.217   9.096  21.131  0.00  0.00    +0.000 C 
BRANCH  15  16
ATOM     16  C   UNL     1       0.213   9.813  22.465  0.00  0.00    +0.000 C 
BRANCH  16  17
ATOM     17  C   UNL     1      -0.487  11.152  22.332  0.00  0.00    +0.000 C 
BRANCH  17  18
ATOM     18  C   UNL     1      -0.723  11.512  20.863  0.00  0.00    +0.000 C 
BRANCH  18  19
ATOM     19  N   UNL     1      -0.049  12.819  20.427  0.00  0.00    +0.000 N 
ATOM     20  C   UNL     1      -1.017  13.634  19.567  0.00  0.00    +0.000 C 
ATOM     21  C   UNL     1       0.372  13.634  21.647  0.00  0.00    +0.000 C 
BRANCH  19  22
ATOM     22  C   UNL     1       1.216  12.391  19.612  0.00  0.00    +0.000 C 
BRANCH  22  23
ATOM     23  C   UNL     1       1.527  13.250  18.384  0.00  0.00    +0.000 C 
BRANCH  23  24
ATOM     24  O   UNL     1       2.491  12.638  17.539  0.00  0.00    +0.000 OA
ATOM     25  H   UNL     1       2.348  12.948  16.626  0.00  0.00    +0.000 HD
ENDBRANCH  23  24
ENDBRANCH  22  23
ENDBRANCH  19  22
ENDBRANCH  18  19
ENDBRANCH  17  18
ENDBRANCH  16  17
ENDBRANCH  15  16
ENDBRANCH  14  15
ENDBRANCH   1  14
TORSDOF 20
ENDMDL
MODEL 9
REMARK VINA RESULT:      -5.2      5.255      8.157
REMARK  Name = 
REMARK  23 active torsions:
REMARK  status: ('A' for Active; 'I' for Inactive)
REMARK    1  A    between atoms: C_1  and  C_2
REMARK    2  A    between atoms: C_2  and  C_3
REMARK    3  A    between atoms: C_3  and  C_4
REMARK    4  A    between atoms: C_4  and  C_5
REMARK    5  A    between atoms: C_5  and  C_6
REMARK    6  A    between atoms: C_6  and  C_7
REMARK    7  A    between atoms: C_7  and  C_8
REMARK    8  A    between atoms: C_8  and  C_9
REMARK    9  A    between atoms: C_9  and  C_10
REMARK   10  A    between atoms: C_10  and  C_11
REMARK   11  A    between atoms: C_11  and  C_12
REMARK   12  A    between atoms: C_12  and  C_13
REMARK   13  A    between atoms: C_13  and  C_14
REMARK   14  A    between atoms: C_14  and  C_15
REMARK   15  A    between atoms: C_15  and  C_16
REMARK   16  A    between atoms: C_16  and  C_17
REMARK   17  A    between atoms: C_17  and  C_18
REMARK   18  A    between atoms: C_18  and  N_19
REMARK   19  A    between atoms: N_19  and  C_20
REMARK   20  A    between atoms: N_19  and  C_21
REMARK   21  A    between atoms: N_19  and  C_22
REMARK   22  A    between atoms: C_22  and  C_23
REMARK   23  A    between atoms: C_23  and  O_24
REMARK                            x       y       z     vdW  Elec       q    Type
REMARK                         _______ _______ _______ _____ _____    ______ ____
ROOT
ATOM      1  C   UNL     1       1.385   4.370  19.282  0.00  0.00    +0.000 C 
ENDROOT
BRANCH   1   2
ATOM      2  C   UNL     1       1.708   4.786  20.687  0.00  0.00    +0.000 C 
BRANCH   2   3
ATOM      3  C   UNL     1       2.021   6.255  20.681  0.00  0.00    +0.000 C 
BRANCH   3   4
ATOM      4  C   UNL     1       1.873   6.732  19.270  0.00  0.00    +0.000 C 
BRANCH   4   5
ATOM      5  C   UNL     1       2.158   8.210  19.242  0.00  0.00    +0.000 C 
BRANCH   5   6
ATOM      6  C   UNL     1       1.992   8.669  17.825  0.00  0.00    +0.000 C 
BRANCH   6   7
ATOM      7  C   UNL     1       0.582   9.157  17.640  0.00  0.00    +0.000 C 
BRANCH   7   8
ATOM      8  C   UNL     1       0.371  10.265  18.635  0.00  0.00    +0.000 C 
BRANCH   8   9
ATOM      9  C   UNL     1      -1.078  10.697  18.659  0.00  0.00    +0.000 C 
BRANCH   9  10
ATOM     10  C   UNL     1      -1.909   9.785  17.771  0.00  0.00    +0.000 C 
BRANCH  10  11
ATOM     11  C   UNL     1      -3.132  10.512  17.209  0.00  0.00    +0.000 C 
BRANCH  11  13
ATOM     12  C   UNL     1      -2.927  10.021  14.779  0.00  0.00    +0.000 C 
ATOM     13  C   UNL     1      -2.867  11.110  15.839  0.00  0.00    +0.000 C 
ENDBRANCH  11  13
ENDBRANCH  10  11
ENDBRANCH   9  10
ENDBRANCH   8   9
ENDBRANCH   7   8
ENDBRANCH   6   7
ENDBRANCH   5   6
ENDBRANCH   4   5
ENDBRANCH   3   4
ENDBRANCH   2   3
ENDBRANCH   1   2
BRANCH   1  14
ATOM     14  C   UNL     1       1.360   2.863  19.243  0.00  0.00    +0.000 C 
BRANCH  14  15
ATOM     15  C   UNL     1       2.048   2.441  17.975  0.00  0.00    +0.000 C 
BRANCH  15  16
ATOM     16  C   UNL     1       3.379   1.792  18.293  0.00  0.00    +0.000 C 
BRANCH  16  17
ATOM     17  C   UNL     1       4.431   2.859  18.530  0.00  0.00    +0.000 C 
BRANCH  17  18
ATOM     18  C   UNL     1       4.519   3.826  17.347  0.00  0.00    +0.000 C 
BRANCH  18  19
ATOM     19  N   UNL     1       5.286   5.117  17.655  0.00  0.00    +0.000 N 
ATOM     20  C   UNL     1       4.618   6.294  16.942  0.00  0.00    +0.000 C 
ATOM     21  C   UNL     1       5.316   5.373  19.159  0.00  0.00    +0.000 C 
BRANCH  19  22
ATOM     22  C   UNL     1       6.740   4.882  17.127  0.00  0.00    +0.000 C 
BRANCH  22  23
ATOM     23  C   UNL     1       6.855   4.583  15.630  0.00  0.00    +0.000 C 
BRANCH  23  24
ATOM     24  O   UNL     1       7.768   5.457  14.983  0.00  0.00    +0.000 OA
ATOM     25  H   UNL     1       7.810   6.291  15.484  0.00  0.00    +0.000 HD
ENDBRANCH  23  24
ENDBRANCH  22  23
ENDBRANCH  19  22
ENDBRANCH  18  19
ENDBRANCH  17  18
ENDBRANCH  16  17
ENDBRANCH  15  16
ENDBRANCH  14  15
ENDBRANCH   1  14
TORSDOF 20
ENDMDL
