MODEL 1
REMARK VINA RESULT:      -6.1      0.000      0.000
REMARK  Name = 
REMARK  2 active torsions:
REMARK  status: ('A' for Active; 'I' for Inactive)
REMARK    1  A    between atoms: C_1  and  C_2
REMARK    2  A    between atoms: C_2  and  C_3
REMARK                            x       y       z     vdW  Elec       q    Type
REMARK                         _______ _______ _______ _____ _____    ______ ____
ROOT
ATOM      1  C   UNL     1       2.499   2.816  21.219  0.00  0.00    +0.000 C 
ATOM      2  C   UNL     1       2.203   3.994  20.269  0.00  0.00    +0.000 C 
ATOM      3  C   UNL     1       0.812   3.720  19.635  0.00  0.00    +0.000 C 
ATOM      4  C   UNL     1       2.106   5.260  21.186  0.00  0.00    +0.000 C 
ATOM      5  C   UNL     1       2.042   6.487  20.359  0.00  0.00    +0.000 A 
ATOM      6  N   UNL     1       1.380   7.621  20.772  0.00  0.00    +0.000 NA
ATOM      7  N   UNL     1       1.444   8.567  19.851  0.00  0.00    +0.000 NA
ATOM      8  S   UNL     1       2.297   8.095  18.488  0.00  0.00    +0.000 S 
ATOM      9  C   UNL     1       2.638   6.531  19.108  0.00  0.00    +0.000 A 
ATOM     10  C   UNL     1       3.358   5.452  18.506  0.00  0.00    +0.000 C 
ATOM     11  C   UNL     1       3.211   4.228  19.084  0.00  0.00    +0.000 C 
ATOM     12  C   UNL     1       3.985   3.052  18.553  0.00  0.00    +0.000 C 
ATOM     13  O   UNL     1       4.100   2.013  19.202  0.00  0.00    +0.000 OA
ATOM     14  C   UNL     1       4.617   3.125  17.189  0.00  0.00    +0.000 C 
ATOM     15  C   UNL     1       5.432   4.383  17.054  0.00  0.00    +0.000 C 
ATOM     16  S   UNL     1       4.338   5.806  17.114  0.00  0.00    +0.000 S 
ENDROOT
TORSDOF 0
ENDMDL
MODEL 2
REMARK VINA RESULT:      -6.0      3.035      4.224
REMARK  Name = 
REMARK  2 active torsions:
REMARK  status: ('A' for Active; 'I' for Inactive)
REMARK    1  A    between atoms: C_1  and  C_2
REMARK    2  A    between atoms: C_2  and  C_3
REMARK                            x       y       z     vdW  Elec       q    Type
REMARK                         _______ _______ _______ _____ _____    ______ ____
ROOT
ATOM      1  C   UNL     1       2.273   7.277  19.936  0.00  0.00    +0.000 C 
ATOM      2  C   UNL     1       2.691   6.545  18.644  0.00  0.00    +0.000 C 
ATOM      3  C   UNL     1       1.756   7.059  17.516  0.00  0.00    +0.000 C 
ATOM      4  C   UNL     1       4.155   7.016  18.349  0.00  0.00    +0.000 C 
ATOM      5  C   UNL     1       4.741   6.212  17.252  0.00  0.00    +0.000 A 
ATOM      6  N   UNL     1       5.688   6.718  16.390  0.00  0.00    +0.000 NA
ATOM      7  N   UNL     1       6.032   5.816  15.486  0.00  0.00    +0.000 NA
ATOM      8  S   UNL     1       5.218   4.363  15.669  0.00  0.00    +0.000 S 
ATOM      9  C   UNL     1       4.333   4.904  17.038  0.00  0.00    +0.000 A 
ATOM     10  C   UNL     1       3.357   4.212  17.818  0.00  0.00    +0.000 C 
ATOM     11  C   UNL     1       2.590   4.975  18.646  0.00  0.00    +0.000 C 
ATOM     12  C   UNL     1       1.583   4.319  19.551  0.00  0.00    +0.000 C 
ATOM     13  O   UNL     1       1.080   4.923  20.497  0.00  0.00    +0.000 OA
ATOM     14  C   UNL     1       1.155   2.899  19.291  0.00  0.00    +0.000 C 
ATOM     15  C   UNL     1       2.357   2.009  19.124  0.00  0.00    +0.000 C 
ATOM     16  S   UNL     1       3.245   2.486  17.637  0.00  0.00    +0.000 S 
ENDROOT
TORSDOF 0
ENDMDL
MODEL 3
REMARK VINA RESULT:      -5.8      3.178      4.457
REMARK  Name = 
REMARK  2 active torsions:
REMARK  status: ('A' for Active; 'I' for Inactive)
REMARK    1  A    between atoms: C_1  and  C_2
REMARK    2  A    between atoms: C_2  and  C_3
REMARK                            x       y       z     vdW  Elec       q    Type
REMARK                         _______ _______ _______ _____ _____    ______ ____
ROOT
ATOM      1  C   UNL     1       2.222   2.461  19.189  0.00  0.00    +0.000 C 
ATOM      2  C   UNL     1       3.354   3.391  18.706  0.00  0.00    +0.000 C 
ATOM      3  C   UNL     1       4.568   3.142  19.641  0.00  0.00    +0.000 C 
ATOM      4  C   UNL     1       3.712   2.904  17.262  0.00  0.00    +0.000 C 
ATOM      5  C   UNL     1       4.636   3.862  16.613  0.00  0.00    +0.000 A 
ATOM      6  N   UNL     1       5.564   3.472  15.674  0.00  0.00    +0.000 NA
ATOM      7  N   UNL     1       6.285   4.503  15.265  0.00  0.00    +0.000 NA
ATOM      8  S   UNL     1       5.849   5.940  16.009  0.00  0.00    +0.000 S 
ATOM      9  C   UNL     1       4.613   5.207  16.949  0.00  0.00    +0.000 A 
ATOM     10  C   UNL     1       3.731   5.797  17.907  0.00  0.00    +0.000 C 
ATOM     11  C   UNL     1       3.066   4.938  18.728  0.00  0.00    +0.000 C 
ATOM     12  C   UNL     1       2.069   5.472  19.720  0.00  0.00    +0.000 C 
ATOM     13  O   UNL     1       1.256   4.733  20.273  0.00  0.00    +0.000 OA
ATOM     14  C   UNL     1       2.070   6.936  20.071  0.00  0.00    +0.000 C 
ATOM     15  C   UNL     1       2.057   7.775  18.822  0.00  0.00    +0.000 C 
ATOM     16  S   UNL     1       3.596   7.531  17.928  0.00  0.00    +0.000 S 
ENDROOT
TORSDOF 0
ENDMDL
MODEL 4
REMARK VINA RESULT:      -5.8      3.137      4.582
REMARK  Name = 
REMARK  2 active torsions:
REMARK  status: ('A' for Active; 'I' for Inactive)
REMARK    1  A    between atoms: C_1  and  C_2
REMARK    2  A    between atoms: C_2  and  C_3
REMARK                            x       y       z     vdW  Elec       q    Type
REMARK                         _______ _______ _______ _____ _____    ______ ____
ROOT
ATOM      1  C   UNL     1       5.519   4.931  17.073  0.00  0.00    +0.000 C 
ATOM      2  C   UNL     1       4.338   4.508  17.972  0.00  0.00    +0.000 C 
ATOM      3  C   UNL     1       3.416   3.607  17.106  0.00  0.00    +0.000 C 
ATOM      4  C   UNL     1       4.968   3.645  19.116  0.00  0.00    +0.000 C 
ATOM      5  C   UNL     1       3.958   3.367  20.163  0.00  0.00    +0.000 A 
ATOM      6  N   UNL     1       3.983   2.222  20.927  0.00  0.00    +0.000 NA
ATOM      7  N   UNL     1       2.964   2.194  21.769  0.00  0.00    +0.000 NA
ATOM      8  S   UNL     1       1.975   3.540  21.643  0.00  0.00    +0.000 S 
ATOM      9  C   UNL     1       2.920   4.255  20.400  0.00  0.00    +0.000 A 
ATOM     10  C   UNL     1       2.720   5.486  19.702  0.00  0.00    +0.000 C 
ATOM     11  C   UNL     1       3.438   5.658  18.557  0.00  0.00    +0.000 C 
ATOM     12  C   UNL     1       3.337   6.953  17.798  0.00  0.00    +0.000 C 
ATOM     13  O   UNL     1       4.160   7.257  16.936  0.00  0.00    +0.000 OA
ATOM     14  C   UNL     1       2.196   7.896  18.071  0.00  0.00    +0.000 C 
ATOM     15  C   UNL     1       2.069   8.152  19.549  0.00  0.00    +0.000 C 
ATOM     16  S   UNL     1       1.596   6.629  20.376  0.00  0.00    +0.000 S 
ENDROOT
TORSDOF 0
ENDMDL
MODEL 5
REMARK VINA RESULT:      -5.8      1.079      1.208
REMARK  Name = 
REMARK  2 active torsions:
REMARK  status: ('A' for Active; 'I' for Inactive)
REMARK    1  A    between atoms: C_1  and  C_2
REMARK    2  A    between atoms: C_2  and  C_3
REMARK                            x       y       z     vdW  Elec       q    Type
REMARK                         _______ _______ _______ _____ _____    ______ ____
ROOT
ATOM      1  C   UNL     1       2.888   2.873  19.764  0.00  0.00    +0.000 C 
ATOM      2  C   UNL     1       2.579   4.201  19.044  0.00  0.00    +0.000 C 
ATOM      3  C   UNL     1       1.226   4.007  18.306  0.00  0.00    +0.000 C 
ATOM      4  C   UNL     1       2.394   5.263  20.180  0.00  0.00    +0.000 C 
ATOM      5  C   UNL     1       2.310   6.623  19.601  0.00  0.00    +0.000 A 
ATOM      6  N   UNL     1       1.586   7.634  20.192  0.00  0.00    +0.000 NA
ATOM      7  N   UNL     1       1.646   8.741  19.472  0.00  0.00    +0.000 NA
ATOM      8  S   UNL     1       2.569   8.569  18.084  0.00  0.00    +0.000 S 
ATOM      9  C   UNL     1       2.952   6.927  18.410  0.00  0.00    +0.000 A 
ATOM     10  C   UNL     1       3.738   6.010  17.646  0.00  0.00    +0.000 C 
ATOM     11  C   UNL     1       3.620   4.693  17.972  0.00  0.00    +0.000 C 
ATOM     12  C   UNL     1       4.463   3.668  17.262  0.00  0.00    +0.000 C 
ATOM     13  O   UNL     1       4.596   2.528  17.705  0.00  0.00    +0.000 OA
ATOM     14  C   UNL     1       5.144   4.023  15.967  0.00  0.00    +0.000 C 
ATOM     15  C   UNL     1       5.910   5.311  16.112  0.00  0.00    +0.000 C 
ATOM     16  S   UNL     1       4.755   6.658  16.393  0.00  0.00    +0.000 S 
ENDROOT
TORSDOF 0
ENDMDL
MODEL 6
REMARK VINA RESULT:      -5.6      3.399      4.361
REMARK  Name = 
REMARK  2 active torsions:
REMARK  status: ('A' for Active; 'I' for Inactive)
REMARK    1  A    between atoms: C_1  and  C_2
REMARK    2  A    between atoms: C_2  and  C_3
REMARK                            x       y       z     vdW  Elec       q    Type
REMARK                         _______ _______ _______ _____ _____    ______ ____
ROOT
ATOM      1  C   UNL     1       3.231   7.644  17.599  0.00  0.00    +0.000 C 
ATOM      2  C   UNL     1       3.496   6.169  17.967  0.00  0.00    +0.000 C 
ATOM      3  C   UNL     1       4.154   6.170  19.373  0.00  0.00    +0.000 C 
ATOM      4  C   UNL     1       2.085   5.499  18.063  0.00  0.00    +0.000 C 
ATOM      5  C   UNL     1       2.223   4.031  18.196  0.00  0.00    +0.000 A 
ATOM      6  N   UNL     1       1.304   3.261  18.873  0.00  0.00    +0.000 NA
ATOM      7  N   UNL     1       1.663   1.988  18.873  0.00  0.00    +0.000 NA
ATOM      8  S   UNL     1       3.104   1.715  18.062  0.00  0.00    +0.000 S 
ATOM      9  C   UNL     1       3.313   3.370  17.652  0.00  0.00    +0.000 A 
ATOM     10  C   UNL     1       4.373   3.998  16.926  0.00  0.00    +0.000 C 
ATOM     11  C   UNL     1       4.447   5.354  17.015  0.00  0.00    +0.000 C 
ATOM     12  C   UNL     1       5.492   6.100  16.229  0.00  0.00    +0.000 C 
ATOM     13  O   UNL     1       5.421   7.316  16.058  0.00  0.00    +0.000 OA
ATOM     14  C   UNL     1       6.669   5.358  15.654  0.00  0.00    +0.000 C 
ATOM     15  C   UNL     1       6.204   4.152  14.882  0.00  0.00    +0.000 C 
ATOM     16  S   UNL     1       5.448   2.980  16.013  0.00  0.00    +0.000 S 
ENDROOT
TORSDOF 0
ENDMDL
MODEL 7
REMARK VINA RESULT:      -5.6      1.709      3.441
REMARK  Name = 
REMARK  2 active torsions:
REMARK  status: ('A' for Active; 'I' for Inactive)
REMARK    1  A    between atoms: C_1  and  C_2
REMARK    2  A    between atoms: C_2  and  C_3
REMARK                            x       y       z     vdW  Elec       q    Type
REMARK                         _______ _______ _______ _____ _____    ______ ____
ROOT
ATOM      1  C   UNL     1       5.283   3.795  17.138  0.00  0.00    +0.000 C 
ATOM      2  C   UNL     1       4.666   4.887  18.037  0.00  0.00    +0.000 C 
ATOM      3  C   UNL     1       5.833   5.514  18.846  0.00  0.00    +0.000 C 
ATOM      4  C   UNL     1       4.088   5.962  17.056  0.00  0.00    +0.000 C 
ATOM      5  C   UNL     1       3.276   6.951  17.802  0.00  0.00    +0.000 A 
ATOM      6  N   UNL     1       3.151   8.260  17.395  0.00  0.00    +0.000 NA
ATOM      7  N   UNL     1       2.400   8.947  18.238  0.00  0.00    +0.000 NA
ATOM      8  S   UNL     1       1.844   8.022  19.520  0.00  0.00    +0.000 S 
ATOM      9  C   UNL     1       2.619   6.593  18.969  0.00  0.00    +0.000 A 
ATOM     10  C   UNL     1       2.638   5.288  19.552  0.00  0.00    +0.000 C 
ATOM     11  C   UNL     1       3.580   4.426  19.078  0.00  0.00    +0.000 C 
ATOM     12  C   UNL     1       3.627   3.012  19.591  0.00  0.00    +0.000 C 
ATOM     13  O   UNL     1       4.260   2.137  19.003  0.00  0.00    +0.000 OA
ATOM     14  C   UNL     1       2.909   2.652  20.864  0.00  0.00    +0.000 C 
ATOM     15  C   UNL     1       1.485   3.139  20.819  0.00  0.00    +0.000 C 
ATOM     16  S   UNL     1       1.473   4.935  20.794  0.00  0.00    +0.000 S 
ENDROOT
TORSDOF 0
ENDMDL
MODEL 8
REMARK VINA RESULT:      -5.5      1.602      2.174
REMARK  Name = 
REMARK  2 active torsions:
REMARK  status: ('A' for Active; 'I' for Inactive)
REMARK    1  A    between atoms: C_1  and  C_2
REMARK    2  A    between atoms: C_2  and  C_3
REMARK                            x       y       z     vdW  Elec       q    Type
REMARK                         _______ _______ _______ _____ _____    ______ ____
ROOT
ATOM      1  C   UNL     1       3.781   1.838  18.265  0.00  0.00    +0.000 C 
ATOM      2  C   UNL     1       3.156   3.248  18.283  0.00  0.00    +0.000 C 
ATOM      3  C   UNL     1       1.796   3.145  17.541  0.00  0.00    +0.000 C 
ATOM      4  C   UNL     1       2.892   3.573  19.792  0.00  0.00    +0.000 C 
ATOM      5  C   UNL     1       2.495   4.991  19.949  0.00  0.00    +0.000 A 
ATOM      6  N   UNL     1       1.658   5.416  20.956  0.00  0.00    +0.000 NA
ATOM      7  N   UNL     1       1.435   6.716  20.866  0.00  0.00    +0.000 NA
ATOM      8  S   UNL     1       2.228   7.428  19.573  0.00  0.00    +0.000 S 
ATOM      9  C   UNL     1       2.944   5.955  19.058  0.00  0.00    +0.000 A 
ATOM     10  C   UNL     1       3.807   5.704  17.947  0.00  0.00    +0.000 C 
ATOM     11  C   UNL     1       3.972   4.401  17.589  0.00  0.00    +0.000 C 
ATOM     12  C   UNL     1       4.916   4.045  16.472  0.00  0.00    +0.000 C 
ATOM     13  O   UNL     1       5.305   2.891  16.305  0.00  0.00    +0.000 OA
ATOM     14  C   UNL     1       5.382   5.111  15.517  0.00  0.00    +0.000 C 
ATOM     15  C   UNL     1       5.903   6.303  16.273  0.00  0.00    +0.000 C 
ATOM     16  S   UNL     1       4.551   7.072  17.171  0.00  0.00    +0.000 S 
ENDROOT
TORSDOF 0
ENDMDL
MODEL 9
REMARK VINA RESULT:      -5.5      3.336      4.312
REMARK  Name = 
REMARK  2 active torsions:
REMARK  status: ('A' for Active; 'I' for Inactive)
REMARK    1  A    between atoms: C_1  and  C_2
REMARK    2  A    between atoms: C_2  and  C_3
REMARK                            x       y       z     vdW  Elec       q    Type
REMARK                         _______ _______ _______ _____ _____    ______ ____
ROOT
ATOM      1  C   UNL     1       2.212   7.696  17.886  0.00  0.00    +0.000 C 
ATOM      2  C   UNL     1       2.699   6.280  18.257  0.00  0.00    +0.000 C 
ATOM      3  C   UNL     1       2.907   6.266  19.795  0.00  0.00    +0.000 C 
ATOM      4  C   UNL     1       1.518   5.319  17.892  0.00  0.00    +0.000 C 
ATOM      5  C   UNL     1       1.952   3.908  18.000  0.00  0.00    +0.000 A 
ATOM      6  N   UNL     1       1.086   2.892  18.333  0.00  0.00    +0.000 NA
ATOM      7  N   UNL     1       1.718   1.732  18.390  0.00  0.00    +0.000 NA
ATOM      8  S   UNL     1       3.352   1.861  18.046  0.00  0.00    +0.000 S 
ATOM      9  C   UNL     1       3.277   3.556  17.786  0.00  0.00    +0.000 A 
ATOM     10  C   UNL     1       4.321   4.470  17.443  0.00  0.00    +0.000 C 
ATOM     11  C   UNL     1       4.047   5.794  17.606  0.00  0.00    +0.000 C 
ATOM     12  C   UNL     1       5.067   6.825  17.207  0.00  0.00    +0.000 C 
ATOM     13  O   UNL     1       4.765   8.009  17.072  0.00  0.00    +0.000 OA
ATOM     14  C   UNL     1       6.500   6.416  16.987  0.00  0.00    +0.000 C 
ATOM     15  C   UNL     1       6.572   5.231  16.061  0.00  0.00    +0.000 C 
ATOM     16  S   UNL     1       5.820   3.808  16.860  0.00  0.00    +0.000 S 
ENDROOT
TORSDOF 0
ENDMDL
