MODEL 1
REMARK VINA RESULT:      -8.2      0.000      0.000
REMARK  Name = 
REMARK  9 active torsions:
REMARK  status: ('A' for Active; 'I' for Inactive)
REMARK    1  A    between atoms: C_1  and  C_2
REMARK    2  A    between atoms: C_5  and  N_6
REMARK    3  A    between atoms: C_7  and  C_9
REMARK    4  A    between atoms: C_9  and  S_10
REMARK    5  A    between atoms: S_10  and  C_11
REMARK    6  A    between atoms: C_14  and  C_15
REMARK    7  A    between atoms: C_18  and  S_19
REMARK    8  A    between atoms: S_19  and  N_22
REMARK    9  A    between atoms: C_31  and  C_32
REMARK                            x       y       z     vdW  Elec       q    Type
REMARK                         _______ _______ _______ _____ _____    ______ ____
ROOT
ATOM      1  C   UNL     1       1.730   3.573  19.600  0.00  0.00    +0.000 A 
ATOM      2  N   UNL     1       1.961   3.641  20.895  0.00  0.00    +0.000 NA
ATOM      3  N   UNL     1       2.054   4.981  21.216  0.00  0.00    +0.000 NA
ATOM      4  C   UNL     1       1.862   5.650  20.099  0.00  0.00    +0.000 A 
ATOM      5  O   UNL     1       1.663   4.816  19.021  0.00  0.00    +0.000 OA
ENDROOT
BRANCH   4   6
ATOM      6  C   UNL     1       1.805   7.092  19.860  0.00  0.00    +0.000 A 
ATOM      7  C   UNL     1       1.309   7.957  20.853  0.00  0.00    +0.000 A 
ATOM      8  C   UNL     1       1.185   9.337  20.609  0.00  0.00    +0.000 A 
ATOM      9  C   UNL     1       1.563   9.857  19.371  0.00  0.00    +0.000 A 
ATOM     10  C   UNL     1       2.090   9.023  18.386  0.00  0.00    +0.000 A 
ATOM     11  C   UNL     1       2.207   7.648  18.635  0.00  0.00    +0.000 A 
BRANCH   9  12
ATOM     12  S   UNL     1       1.268  11.574  18.993  0.00  0.00    +0.000 S 
ATOM     13  O   UNL     1       2.336  12.000  18.123  0.00  0.00    +0.000 OA
ATOM     14  O   UNL     1      -0.120  11.708  18.596  0.00  0.00    +0.000 OA
BRANCH  12  15
ATOM     15  N   UNL     1       1.452  12.391  20.485  0.00  0.00    +0.000 NA
ATOM     16  C   UNL     1       0.229  12.972  21.093  0.00  0.00    +0.000 C 
ATOM     17  C   UNL     1       0.233  14.428  20.672  0.00  0.00    +0.000 C 
ATOM     18  C   UNL     1       1.702  14.801  20.693  0.00  0.00    +0.000 C 
ATOM     19  C   UNL     1       2.458  13.502  20.420  0.00  0.00    +0.000 C 
ENDBRANCH  12  15
ENDBRANCH   9  12
ENDBRANCH   4   6
BRANCH   1  20
ATOM     20  S   UNL     1       1.506   2.071  18.752  0.00  0.00    +0.000 S 
BRANCH  20  21
ATOM     21  C   UNL     1       3.204   1.453  18.660  0.00  0.00    +0.000 C 
BRANCH  21  23
ATOM     22  N   UNL     1       4.235   3.512  17.790  0.00  0.00    +0.000 N 
ATOM     23  C   UNL     1       4.209   2.586  18.829  0.00  0.00    +0.000 C 
ATOM     24  O   UNL     1       4.947   2.582  19.813  0.00  0.00    +0.000 OA
ATOM     25  H   UNL     1       3.560   3.389  17.045  0.00  0.00    +0.000 HD
BRANCH  22  30
ATOM     26  C   UNL     1       7.676   8.122  17.426  0.00  0.00    +0.000 C 
ATOM     27  C   UNL     1       6.782   6.920  17.564  0.00  0.00    +0.000 A 
ATOM     28  C   UNL     1       5.670   6.807  16.727  0.00  0.00    +0.000 A 
ATOM     29  C   UNL     1       4.818   5.703  16.802  0.00  0.00    +0.000 A 
ATOM     30  C   UNL     1       5.056   4.670  17.704  0.00  0.00    +0.000 A 
ATOM     31  C   UNL     1       6.165   4.783  18.559  0.00  0.00    +0.000 A 
ATOM     32  C   UNL     1       7.031   5.900  18.500  0.00  0.00    +0.000 A 
ATOM     33  C   UNL     1       8.211   5.997  19.435  0.00  0.00    +0.000 C 
ENDBRANCH  22  30
ENDBRANCH  21  23
ENDBRANCH  20  21
ENDBRANCH   1  20
TORSDOF 7
ENDMDL
MODEL 2
REMARK VINA RESULT:      -8.0      5.200      7.567
REMARK  Name = 
REMARK  9 active torsions:
REMARK  status: ('A' for Active; 'I' for Inactive)
REMARK    1  A    between atoms: C_1  and  C_2
REMARK    2  A    between atoms: C_5  and  N_6
REMARK    3  A    between atoms: C_7  and  C_9
REMARK    4  A    between atoms: C_9  and  S_10
REMARK    5  A    between atoms: S_10  and  C_11
REMARK    6  A    between atoms: C_14  and  C_15
REMARK    7  A    between atoms: C_18  and  S_19
REMARK    8  A    between atoms: S_19  and  N_22
REMARK    9  A    between atoms: C_31  and  C_32
REMARK                            x       y       z     vdW  Elec       q    Type
REMARK                         _______ _______ _______ _____ _____    ______ ____
ROOT
ATOM      1  C   UNL     1       7.404   6.926  17.157  0.00  0.00    +0.000 A 
ATOM      2  N   UNL     1       7.843   6.398  18.281  0.00  0.00    +0.000 NA
ATOM      3  N   UNL     1       8.455   7.414  18.990  0.00  0.00    +0.000 NA
ATOM      4  C   UNL     1       8.342   8.503  18.260  0.00  0.00    +0.000 A 
ATOM      5  O   UNL     1       7.695   8.264  17.067  0.00  0.00    +0.000 OA
ENDROOT
BRANCH   4   6
ATOM      6  C   UNL     1       8.765   9.875  18.539  0.00  0.00    +0.000 A 
ATOM      7  C   UNL     1       9.416  10.185  19.747  0.00  0.00    +0.000 A 
ATOM      8  C   UNL     1       9.766  11.512  20.056  0.00  0.00    +0.000 A 
ATOM      9  C   UNL     1       9.469  12.533  19.155  0.00  0.00    +0.000 A 
ATOM     10  C   UNL     1       8.856  12.244  17.937  0.00  0.00    +0.000 A 
ATOM     11  C   UNL     1       8.507  10.919  17.637  0.00  0.00    +0.000 A 
BRANCH   9  12
ATOM     12  S   UNL     1       9.764  14.234  19.599  0.00  0.00    +0.000 S 
ATOM     13  O   UNL     1       8.615  14.675  20.353  0.00  0.00    +0.000 OA
ATOM     14  O   UNL     1      11.101  14.323  20.153  0.00  0.00    +0.000 OA
BRANCH  12  15
ATOM     15  N   UNL     1       9.770  15.082  18.113  0.00  0.00    +0.000 NA
ATOM     16  C   UNL     1      11.022  15.787  17.743  0.00  0.00    +0.000 C 
ATOM     17  C   UNL     1      10.812  17.223  18.182  0.00  0.00    +0.000 C 
ATOM     18  C   UNL     1       9.341  17.467  17.908  0.00  0.00    +0.000 C 
ATOM     19  C   UNL     1       8.671  16.099  18.018  0.00  0.00    +0.000 C 
ENDBRANCH  12  15
ENDBRANCH   9  12
ENDBRANCH   4   6
BRANCH   1  20
ATOM     20  S   UNL     1       6.532   6.017  15.957  0.00  0.00    +0.000 S 
BRANCH  20  21
ATOM     21  C   UNL     1       4.945   6.883  15.932  0.00  0.00    +0.000 C 
BRANCH  21  23
ATOM     22  N   UNL     1       3.946   5.194  17.419  0.00  0.00    +0.000 N 
ATOM     23  C   UNL     1       4.121   6.553  17.170  0.00  0.00    +0.000 C 
ATOM     24  O   UNL     1       3.632   7.475  17.822  0.00  0.00    +0.000 OA
ATOM     25  H   UNL     1       4.417   4.548  16.796  0.00  0.00    +0.000 HD
BRANCH  22  30
ATOM     26  C   UNL     1       1.134   2.709  21.792  0.00  0.00    +0.000 C 
ATOM     27  C   UNL     1       1.832   3.358  20.629  0.00  0.00    +0.000 A 
ATOM     28  C   UNL     1       2.807   4.325  20.881  0.00  0.00    +0.000 A 
ATOM     29  C   UNL     1       3.496   4.946  19.838  0.00  0.00    +0.000 A 
ATOM     30  C   UNL     1       3.244   4.613  18.509  0.00  0.00    +0.000 A 
ATOM     31  C   UNL     1       2.255   3.651  18.247  0.00  0.00    +0.000 A 
ATOM     32  C   UNL     1       1.542   3.021  19.295  0.00  0.00    +0.000 A 
ATOM     33  C   UNL     1       0.480   1.996  18.981  0.00  0.00    +0.000 C 
ENDBRANCH  22  30
ENDBRANCH  21  23
ENDBRANCH  20  21
ENDBRANCH   1  20
TORSDOF 7
ENDMDL
MODEL 3
REMARK VINA RESULT:      -8.0      4.974      7.388
REMARK  Name = 
REMARK  9 active torsions:
REMARK  status: ('A' for Active; 'I' for Inactive)
REMARK    1  A    between atoms: C_1  and  C_2
REMARK    2  A    between atoms: C_5  and  N_6
REMARK    3  A    between atoms: C_7  and  C_9
REMARK    4  A    between atoms: C_9  and  S_10
REMARK    5  A    between atoms: S_10  and  C_11
REMARK    6  A    between atoms: C_14  and  C_15
REMARK    7  A    between atoms: C_18  and  S_19
REMARK    8  A    between atoms: S_19  and  N_22
REMARK    9  A    between atoms: C_31  and  C_32
REMARK                            x       y       z     vdW  Elec       q    Type
REMARK                         _______ _______ _______ _____ _____    ______ ____
ROOT
ATOM      1  C   UNL     1       6.788   6.485  16.770  0.00  0.00    +0.000 A 
ATOM      2  N   UNL     1       7.251   5.862  17.834  0.00  0.00    +0.000 NA
ATOM      3  N   UNL     1       7.952   6.795  18.572  0.00  0.00    +0.000 NA
ATOM      4  C   UNL     1       7.865   7.934  17.919  0.00  0.00    +0.000 A 
ATOM      5  O   UNL     1       7.148   7.809  16.749  0.00  0.00    +0.000 OA
ENDROOT
BRANCH   4   6
ATOM      6  C   UNL     1       8.377   9.261  18.263  0.00  0.00    +0.000 A 
ATOM      7  C   UNL     1       8.073  10.371  17.453  0.00  0.00    +0.000 A 
ATOM      8  C   UNL     1       8.616  11.637  17.735  0.00  0.00    +0.000 A 
ATOM      9  C   UNL     1       9.462  11.798  18.832  0.00  0.00    +0.000 A 
ATOM     10  C   UNL     1       9.747  10.720  19.668  0.00  0.00    +0.000 A 
ATOM     11  C   UNL     1       9.206   9.459  19.379  0.00  0.00    +0.000 A 
BRANCH   9  12
ATOM     12  S   UNL     1      10.280  13.358  19.111  0.00  0.00    +0.000 S 
ATOM     13  O   UNL     1       9.590  14.002  20.202  0.00  0.00    +0.000 OA
ATOM     14  O   UNL     1      11.706  13.106  19.172  0.00  0.00    +0.000 OA
BRANCH  12  15
ATOM     15  N   UNL     1       9.983  14.270  17.695  0.00  0.00    +0.000 NA
ATOM     16  C   UNL     1      11.161  14.856  17.009  0.00  0.00    +0.000 C 
ATOM     17  C   UNL     1      11.242  16.283  17.514  0.00  0.00    +0.000 C 
ATOM     18  C   UNL     1       9.790  16.694  17.655  0.00  0.00    +0.000 C 
ATOM     19  C   UNL     1       9.023  15.400  17.920  0.00  0.00    +0.000 C 
ENDBRANCH  12  15
ENDBRANCH   9  12
ENDBRANCH   4   6
BRANCH   1  20
ATOM     20  S   UNL     1       5.810   5.704  15.562  0.00  0.00    +0.000 S 
BRANCH  20  21
ATOM     21  C   UNL     1       5.007   4.407  16.532  0.00  0.00    +0.000 C 
BRANCH  21  23
ATOM     22  N   UNL     1       4.028   6.233  17.861  0.00  0.00    +0.000 N 
ATOM     23  C   UNL     1       3.831   4.964  17.325  0.00  0.00    +0.000 C 
ATOM     24  O   UNL     1       2.834   4.260  17.483  0.00  0.00    +0.000 OA
ATOM     25  H   UNL     1       4.902   6.696  17.640  0.00  0.00    +0.000 HD
BRANCH  22  30
ATOM     26  C   UNL     1       0.154   9.302  20.826  0.00  0.00    +0.000 C 
ATOM     27  C   UNL     1       1.184   8.537  20.040  0.00  0.00    +0.000 A 
ATOM     28  C   UNL     1       1.697   7.353  20.573  0.00  0.00    +0.000 A 
ATOM     29  C   UNL     1       2.641   6.596  19.876  0.00  0.00    +0.000 A 
ATOM     30  C   UNL     1       3.094   6.990  18.620  0.00  0.00    +0.000 A 
ATOM     31  C   UNL     1       2.593   8.188  18.084  0.00  0.00    +0.000 A 
ATOM     32  C   UNL     1       1.643   8.968  18.783  0.00  0.00    +0.000 A 
ATOM     33  C   UNL     1       1.128  10.253  18.183  0.00  0.00    +0.000 C 
ENDBRANCH  22  30
ENDBRANCH  21  23
ENDBRANCH  20  21
ENDBRANCH   1  20
TORSDOF 7
ENDMDL
MODEL 4
REMARK VINA RESULT:      -8.0      3.559      4.937
REMARK  Name = 
REMARK  9 active torsions:
REMARK  status: ('A' for Active; 'I' for Inactive)
REMARK    1  A    between atoms: C_1  and  C_2
REMARK    2  A    between atoms: C_5  and  N_6
REMARK    3  A    between atoms: C_7  and  C_9
REMARK    4  A    between atoms: C_9  and  S_10
REMARK    5  A    between atoms: S_10  and  C_11
REMARK    6  A    between atoms: C_14  and  C_15
REMARK    7  A    between atoms: C_18  and  S_19
REMARK    8  A    between atoms: S_19  and  N_22
REMARK    9  A    between atoms: C_31  and  C_32
REMARK                            x       y       z     vdW  Elec       q    Type
REMARK                         _______ _______ _______ _____ _____    ______ ____
ROOT
ATOM      1  C   UNL     1       5.360   5.390  17.623  0.00  0.00    +0.000 A 
ATOM      2  N   UNL     1       4.394   4.515  17.434  0.00  0.00    +0.000 NA
ATOM      3  N   UNL     1       3.212   5.141  17.777  0.00  0.00    +0.000 NA
ATOM      4  C   UNL     1       3.528   6.365  18.144  0.00  0.00    +0.000 A 
ATOM      5  O   UNL     1       4.886   6.592  18.085  0.00  0.00    +0.000 OA
ENDROOT
BRANCH   4   6
ATOM      6  C   UNL     1       2.672   7.477  18.559  0.00  0.00    +0.000 A 
ATOM      7  C   UNL     1       2.398   8.532  17.671  0.00  0.00    +0.000 A 
ATOM      8  C   UNL     1       1.633   9.639  18.082  0.00  0.00    +0.000 A 
ATOM      9  C   UNL     1       1.135   9.690  19.383  0.00  0.00    +0.000 A 
ATOM     10  C   UNL     1       1.365   8.639  20.269  0.00  0.00    +0.000 A 
ATOM     11  C   UNL     1       2.132   7.540  19.854  0.00  0.00    +0.000 A 
BRANCH   9  12
ATOM     12  S   UNL     1       0.299  11.153  19.966  0.00  0.00    +0.000 S 
ATOM     13  O   UNL     1       0.504  11.212  21.392  0.00  0.00    +0.000 OA
ATOM     14  O   UNL     1       0.684  12.256  19.107  0.00  0.00    +0.000 OA
BRANCH  12  15
ATOM     15  N   UNL     1      -1.362  10.848  19.690  0.00  0.00    +0.000 NA
ATOM     16  C   UNL     1      -1.702   9.822  18.672  0.00  0.00    +0.000 C 
ATOM     17  C   UNL     1      -1.972  10.602  17.401  0.00  0.00    +0.000 C 
ATOM     18  C   UNL     1      -2.650  11.864  17.894  0.00  0.00    +0.000 C 
ATOM     19  C   UNL     1      -2.126  12.083  19.312  0.00  0.00    +0.000 C 
ENDBRANCH  12  15
ENDBRANCH   9  12
ENDBRANCH   4   6
BRANCH   1  20
ATOM     20  S   UNL     1       7.032   5.047  17.286  0.00  0.00    +0.000 S 
BRANCH  20  21
ATOM     21  C   UNL     1       7.863   6.014  18.569  0.00  0.00    +0.000 C 
BRANCH  21  23
ATOM     22  N   UNL     1       8.599   8.304  19.094  0.00  0.00    +0.000 N 
ATOM     23  C   UNL     1       8.042   7.464  18.135  0.00  0.00    +0.000 C 
ATOM     24  O   UNL     1       7.646   7.802  17.020  0.00  0.00    +0.000 OA
ATOM     25  H   UNL     1       8.884   7.879  19.969  0.00  0.00    +0.000 HD
BRANCH  22  30
ATOM     26  C   UNL     1       9.922  13.885  18.535  0.00  0.00    +0.000 C 
ATOM     27  C   UNL     1       9.563  12.436  18.721  0.00  0.00    +0.000 A 
ATOM     28  C   UNL     1       8.997  11.740  17.652  0.00  0.00    +0.000 A 
ATOM     29  C   UNL     1       8.661  10.389  17.766  0.00  0.00    +0.000 A 
ATOM     30  C   UNL     1       8.893   9.687  18.946  0.00  0.00    +0.000 A 
ATOM     31  C   UNL     1       9.450  10.385  20.030  0.00  0.00    +0.000 A 
ATOM     32  C   UNL     1       9.786  11.755  19.931  0.00  0.00    +0.000 A 
ATOM     33  C   UNL     1      10.377  12.480  21.115  0.00  0.00    +0.000 C 
ENDBRANCH  22  30
ENDBRANCH  21  23
ENDBRANCH  20  21
ENDBRANCH   1  20
TORSDOF 7
ENDMDL
MODEL 5
REMARK VINA RESULT:      -7.9      2.612      4.726
REMARK  Name = 
REMARK  9 active torsions:
REMARK  status: ('A' for Active; 'I' for Inactive)
REMARK    1  A    between atoms: C_1  and  C_2
REMARK    2  A    between atoms: C_5  and  N_6
REMARK    3  A    between atoms: C_7  and  C_9
REMARK    4  A    between atoms: C_9  and  S_10
REMARK    5  A    between atoms: S_10  and  C_11
REMARK    6  A    between atoms: C_14  and  C_15
REMARK    7  A    between atoms: C_18  and  S_19
REMARK    8  A    between atoms: S_19  and  N_22
REMARK    9  A    between atoms: C_31  and  C_32
REMARK                            x       y       z     vdW  Elec       q    Type
REMARK                         _______ _______ _______ _____ _____    ______ ____
ROOT
ATOM      1  C   UNL     1       5.464   5.773  16.167  0.00  0.00    +0.000 A 
ATOM      2  N   UNL     1       5.281   6.683  15.232  0.00  0.00    +0.000 NA
ATOM      3  N   UNL     1       4.324   7.558  15.706  0.00  0.00    +0.000 NA
ATOM      4  C   UNL     1       3.988   7.136  16.906  0.00  0.00    +0.000 A 
ATOM      5  O   UNL     1       4.666   5.990  17.262  0.00  0.00    +0.000 OA
ENDROOT
BRANCH   4   6
ATOM      6  C   UNL     1       3.058   7.705  17.882  0.00  0.00    +0.000 A 
ATOM      7  C   UNL     1       2.363   8.893  17.591  0.00  0.00    +0.000 A 
ATOM      8  C   UNL     1       1.520   9.486  18.547  0.00  0.00    +0.000 A 
ATOM      9  C   UNL     1       1.365   8.889  19.798  0.00  0.00    +0.000 A 
ATOM     10  C   UNL     1       2.016   7.692  20.094  0.00  0.00    +0.000 A 
ATOM     11  C   UNL     1       2.859   7.109  19.137  0.00  0.00    +0.000 A 
BRANCH   9  12
ATOM     12  S   UNL     1       0.424   9.708  21.071  0.00  0.00    +0.000 S 
ATOM     13  O   UNL     1      -0.825   8.996  21.192  0.00  0.00    +0.000 OA
ATOM     14  O   UNL     1       1.295   9.891  22.217  0.00  0.00    +0.000 OA
BRANCH  12  15
ATOM     15  N   UNL     1       0.082  11.259  20.437  0.00  0.00    +0.000 NA
ATOM     16  C   UNL     1       0.144  12.404  21.379  0.00  0.00    +0.000 C 
ATOM     17  C   UNL     1      -1.289  12.630  21.819  0.00  0.00    +0.000 C 
ATOM     18  C   UNL     1      -2.096  12.332  20.572  0.00  0.00    +0.000 C 
ATOM     19  C   UNL     1      -1.261  11.334  19.773  0.00  0.00    +0.000 C 
ENDBRANCH  12  15
ENDBRANCH   9  12
ENDBRANCH   4   6
BRANCH   1  20
ATOM     20  S   UNL     1       6.613   4.476  16.019  0.00  0.00    +0.000 S 
BRANCH  20  21
ATOM     21  C   UNL     1       7.472   4.572  17.608  0.00  0.00    +0.000 C 
BRANCH  21  23
ATOM     22  N   UNL     1       5.467   3.533  18.587  0.00  0.00    +0.000 N 
ATOM     23  C   UNL     1       6.491   4.457  18.769  0.00  0.00    +0.000 C 
ATOM     24  O   UNL     1       6.630   5.200  19.739  0.00  0.00    +0.000 OA
ATOM     25  H   UNL     1       5.486   2.984  17.735  0.00  0.00    +0.000 HD
BRANCH  22  30
ATOM     26  C   UNL     1       1.205   2.206  22.234  0.00  0.00    +0.000 C 
ATOM     27  C   UNL     1       2.305   2.593  21.284  0.00  0.00    +0.000 A 
ATOM     28  C   UNL     1       3.547   1.967  21.399  0.00  0.00    +0.000 A 
ATOM     29  C   UNL     1       4.597   2.277  20.532  0.00  0.00    +0.000 A 
ATOM     30  C   UNL     1       4.437   3.212  19.513  0.00  0.00    +0.000 A 
ATOM     31  C   UNL     1       3.194   3.857  19.400  0.00  0.00    +0.000 A 
ATOM     32  C   UNL     1       2.125   3.558  20.277  0.00  0.00    +0.000 A 
ATOM     33  C   UNL     1       0.804   4.272  20.134  0.00  0.00    +0.000 C 
ENDBRANCH  22  30
ENDBRANCH  21  23
ENDBRANCH  20  21
ENDBRANCH   1  20
TORSDOF 7
ENDMDL
MODEL 6
REMARK VINA RESULT:      -7.9      5.721      7.955
REMARK  Name = 
REMARK  9 active torsions:
REMARK  status: ('A' for Active; 'I' for Inactive)
REMARK    1  A    between atoms: C_1  and  C_2
REMARK    2  A    between atoms: C_5  and  N_6
REMARK    3  A    between atoms: C_7  and  C_9
REMARK    4  A    between atoms: C_9  and  S_10
REMARK    5  A    between atoms: S_10  and  C_11
REMARK    6  A    between atoms: C_14  and  C_15
REMARK    7  A    between atoms: C_18  and  S_19
REMARK    8  A    between atoms: S_19  and  N_22
REMARK    9  A    between atoms: C_31  and  C_32
REMARK                            x       y       z     vdW  Elec       q    Type
REMARK                         _______ _______ _______ _____ _____    ______ ____
ROOT
ATOM      1  C   UNL     1       8.139   7.418  18.515  0.00  0.00    +0.000 A 
ATOM      2  N   UNL     1       7.494   7.706  17.403  0.00  0.00    +0.000 NA
ATOM      3  N   UNL     1       7.766   9.029  17.112  0.00  0.00    +0.000 NA
ATOM      4  C   UNL     1       8.570   9.464  18.059  0.00  0.00    +0.000 A 
ATOM      5  O   UNL     1       8.841   8.494  18.999  0.00  0.00    +0.000 OA
ENDROOT
BRANCH   4   6
ATOM      6  C   UNL     1       9.210  10.769  18.227  0.00  0.00    +0.000 A 
ATOM      7  C   UNL     1      10.485  10.864  18.813  0.00  0.00    +0.000 A 
ATOM      8  C   UNL     1      11.080  12.118  19.042  0.00  0.00    +0.000 A 
ATOM      9  C   UNL     1      10.401  13.282  18.682  0.00  0.00    +0.000 A 
ATOM     10  C   UNL     1       9.152  13.209  18.068  0.00  0.00    +0.000 A 
ATOM     11  C   UNL     1       8.563  11.956  17.845  0.00  0.00    +0.000 A 
BRANCH   9  12
ATOM     12  S   UNL     1      11.072  14.878  19.107  0.00  0.00    +0.000 S 
ATOM     13  O   UNL     1      12.333  14.641  19.764  0.00  0.00    +0.000 OA
ATOM     14  O   UNL     1      10.987  15.722  17.930  0.00  0.00    +0.000 OA
BRANCH  12  15
ATOM     15  N   UNL     1       9.989  15.514  20.269  0.00  0.00    +0.000 NA
ATOM     16  C   UNL     1       9.611  16.943  20.130  0.00  0.00    +0.000 C 
ATOM     17  C   UNL     1      10.537  17.689  21.068  0.00  0.00    +0.000 C 
ATOM     18  C   UNL     1      10.688  16.747  22.246  0.00  0.00    +0.000 C 
ATOM     19  C   UNL     1      10.480  15.345  21.676  0.00  0.00    +0.000 C 
ENDBRANCH  12  15
ENDBRANCH   9  12
ENDBRANCH   4   6
BRANCH   1  20
ATOM     20  S   UNL     1       8.115   5.840  19.247  0.00  0.00    +0.000 S 
BRANCH  20  21
ATOM     21  C   UNL     1       7.788   4.784  17.815  0.00  0.00    +0.000 C 
BRANCH  21  23
ATOM     22  N   UNL     1       5.747   3.668  18.619  0.00  0.00    +0.000 N 
ATOM     23  C   UNL     1       6.297   4.515  17.661  0.00  0.00    +0.000 C 
ATOM     24  O   UNL     1       5.701   5.002  16.701  0.00  0.00    +0.000 OA
ATOM     25  H   UNL     1       6.362   3.347  19.358  0.00  0.00    +0.000 HD
BRANCH  22  30
ATOM     26  C   UNL     1       0.198   2.184  19.084  0.00  0.00    +0.000 C 
ATOM     27  C   UNL     1       1.653   2.556  19.002  0.00  0.00    +0.000 A 
ATOM     28  C   UNL     1       2.329   2.372  17.795  0.00  0.00    +0.000 A 
ATOM     29  C   UNL     1       3.675   2.718  17.660  0.00  0.00    +0.000 A 
ATOM     30  C   UNL     1       4.386   3.270  18.722  0.00  0.00    +0.000 A 
ATOM     31  C   UNL     1       3.716   3.445  19.944  0.00  0.00    +0.000 A 
ATOM     32  C   UNL     1       2.355   3.091  20.097  0.00  0.00    +0.000 A 
ATOM     33  C   UNL     1       1.665   3.285  21.424  0.00  0.00    +0.000 C 
ENDBRANCH  22  30
ENDBRANCH  21  23
ENDBRANCH  20  21
ENDBRANCH   1  20
TORSDOF 7
ENDMDL
MODEL 7
REMARK VINA RESULT:      -7.9      1.227      1.427
REMARK  Name = 
REMARK  9 active torsions:
REMARK  status: ('A' for Active; 'I' for Inactive)
REMARK    1  A    between atoms: C_1  and  C_2
REMARK    2  A    between atoms: C_5  and  N_6
REMARK    3  A    between atoms: C_7  and  C_9
REMARK    4  A    between atoms: C_9  and  S_10
REMARK    5  A    between atoms: S_10  and  C_11
REMARK    6  A    between atoms: C_14  and  C_15
REMARK    7  A    between atoms: C_18  and  S_19
REMARK    8  A    between atoms: S_19  and  N_22
REMARK    9  A    between atoms: C_31  and  C_32
REMARK                            x       y       z     vdW  Elec       q    Type
REMARK                         _______ _______ _______ _____ _____    ______ ____
ROOT
ATOM      1  C   UNL     1       1.418   3.654  19.980  0.00  0.00    +0.000 A 
ATOM      2  N   UNL     1       2.240   3.689  21.009  0.00  0.00    +0.000 NA
ATOM      3  N   UNL     1       2.466   5.021  21.296  0.00  0.00    +0.000 NA
ATOM      4  C   UNL     1       1.759   5.718  20.432  0.00  0.00    +0.000 A 
ATOM      5  O   UNL     1       1.075   4.911  19.549  0.00  0.00    +0.000 OA
ENDROOT
BRANCH   4   6
ATOM      6  C   UNL     1       1.586   7.165  20.303  0.00  0.00    +0.000 A 
ATOM      7  C   UNL     1       1.000   7.905  21.346  0.00  0.00    +0.000 A 
ATOM      8  C   UNL     1       0.766   9.285  21.205  0.00  0.00    +0.000 A 
ATOM      9  C   UNL     1       1.121   9.930  20.022  0.00  0.00    +0.000 A 
ATOM     10  C   UNL     1       1.736   9.222  18.989  0.00  0.00    +0.000 A 
ATOM     11  C   UNL     1       1.963   7.846  19.135  0.00  0.00    +0.000 A 
BRANCH   9  12
ATOM     12  S   UNL     1       0.690  11.641  19.768  0.00  0.00    +0.000 S 
ATOM     13  O   UNL     1      -0.004  11.715  18.507  0.00  0.00    +0.000 OA
ATOM     14  O   UNL     1       0.080  12.130  20.990  0.00  0.00    +0.000 OA
BRANCH  12  15
ATOM     15  N   UNL     1       2.188  12.449  19.588  0.00  0.00    +0.000 NA
ATOM     16  C   UNL     1       2.424  13.635  20.449  0.00  0.00    +0.000 C 
ATOM     17  C   UNL     1       2.052  14.827  19.590  0.00  0.00    +0.000 C 
ATOM     18  C   UNL     1       2.508  14.422  18.202  0.00  0.00    +0.000 C 
ATOM     19  C   UNL     1       2.442  12.896  18.179  0.00  0.00    +0.000 C 
ENDBRANCH  12  15
ENDBRANCH   9  12
ENDBRANCH   4   6
BRANCH   1  20
ATOM     20  S   UNL     1       0.826   2.172  19.287  0.00  0.00    +0.000 S 
BRANCH  20  21
ATOM     21  C   UNL     1       2.190   1.719  18.188  0.00  0.00    +0.000 C 
BRANCH  21  23
ATOM     22  N   UNL     1       3.907   3.458  18.475  0.00  0.00    +0.000 N 
ATOM     23  C   UNL     1       2.899   2.958  17.656  0.00  0.00    +0.000 C 
ATOM     24  O   UNL     1       2.515   3.454  16.598  0.00  0.00    +0.000 OA
ATOM     25  H   UNL     1       4.118   2.937  19.318  0.00  0.00    +0.000 HD
BRANCH  22  30
ATOM     26  C   UNL     1       7.376   7.928  17.373  0.00  0.00    +0.000 C 
ATOM     27  C   UNL     1       6.483   6.763  17.702  0.00  0.00    +0.000 A 
ATOM     28  C   UNL     1       5.236   6.673  17.080  0.00  0.00    +0.000 A 
ATOM     29  C   UNL     1       4.376   5.603  17.336  0.00  0.00    +0.000 A 
ATOM     30  C   UNL     1       4.737   4.582  18.211  0.00  0.00    +0.000 A 
ATOM     31  C   UNL     1       5.984   4.674  18.851  0.00  0.00    +0.000 A 
ATOM     32  C   UNL     1       6.861   5.756  18.607  0.00  0.00    +0.000 A 
ATOM     33  C   UNL     1       8.192   5.829  19.315  0.00  0.00    +0.000 C 
ENDBRANCH  22  30
ENDBRANCH  21  23
ENDBRANCH  20  21
ENDBRANCH   1  20
TORSDOF 7
ENDMDL
MODEL 8
REMARK VINA RESULT:      -7.7      2.946     10.415
REMARK  Name = 
REMARK  9 active torsions:
REMARK  status: ('A' for Active; 'I' for Inactive)
REMARK    1  A    between atoms: C_1  and  C_2
REMARK    2  A    between atoms: C_5  and  N_6
REMARK    3  A    between atoms: C_7  and  C_9
REMARK    4  A    between atoms: C_9  and  S_10
REMARK    5  A    between atoms: S_10  and  C_11
REMARK    6  A    between atoms: C_14  and  C_15
REMARK    7  A    between atoms: C_18  and  S_19
REMARK    8  A    between atoms: S_19  and  N_22
REMARK    9  A    between atoms: C_31  and  C_32
REMARK                            x       y       z     vdW  Elec       q    Type
REMARK                         _______ _______ _______ _____ _____    ______ ____
ROOT
ATOM      1  C   UNL     1       0.593  13.021  18.717  0.00  0.00    +0.000 A 
ATOM      2  N   UNL     1      -0.656  12.609  18.633  0.00  0.00    +0.000 NA
ATOM      3  N   UNL     1      -0.634  11.235  18.764  0.00  0.00    +0.000 NA
ATOM      4  C   UNL     1       0.625  10.892  18.932  0.00  0.00    +0.000 A 
ATOM      5  O   UNL     1       1.469  11.981  18.897  0.00  0.00    +0.000 OA
ENDROOT
BRANCH   4   6
ATOM      6  C   UNL     1       1.223   9.577  19.166  0.00  0.00    +0.000 A 
ATOM      7  C   UNL     1       1.885   8.903  18.125  0.00  0.00    +0.000 A 
ATOM      8  C   UNL     1       2.403   7.610  18.320  0.00  0.00    +0.000 A 
ATOM      9  C   UNL     1       2.263   6.989  19.560  0.00  0.00    +0.000 A 
ATOM     10  C   UNL     1       1.642   7.653  20.617  0.00  0.00    +0.000 A 
ATOM     11  C   UNL     1       1.124   8.941  20.414  0.00  0.00    +0.000 A 
BRANCH   9  12
ATOM     12  S   UNL     1       2.775   5.295  19.777  0.00  0.00    +0.000 S 
ATOM     13  O   UNL     1       4.144   5.211  19.331  0.00  0.00    +0.000 OA
ATOM     14  O   UNL     1       2.397   4.885  21.116  0.00  0.00    +0.000 OA
BRANCH  12  15
ATOM     15  N   UNL     1       1.812   4.401  18.681  0.00  0.00    +0.000 NA
ATOM     16  C   UNL     1       0.983   3.307  19.245  0.00  0.00    +0.000 C 
ATOM     17  C   UNL     1       1.800   2.047  19.042  0.00  0.00    +0.000 C 
ATOM     18  C   UNL     1       2.481   2.275  17.707  0.00  0.00    +0.000 C 
ATOM     19  C   UNL     1       2.612   3.790  17.568  0.00  0.00    +0.000 C 
ENDBRANCH  12  15
ENDBRANCH   9  12
ENDBRANCH   4   6
BRANCH   1  20
ATOM     20  S   UNL     1       1.048  14.698  18.637  0.00  0.00    +0.000 S 
BRANCH  20  21
ATOM     21  C   UNL     1       1.358  15.071  20.379  0.00  0.00    +0.000 C 
BRANCH  21  23
ATOM     22  N   UNL     1      -0.934  14.853  21.251  0.00  0.00    +0.000 N 
ATOM     23  C   UNL     1       0.363  14.349  21.280  0.00  0.00    +0.000 C 
ATOM     24  O   UNL     1       0.766  13.430  21.993  0.00  0.00    +0.000 OA
ATOM     25  H   UNL     1      -1.119  15.613  20.607  0.00  0.00    +0.000 HD
BRANCH  22  30
ATOM     26  C   UNL     1      -5.459  12.720  24.114  0.00  0.00    +0.000 C 
ATOM     27  C   UNL     1      -4.304  13.290  23.336  0.00  0.00    +0.000 A 
ATOM     28  C   UNL     1      -3.272  13.924  24.029  0.00  0.00    +0.000 A 
ATOM     29  C   UNL     1      -2.169  14.455  23.357  0.00  0.00    +0.000 A 
ATOM     30  C   UNL     1      -2.054  14.358  21.972  0.00  0.00    +0.000 A 
ATOM     31  C   UNL     1      -3.096  13.733  21.267  0.00  0.00    +0.000 A 
ATOM     32  C   UNL     1      -4.223  13.199  21.935  0.00  0.00    +0.000 A 
ATOM     33  C   UNL     1      -5.329  12.539  21.149  0.00  0.00    +0.000 C 
ENDBRANCH  22  30
ENDBRANCH  21  23
ENDBRANCH  20  21
ENDBRANCH   1  20
TORSDOF 7
ENDMDL
MODEL 9
REMARK VINA RESULT:      -7.7      1.109      1.225
REMARK  Name = 
REMARK  9 active torsions:
REMARK  status: ('A' for Active; 'I' for Inactive)
REMARK    1  A    between atoms: C_1  and  C_2
REMARK    2  A    between atoms: C_5  and  N_6
REMARK    3  A    between atoms: C_7  and  C_9
REMARK    4  A    between atoms: C_9  and  S_10
REMARK    5  A    between atoms: S_10  and  C_11
REMARK    6  A    between atoms: C_14  and  C_15
REMARK    7  A    between atoms: C_18  and  S_19
REMARK    8  A    between atoms: S_19  and  N_22
REMARK    9  A    between atoms: C_31  and  C_32
REMARK                            x       y       z     vdW  Elec       q    Type
REMARK                         _______ _______ _______ _____ _____    ______ ____
ROOT
ATOM      1  C   UNL     1       1.498   3.628  19.940  0.00  0.00    +0.000 A 
ATOM      2  N   UNL     1       2.308   3.705  20.976  0.00  0.00    +0.000 NA
ATOM      3  N   UNL     1       2.530   5.047  21.213  0.00  0.00    +0.000 NA
ATOM      4  C   UNL     1       1.832   5.708  20.313  0.00  0.00    +0.000 A 
ATOM      5  O   UNL     1       1.159   4.866  19.456  0.00  0.00    +0.000 OA
ENDROOT
BRANCH   4   6
ATOM      6  C   UNL     1       1.659   7.149  20.125  0.00  0.00    +0.000 A 
ATOM      7  C   UNL     1       1.106   7.937  21.150  0.00  0.00    +0.000 A 
ATOM      8  C   UNL     1       0.871   9.310  20.955  0.00  0.00    +0.000 A 
ATOM      9  C   UNL     1       1.194   9.900  19.733  0.00  0.00    +0.000 A 
ATOM     10  C   UNL     1       1.775   9.145  18.716  0.00  0.00    +0.000 A 
ATOM     11  C   UNL     1       2.003   7.775  18.916  0.00  0.00    +0.000 A 
BRANCH   9  12
ATOM     12  S   UNL     1       0.760  11.600  19.416  0.00  0.00    +0.000 S 
ATOM     13  O   UNL     1       1.996  12.319  19.230  0.00  0.00    +0.000 OA
ATOM     14  O   UNL     1      -0.274  11.612  18.400  0.00  0.00    +0.000 OA
BRANCH  12  15
ATOM     15  N   UNL     1       0.050  12.151  20.872  0.00  0.00    +0.000 NA
ATOM     16  C   UNL     1      -1.431  12.250  20.907  0.00  0.00    +0.000 C 
ATOM     17  C   UNL     1      -1.737  13.701  20.594  0.00  0.00    +0.000 C 
ATOM     18  C   UNL     1      -0.612  14.457  21.273  0.00  0.00    +0.000 C 
ATOM     19  C   UNL     1       0.570  13.490  21.303  0.00  0.00    +0.000 C 
ENDBRANCH  12  15
ENDBRANCH   9  12
ENDBRANCH   4   6
BRANCH   1  20
ATOM     20  S   UNL     1       0.915   2.118  19.300  0.00  0.00    +0.000 S 
BRANCH  20  21
ATOM     21  C   UNL     1       2.234   1.686  18.141  0.00  0.00    +0.000 C 
BRANCH  21  23
ATOM     22  N   UNL     1       3.978   3.402  18.409  0.00  0.00    +0.000 N 
ATOM     23  C   UNL     1       2.935   2.934  17.616  0.00  0.00    +0.000 C 
ATOM     24  O   UNL     1       2.514   3.463  16.589  0.00  0.00    +0.000 OA
ATOM     25  H   UNL     1       4.216   2.856  19.228  0.00  0.00    +0.000 HD
BRANCH  22  30
ATOM     26  C   UNL     1       7.447   7.873  17.316  0.00  0.00    +0.000 C 
ATOM     27  C   UNL     1       6.551   6.710  17.643  0.00  0.00    +0.000 A 
ATOM     28  C   UNL     1       5.339   6.581  16.963  0.00  0.00    +0.000 A 
ATOM     29  C   UNL     1       4.478   5.510  17.216  0.00  0.00    +0.000 A 
ATOM     30  C   UNL     1       4.807   4.527  18.146  0.00  0.00    +0.000 A 
ATOM     31  C   UNL     1       6.019   4.658  18.843  0.00  0.00    +0.000 A 
ATOM     32  C   UNL     1       6.895   5.742  18.603  0.00  0.00    +0.000 A 
ATOM     33  C   UNL     1       8.188   5.859  19.373  0.00  0.00    +0.000 C 
ENDBRANCH  22  30
ENDBRANCH  21  23
ENDBRANCH  20  21
ENDBRANCH   1  20
TORSDOF 7
ENDMDL
