MODEL 1
REMARK VINA RESULT:      -7.3      0.000      0.000
REMARK  Name = 
REMARK  10 active torsions:
REMARK  status: ('A' for Active; 'I' for Inactive)
REMARK    1  A    between atoms: C_1  and  C_2
REMARK    2  A    between atoms: C_2  and  O_3
REMARK    3  A    between atoms: O_3  and  C_4
REMARK    4  A    between atoms: C_4  and  C_6
REMARK    5  A    between atoms: C_12  and  C_13
REMARK    6  A    between atoms: C_16  and  N_17
REMARK    7  A    between atoms: N_17  and  C_18
REMARK    8  A    between atoms: C_18  and  C_19
REMARK    9  A    between atoms: C_19  and  C_20
REMARK   10  A    between atoms: C_20  and  N_21
REMARK                            x       y       z     vdW  Elec       q    Type
REMARK                         _______ _______ _______ _____ _____    ______ ____
ROOT
ATOM      1  C   UNL     1       3.216   4.212  18.267  0.00  0.00    +0.000 A 
ATOM      2  C   UNL     1       4.138   3.228  18.582  0.00  0.00    +0.000 A 
ATOM      3  N   UNL     1       5.468   3.431  18.643  0.00  0.00    +0.000 NA
ATOM      4  C   UNL     1       5.923   4.661  18.383  0.00  0.00    +0.000 A 
ATOM      5  C   UNL     1       7.302   4.822  18.423  0.00  0.00    +0.000 A 
ATOM      6  C   UNL     1       7.923   6.047  18.167  0.00  0.00    +0.000 A 
ATOM      7  C   UNL     1       7.146   7.146  17.858  0.00  0.00    +0.000 A 
ATOM      8  C   UNL     1       7.728   8.495  17.561  0.00  0.00    +0.000 C 
ATOM      9  C   UNL     1       5.754   6.988  17.816  0.00  0.00    +0.000 A 
ATOM     10  C   UNL     1       5.081   5.763  18.075  0.00  0.00    +0.000 A 
ATOM     11  C   UNL     1       3.659   5.536  18.018  0.00  0.00    +0.000 A 
ENDROOT
BRANCH   1  12
ATOM     12  C   UNL     1       1.818   3.732  18.161  0.00  0.00    +0.000 C 
ATOM     13  O   UNL     1       1.011   4.166  17.356  0.00  0.00    +0.000 OA
BRANCH  12  14
ATOM     14  O   UNL     1       1.534   2.921  19.216  0.00  0.00    +0.000 OA
BRANCH  14  16
ATOM     15  C   UNL     1       1.696   3.008  21.602  0.00  0.00    +0.000 C 
ATOM     16  C   UNL     1       1.010   3.590  20.375  0.00  0.00    +0.000 C 
ENDBRANCH  14  16
ENDBRANCH  12  14
ENDBRANCH   1  12
BRANCH  11  17
ATOM     17  N   UNL     1       2.676   6.519  17.867  0.00  0.00    +0.000 N 
ATOM     18  H   UNL     1       2.444   6.685  16.885  0.00  0.00    +0.000 HD
BRANCH  17  19
ATOM     19  C   UNL     1       2.302   7.628  18.727  0.00  0.00    +0.000 C 
BRANCH  19  20
ATOM     20  C   UNL     1       2.039   7.161  20.164  0.00  0.00    +0.000 C 
BRANCH  20  21
ATOM     21  C   UNL     1       1.608   8.342  21.034  0.00  0.00    +0.000 C 
BRANCH  21  22
ATOM     22  N   UNL     1       0.186   8.709  20.936  0.00  0.00    +0.000 NA
ATOM     23  C   UNL     1       0.071  10.101  20.433  0.00  0.00    +0.000 C 
ATOM     24  C   UNL     1       0.484  11.173  21.463  0.00  0.00    +0.000 C 
ATOM     25  O   UNL     1      -0.224  11.033  22.700  0.00  0.00    +0.000 OA
ATOM     26  C   UNL     1      -0.075   9.712  23.239  0.00  0.00    +0.000 C 
ATOM     27  C   UNL     1      -0.539   8.652  22.226  0.00  0.00    +0.000 C 
ENDBRANCH  21  22
ENDBRANCH  20  21
ENDBRANCH  19  20
ENDBRANCH  17  19
ENDBRANCH  11  17
TORSDOF 8
ENDMDL
MODEL 2
REMARK VINA RESULT:      -7.1      2.357      4.755
REMARK  Name = 
REMARK  10 active torsions:
REMARK  status: ('A' for Active; 'I' for Inactive)
REMARK    1  A    between atoms: C_1  and  C_2
REMARK    2  A    between atoms: C_2  and  O_3
REMARK    3  A    between atoms: O_3  and  C_4
REMARK    4  A    between atoms: C_4  and  C_6
REMARK    5  A    between atoms: C_12  and  C_13
REMARK    6  A    between atoms: C_16  and  N_17
REMARK    7  A    between atoms: N_17  and  C_18
REMARK    8  A    between atoms: C_18  and  C_19
REMARK    9  A    between atoms: C_19  and  C_20
REMARK   10  A    between atoms: C_20  and  N_21
REMARK                            x       y       z     vdW  Elec       q    Type
REMARK                         _______ _______ _______ _____ _____    ______ ____
ROOT
ATOM      1  C   UNL     1       4.561   5.540  17.006  0.00  0.00    +0.000 A 
ATOM      2  C   UNL     1       4.731   4.336  16.342  0.00  0.00    +0.000 A 
ATOM      3  N   UNL     1       4.236   3.160  16.772  0.00  0.00    +0.000 NA
ATOM      4  C   UNL     1       3.535   3.158  17.910  0.00  0.00    +0.000 A 
ATOM      5  C   UNL     1       3.069   1.921  18.337  0.00  0.00    +0.000 A 
ATOM      6  C   UNL     1       2.328   1.761  19.510  0.00  0.00    +0.000 A 
ATOM      7  C   UNL     1       2.044   2.869  20.286  0.00  0.00    +0.000 A 
ATOM      8  C   UNL     1       1.264   2.789  21.563  0.00  0.00    +0.000 C 
ATOM      9  C   UNL     1       2.513   4.119  19.858  0.00  0.00    +0.000 A 
ATOM     10  C   UNL     1       3.264   4.327  18.670  0.00  0.00    +0.000 A 
ATOM     11  C   UNL     1       3.795   5.581  18.199  0.00  0.00    +0.000 A 
ENDROOT
BRANCH   1  12
ATOM     12  C   UNL     1       5.283   6.683  16.399  0.00  0.00    +0.000 C 
ATOM     13  O   UNL     1       5.389   6.856  15.196  0.00  0.00    +0.000 OA
BRANCH  12  14
ATOM     14  O   UNL     1       5.967   7.353  17.365  0.00  0.00    +0.000 OA
BRANCH  14  16
ATOM     15  C   UNL     1       8.041   8.476  17.771  0.00  0.00    +0.000 C 
ATOM     16  C   UNL     1       7.393   7.169  17.340  0.00  0.00    +0.000 C 
ENDBRANCH  14  16
ENDBRANCH  12  14
ENDBRANCH   1  12
BRANCH  11  17
ATOM     17  N   UNL     1       3.519   6.843  18.735  0.00  0.00    +0.000 N 
ATOM     18  H   UNL     1       4.201   7.117  19.446  0.00  0.00    +0.000 HD
BRANCH  17  19
ATOM     19  C   UNL     1       2.271   7.578  18.843  0.00  0.00    +0.000 C 
BRANCH  19  20
ATOM     20  C   UNL     1       2.137   8.624  17.729  0.00  0.00    +0.000 C 
BRANCH  20  21
ATOM     21  C   UNL     1       1.617   9.943  18.302  0.00  0.00    +0.000 C 
BRANCH  21  22
ATOM     22  N   UNL     1       0.479   9.821  19.228  0.00  0.00    +0.000 NA
ATOM     23  C   UNL     1      -0.722  10.440  18.613  0.00  0.00    +0.000 C 
ATOM     24  C   UNL     1      -0.673  11.981  18.558  0.00  0.00    +0.000 C 
ATOM     25  O   UNL     1      -0.421  12.559  19.844  0.00  0.00    +0.000 OA
ATOM     26  C   UNL     1       0.773  12.022  20.432  0.00  0.00    +0.000 C 
ATOM     27  C   UNL     1       0.693  10.490  20.532  0.00  0.00    +0.000 C 
ENDBRANCH  21  22
ENDBRANCH  20  21
ENDBRANCH  19  20
ENDBRANCH  17  19
ENDBRANCH  11  17
TORSDOF 8
ENDMDL
MODEL 3
REMARK VINA RESULT:      -7.1      1.243      1.597
REMARK  Name = 
REMARK  10 active torsions:
REMARK  status: ('A' for Active; 'I' for Inactive)
REMARK    1  A    between atoms: C_1  and  C_2
REMARK    2  A    between atoms: C_2  and  O_3
REMARK    3  A    between atoms: O_3  and  C_4
REMARK    4  A    between atoms: C_4  and  C_6
REMARK    5  A    between atoms: C_12  and  C_13
REMARK    6  A    between atoms: C_16  and  N_17
REMARK    7  A    between atoms: N_17  and  C_18
REMARK    8  A    between atoms: C_18  and  C_19
REMARK    9  A    between atoms: C_19  and  C_20
REMARK   10  A    between atoms: C_20  and  N_21
REMARK                            x       y       z     vdW  Elec       q    Type
REMARK                         _______ _______ _______ _____ _____    ______ ____
ROOT
ATOM      1  C   UNL     1       3.346   4.336  18.236  0.00  0.00    +0.000 A 
ATOM      2  C   UNL     1       4.269   3.387  18.643  0.00  0.00    +0.000 A 
ATOM      3  N   UNL     1       5.590   3.622  18.759  0.00  0.00    +0.000 NA
ATOM      4  C   UNL     1       6.034   4.847  18.464  0.00  0.00    +0.000 A 
ATOM      5  C   UNL     1       7.407   5.040  18.565  0.00  0.00    +0.000 A 
ATOM      6  C   UNL     1       8.016   6.265  18.283  0.00  0.00    +0.000 A 
ATOM      7  C   UNL     1       7.234   7.332  17.885  0.00  0.00    +0.000 A 
ATOM      8  C   UNL     1       7.805   8.677  17.553  0.00  0.00    +0.000 C 
ATOM      9  C   UNL     1       5.850   7.142  17.782  0.00  0.00    +0.000 A 
ATOM     10  C   UNL     1       5.188   5.917  18.065  0.00  0.00    +0.000 A 
ATOM     11  C   UNL     1       3.776   5.656  17.948  0.00  0.00    +0.000 A 
ENDROOT
BRANCH   1  12
ATOM     12  C   UNL     1       1.964   3.821  18.084  0.00  0.00    +0.000 C 
ATOM     13  O   UNL     1       1.131   4.323  17.347  0.00  0.00    +0.000 OA
BRANCH  12  14
ATOM     14  O   UNL     1       1.724   2.876  19.032  0.00  0.00    +0.000 OA
BRANCH  14  16
ATOM     15  C   UNL     1       1.654   3.101  21.413  0.00  0.00    +0.000 C 
ATOM     16  C   UNL     1       0.882   3.300  20.117  0.00  0.00    +0.000 C 
ENDBRANCH  14  16
ENDBRANCH  12  14
ENDBRANCH   1  12
BRANCH  11  17
ATOM     17  N   UNL     1       2.783   6.610  17.702  0.00  0.00    +0.000 N 
ATOM     18  H   UNL     1       2.662   6.793  16.704  0.00  0.00    +0.000 HD
BRANCH  17  19
ATOM     19  C   UNL     1       2.271   7.685  18.536  0.00  0.00    +0.000 C 
BRANCH  19  20
ATOM     20  C   UNL     1       1.744   8.850  17.688  0.00  0.00    +0.000 C 
BRANCH  20  21
ATOM     21  C   UNL     1       1.492  10.073  18.571  0.00  0.00    +0.000 C 
BRANCH  21  22
ATOM     22  N   UNL     1       0.424   9.916  19.572  0.00  0.00    +0.000 NA
ATOM     23  C   UNL     1      -0.866  10.366  18.989  0.00  0.00    +0.000 C 
ATOM     24  C   UNL     1      -0.975  11.895  18.817  0.00  0.00    +0.000 C 
ATOM     25  O   UNL     1      -0.712  12.595  20.039  0.00  0.00    +0.000 OA
ATOM     26  C   UNL     1       0.560  12.225  20.589  0.00  0.00    +0.000 C 
ATOM     27  C   UNL     1       0.640  10.705  20.807  0.00  0.00    +0.000 C 
ENDBRANCH  21  22
ENDBRANCH  20  21
ENDBRANCH  19  20
ENDBRANCH  17  19
ENDBRANCH  11  17
TORSDOF 8
ENDMDL
MODEL 4
REMARK VINA RESULT:      -7.0      2.249      4.552
REMARK  Name = 
REMARK  10 active torsions:
REMARK  status: ('A' for Active; 'I' for Inactive)
REMARK    1  A    between atoms: C_1  and  C_2
REMARK    2  A    between atoms: C_2  and  O_3
REMARK    3  A    between atoms: O_3  and  C_4
REMARK    4  A    between atoms: C_4  and  C_6
REMARK    5  A    between atoms: C_12  and  C_13
REMARK    6  A    between atoms: C_16  and  N_17
REMARK    7  A    between atoms: N_17  and  C_18
REMARK    8  A    between atoms: C_18  and  C_19
REMARK    9  A    between atoms: C_19  and  C_20
REMARK   10  A    between atoms: C_20  and  N_21
REMARK                            x       y       z     vdW  Elec       q    Type
REMARK                         _______ _______ _______ _____ _____    ______ ____
ROOT
ATOM      1  C   UNL     1       4.720   5.393  16.818  0.00  0.00    +0.000 A 
ATOM      2  C   UNL     1       4.880   4.147  16.235  0.00  0.00    +0.000 A 
ATOM      3  N   UNL     1       4.347   3.011  16.725  0.00  0.00    +0.000 NA
ATOM      4  C   UNL     1       3.619   3.095  17.843  0.00  0.00    +0.000 A 
ATOM      5  C   UNL     1       3.115   1.897  18.334  0.00  0.00    +0.000 A 
ATOM      6  C   UNL     1       2.342   1.828  19.495  0.00  0.00    +0.000 A 
ATOM      7  C   UNL     1       2.064   2.988  20.192  0.00  0.00    +0.000 A 
ATOM      8  C   UNL     1       1.251   3.005  21.451  0.00  0.00    +0.000 C 
ATOM      9  C   UNL     1       2.571   4.198  19.699  0.00  0.00    +0.000 A 
ATOM     10  C   UNL     1       3.355   4.315  18.521  0.00  0.00    +0.000 A 
ATOM     11  C   UNL     1       3.926   5.526  17.986  0.00  0.00    +0.000 A 
ENDROOT
BRANCH   1  12
ATOM     12  C   UNL     1       5.481   6.480  16.159  0.00  0.00    +0.000 C 
ATOM     13  O   UNL     1       4.993   7.264  15.362  0.00  0.00    +0.000 OA
BRANCH  12  14
ATOM     14  O   UNL     1       6.809   6.323  16.411  0.00  0.00    +0.000 OA
BRANCH  14  16
ATOM     15  C   UNL     1       7.729   6.287  18.619  0.00  0.00    +0.000 C 
ATOM     16  C   UNL     1       7.338   7.171  17.444  0.00  0.00    +0.000 C 
ENDBRANCH  14  16
ENDBRANCH  12  14
ENDBRANCH   1  12
BRANCH  11  17
ATOM     17  N   UNL     1       3.665   6.825  18.434  0.00  0.00    +0.000 N 
ATOM     18  H   UNL     1       4.474   7.240  18.902  0.00  0.00    +0.000 HD
BRANCH  17  19
ATOM     19  C   UNL     1       2.415   7.474  18.791  0.00  0.00    +0.000 C 
BRANCH  19  20
ATOM     20  C   UNL     1       1.982   8.482  17.720  0.00  0.00    +0.000 C 
BRANCH  20  21
ATOM     21  C   UNL     1       1.983   9.899  18.296  0.00  0.00    +0.000 C 
BRANCH  21  22
ATOM     22  N   UNL     1       0.657  10.443  18.631  0.00  0.00    +0.000 NA
ATOM     23  C   UNL     1       0.768  11.908  18.848  0.00  0.00    +0.000 C 
ATOM     24  C   UNL     1       1.479  12.292  20.162  0.00  0.00    +0.000 C 
ATOM     25  O   UNL     1       0.881  11.665  21.303  0.00  0.00    +0.000 OA
ATOM     26  C   UNL     1       0.822  10.241  21.143  0.00  0.00    +0.000 C 
ATOM     27  C   UNL     1       0.065   9.865  19.859  0.00  0.00    +0.000 C 
ENDBRANCH  21  22
ENDBRANCH  20  21
ENDBRANCH  19  20
ENDBRANCH  17  19
ENDBRANCH  11  17
TORSDOF 8
ENDMDL
MODEL 5
REMARK VINA RESULT:      -7.0      1.368      1.932
REMARK  Name = 
REMARK  10 active torsions:
REMARK  status: ('A' for Active; 'I' for Inactive)
REMARK    1  A    between atoms: C_1  and  C_2
REMARK    2  A    between atoms: C_2  and  O_3
REMARK    3  A    between atoms: O_3  and  C_4
REMARK    4  A    between atoms: C_4  and  C_6
REMARK    5  A    between atoms: C_12  and  C_13
REMARK    6  A    between atoms: C_16  and  N_17
REMARK    7  A    between atoms: N_17  and  C_18
REMARK    8  A    between atoms: C_18  and  C_19
REMARK    9  A    between atoms: C_19  and  C_20
REMARK   10  A    between atoms: C_20  and  N_21
REMARK                            x       y       z     vdW  Elec       q    Type
REMARK                         _______ _______ _______ _____ _____    ______ ____
ROOT
ATOM      1  C   UNL     1       3.247   4.563  18.420  0.00  0.00    +0.000 A 
ATOM      2  C   UNL     1       4.117   3.579  18.857  0.00  0.00    +0.000 A 
ATOM      3  N   UNL     1       5.451   3.736  18.948  0.00  0.00    +0.000 NA
ATOM      4  C   UNL     1       5.965   4.918  18.594  0.00  0.00    +0.000 A 
ATOM      5  C   UNL     1       7.348   5.030  18.670  0.00  0.00    +0.000 A 
ATOM      6  C   UNL     1       8.027   6.202  18.327  0.00  0.00    +0.000 A 
ATOM      7  C   UNL     1       7.305   7.297  17.891  0.00  0.00    +0.000 A 
ATOM      8  C   UNL     1       7.952   8.589  17.493  0.00  0.00    +0.000 C 
ATOM      9  C   UNL     1       5.910   7.188  17.812  0.00  0.00    +0.000 A 
ATOM     10  C   UNL     1       5.180   6.019  18.157  0.00  0.00    +0.000 A 
ATOM     11  C   UNL     1       3.753   5.841  18.068  0.00  0.00    +0.000 A 
ENDROOT
BRANCH   1  12
ATOM     12  C   UNL     1       1.835   4.129  18.307  0.00  0.00    +0.000 C 
ATOM     13  O   UNL     1       1.289   3.865  17.249  0.00  0.00    +0.000 OA
BRANCH  12  14
ATOM     14  O   UNL     1       1.213   4.285  19.508  0.00  0.00    +0.000 OA
BRANCH  14  16
ATOM     15  C   UNL     1       1.521   2.858  21.403  0.00  0.00    +0.000 C 
ATOM     16  C   UNL     1       0.744   3.069  20.113  0.00  0.00    +0.000 C 
ENDBRANCH  14  16
ENDBRANCH  12  14
ENDBRANCH   1  12
BRANCH  11  17
ATOM     17  N   UNL     1       2.816   6.843  17.792  0.00  0.00    +0.000 N 
ATOM     18  H   UNL     1       2.801   7.095  16.802  0.00  0.00    +0.000 HD
BRANCH  17  19
ATOM     19  C   UNL     1       2.253   7.878  18.643  0.00  0.00    +0.000 C 
BRANCH  19  20
ATOM     20  C   UNL     1       2.025   9.180  17.866  0.00  0.00    +0.000 C 
BRANCH  20  21
ATOM     21  C   UNL     1       0.819   9.929  18.433  0.00  0.00    +0.000 C 
BRANCH  21  22
ATOM     22  N   UNL     1       1.134  11.167  19.163  0.00  0.00    +0.000 NA
ATOM     23  C   UNL     1       0.820  10.982  20.603  0.00  0.00    +0.000 C 
ATOM     24  C   UNL     1      -0.691  10.945  20.913  0.00  0.00    +0.000 C 
ATOM     25  O   UNL     1      -1.375  12.095  20.401  0.00  0.00    +0.000 OA
ATOM     26  C   UNL     1      -1.138  12.258  18.996  0.00  0.00    +0.000 C 
ATOM     27  C   UNL     1       0.368  12.348  18.701  0.00  0.00    +0.000 C 
ENDBRANCH  21  22
ENDBRANCH  20  21
ENDBRANCH  19  20
ENDBRANCH  17  19
ENDBRANCH  11  17
TORSDOF 8
ENDMDL
MODEL 6
REMARK VINA RESULT:      -6.9      2.420      4.653
REMARK  Name = 
REMARK  10 active torsions:
REMARK  status: ('A' for Active; 'I' for Inactive)
REMARK    1  A    between atoms: C_1  and  C_2
REMARK    2  A    between atoms: C_2  and  O_3
REMARK    3  A    between atoms: O_3  and  C_4
REMARK    4  A    between atoms: C_4  and  C_6
REMARK    5  A    between atoms: C_12  and  C_13
REMARK    6  A    between atoms: C_16  and  N_17
REMARK    7  A    between atoms: N_17  and  C_18
REMARK    8  A    between atoms: C_18  and  C_19
REMARK    9  A    between atoms: C_19  and  C_20
REMARK   10  A    between atoms: C_20  and  N_21
REMARK                            x       y       z     vdW  Elec       q    Type
REMARK                         _______ _______ _______ _____ _____    ______ ____
ROOT
ATOM      1  C   UNL     1       4.582   5.535  16.977  0.00  0.00    +0.000 A 
ATOM      2  C   UNL     1       4.753   4.324  16.328  0.00  0.00    +0.000 A 
ATOM      3  N   UNL     1       4.251   3.154  16.768  0.00  0.00    +0.000 NA
ATOM      4  C   UNL     1       3.544   3.166  17.902  0.00  0.00    +0.000 A 
ATOM      5  C   UNL     1       3.072   1.935  18.339  0.00  0.00    +0.000 A 
ATOM      6  C   UNL     1       2.324   1.790  19.510  0.00  0.00    +0.000 A 
ATOM      7  C   UNL     1       2.039   2.907  20.271  0.00  0.00    +0.000 A 
ATOM      8  C   UNL     1       1.252   2.843  21.545  0.00  0.00    +0.000 C 
ATOM      9  C   UNL     1       2.513   4.151  19.833  0.00  0.00    +0.000 A 
ATOM     10  C   UNL     1       3.272   4.344  18.647  0.00  0.00    +0.000 A 
ATOM     11  C   UNL     1       3.809   5.591  18.165  0.00  0.00    +0.000 A 
ENDROOT
BRANCH   1  12
ATOM     12  C   UNL     1       5.310   6.669  16.362  0.00  0.00    +0.000 C 
ATOM     13  O   UNL     1       5.384   6.855  15.159  0.00  0.00    +0.000 OA
BRANCH  12  14
ATOM     14  O   UNL     1       6.039   7.312  17.314  0.00  0.00    +0.000 OA
BRANCH  14  16
ATOM     15  C   UNL     1       7.714   6.237  18.642  0.00  0.00    +0.000 C 
ATOM     16  C   UNL     1       7.436   6.976  17.342  0.00  0.00    +0.000 C 
ENDBRANCH  14  16
ENDBRANCH  12  14
ENDBRANCH   1  12
BRANCH  11  17
ATOM     17  N   UNL     1       3.534   6.860  18.686  0.00  0.00    +0.000 N 
ATOM     18  H   UNL     1       4.045   7.040  19.554  0.00  0.00    +0.000 HD
BRANCH  17  19
ATOM     19  C   UNL     1       2.374   7.720  18.530  0.00  0.00    +0.000 C 
BRANCH  19  20
ATOM     20  C   UNL     1       1.647   7.931  19.864  0.00  0.00    +0.000 C 
BRANCH  20  21
ATOM     21  C   UNL     1       1.107   9.359  19.952  0.00  0.00    +0.000 C 
BRANCH  21  22
ATOM     22  N   UNL     1       0.918  10.040  18.661  0.00  0.00    +0.000 NA
ATOM     23  C   UNL     1       1.501  11.404  18.735  0.00  0.00    +0.000 C 
ATOM     24  C   UNL     1       0.685  12.386  19.601  0.00  0.00    +0.000 C 
ATOM     25  O   UNL     1      -0.687  12.454  19.193  0.00  0.00    +0.000 OA
ATOM     26  C   UNL     1      -1.291  11.153  19.176  0.00  0.00    +0.000 C 
ATOM     27  C   UNL     1      -0.502  10.195  18.268  0.00  0.00    +0.000 C 
ENDBRANCH  21  22
ENDBRANCH  20  21
ENDBRANCH  19  20
ENDBRANCH  17  19
ENDBRANCH  11  17
TORSDOF 8
ENDMDL
MODEL 7
REMARK VINA RESULT:      -6.9      3.584      5.655
REMARK  Name = 
REMARK  10 active torsions:
REMARK  status: ('A' for Active; 'I' for Inactive)
REMARK    1  A    between atoms: C_1  and  C_2
REMARK    2  A    between atoms: C_2  and  O_3
REMARK    3  A    between atoms: O_3  and  C_4
REMARK    4  A    between atoms: C_4  and  C_6
REMARK    5  A    between atoms: C_12  and  C_13
REMARK    6  A    between atoms: C_16  and  N_17
REMARK    7  A    between atoms: N_17  and  C_18
REMARK    8  A    between atoms: C_18  and  C_19
REMARK    9  A    between atoms: C_19  and  C_20
REMARK   10  A    between atoms: C_20  and  N_21
REMARK                            x       y       z     vdW  Elec       q    Type
REMARK                         _______ _______ _______ _____ _____    ______ ____
ROOT
ATOM      1  C   UNL     1       6.043   4.998  17.065  0.00  0.00    +0.000 A 
ATOM      2  C   UNL     1       7.121   5.756  16.639  0.00  0.00    +0.000 A 
ATOM      3  N   UNL     1       7.599   5.750  15.380  0.00  0.00    +0.000 NA
ATOM      4  C   UNL     1       6.991   4.962  14.487  0.00  0.00    +0.000 A 
ATOM      5  C   UNL     1       7.534   4.958  13.208  0.00  0.00    +0.000 A 
ATOM      6  C   UNL     1       7.010   4.181  12.172  0.00  0.00    +0.000 A 
ATOM      7  C   UNL     1       5.912   3.378  12.419  0.00  0.00    +0.000 A 
ATOM      8  C   UNL     1       5.292   2.506  11.371  0.00  0.00    +0.000 C 
ATOM      9  C   UNL     1       5.362   3.379  13.708  0.00  0.00    +0.000 A 
ATOM     10  C   UNL     1       5.859   4.158  14.788  0.00  0.00    +0.000 A 
ATOM     11  C   UNL     1       5.353   4.176  16.137  0.00  0.00    +0.000 A 
ENDROOT
BRANCH   1  12
ATOM     12  C   UNL     1       5.763   5.091  18.517  0.00  0.00    +0.000 C 
ATOM     13  O   UNL     1       5.856   4.149  19.287  0.00  0.00    +0.000 OA
BRANCH  12  14
ATOM     14  O   UNL     1       5.192   6.294  18.794  0.00  0.00    +0.000 OA
BRANCH  14  16
ATOM     15  C   UNL     1       3.386   7.416  17.696  0.00  0.00    +0.000 C 
ATOM     16  C   UNL     1       3.758   6.326  18.691  0.00  0.00    +0.000 C 
ENDBRANCH  14  16
ENDBRANCH  12  14
ENDBRANCH   1  12
BRANCH  11  17
ATOM     17  N   UNL     1       4.178   3.563  16.582  0.00  0.00    +0.000 N 
ATOM     18  H   UNL     1       3.498   4.241  16.934  0.00  0.00    +0.000 HD
BRANCH  17  19
ATOM     19  C   UNL     1       3.936   2.218  17.076  0.00  0.00    +0.000 C 
BRANCH  19  20
ATOM     20  C   UNL     1       2.625   2.138  17.867  0.00  0.00    +0.000 C 
BRANCH  20  21
ATOM     21  C   UNL     1       2.918   2.027  19.364  0.00  0.00    +0.000 C 
BRANCH  21  22
ATOM     22  N   UNL     1       1.739   2.105  20.243  0.00  0.00    +0.000 NA
ATOM     23  C   UNL     1       0.703   2.954  19.602  0.00  0.00    +0.000 C 
ATOM     24  C   UNL     1       1.046   4.458  19.593  0.00  0.00    +0.000 C 
ATOM     25  O   UNL     1       1.349   4.950  20.905  0.00  0.00    +0.000 OA
ATOM     26  C   UNL     1       2.393   4.184  21.520  0.00  0.00    +0.000 C 
ATOM     27  C   UNL     1       2.020   2.693  21.573  0.00  0.00    +0.000 C 
ENDBRANCH  21  22
ENDBRANCH  20  21
ENDBRANCH  19  20
ENDBRANCH  17  19
ENDBRANCH  11  17
TORSDOF 8
ENDMDL
MODEL 8
REMARK VINA RESULT:      -6.9      3.454      5.508
REMARK  Name = 
REMARK  10 active torsions:
REMARK  status: ('A' for Active; 'I' for Inactive)
REMARK    1  A    between atoms: C_1  and  C_2
REMARK    2  A    between atoms: C_2  and  O_3
REMARK    3  A    between atoms: O_3  and  C_4
REMARK    4  A    between atoms: C_4  and  C_6
REMARK    5  A    between atoms: C_12  and  C_13
REMARK    6  A    between atoms: C_16  and  N_17
REMARK    7  A    between atoms: N_17  and  C_18
REMARK    8  A    between atoms: C_18  and  C_19
REMARK    9  A    between atoms: C_19  and  C_20
REMARK   10  A    between atoms: C_20  and  N_21
REMARK                            x       y       z     vdW  Elec       q    Type
REMARK                         _______ _______ _______ _____ _____    ______ ____
ROOT
ATOM      1  C   UNL     1       5.935   5.249  17.238  0.00  0.00    +0.000 A 
ATOM      2  C   UNL     1       7.044   5.982  16.851  0.00  0.00    +0.000 A 
ATOM      3  N   UNL     1       7.595   5.926  15.623  0.00  0.00    +0.000 NA
ATOM      4  C   UNL     1       7.033   5.112  14.725  0.00  0.00    +0.000 A 
ATOM      5  C   UNL     1       7.650   5.058  13.481  0.00  0.00    +0.000 A 
ATOM      6  C   UNL     1       7.181   4.248  12.444  0.00  0.00    +0.000 A 
ATOM      7  C   UNL     1       6.062   3.464  12.653  0.00  0.00    +0.000 A 
ATOM      8  C   UNL     1       5.496   2.559  11.601  0.00  0.00    +0.000 C 
ATOM      9  C   UNL     1       5.437   3.516  13.907  0.00  0.00    +0.000 A 
ATOM     10  C   UNL     1       5.877   4.329  14.985  0.00  0.00    +0.000 A 
ATOM     11  C   UNL     1       5.292   4.400  16.301  0.00  0.00    +0.000 A 
ENDROOT
BRANCH   1  12
ATOM     12  C   UNL     1       5.570   5.396  18.667  0.00  0.00    +0.000 C 
ATOM     13  O   UNL     1       6.295   5.063  19.590  0.00  0.00    +0.000 OA
BRANCH  12  14
ATOM     14  O   UNL     1       4.258   5.741  18.768  0.00  0.00    +0.000 OA
BRANCH  14  16
ATOM     15  C   UNL     1       2.522   7.382  18.633  0.00  0.00    +0.000 C 
ATOM     16  C   UNL     1       3.903   6.981  18.135  0.00  0.00    +0.000 C 
ENDBRANCH  14  16
ENDBRANCH  12  14
ENDBRANCH   1  12
BRANCH  11  17
ATOM     17  N   UNL     1       4.086   3.813  16.696  0.00  0.00    +0.000 N 
ATOM     18  H   UNL     1       3.481   4.471  17.192  0.00  0.00    +0.000 HD
BRANCH  17  19
ATOM     19  C   UNL     1       3.749   2.426  16.969  0.00  0.00    +0.000 C 
BRANCH  19  20
ATOM     20  C   UNL     1       3.024   2.278  18.312  0.00  0.00    +0.000 C 
BRANCH  20  21
ATOM     21  C   UNL     1       2.023   3.419  18.501  0.00  0.00    +0.000 C 
BRANCH  21  22
ATOM     22  N   UNL     1       1.026   3.211  19.563  0.00  0.00    +0.000 NA
ATOM     23  C   UNL     1       0.845   4.476  20.321  0.00  0.00    +0.000 C 
ATOM     24  C   UNL     1       2.037   4.834  21.232  0.00  0.00    +0.000 C 
ATOM     25  O   UNL     1       2.374   3.765  22.124  0.00  0.00    +0.000 OA
ATOM     26  C   UNL     1       2.617   2.546  21.409  0.00  0.00    +0.000 C 
ATOM     27  C   UNL     1       1.403   2.167  20.544  0.00  0.00    +0.000 C 
ENDBRANCH  21  22
ENDBRANCH  20  21
ENDBRANCH  19  20
ENDBRANCH  17  19
ENDBRANCH  11  17
TORSDOF 8
ENDMDL
MODEL 9
REMARK VINA RESULT:      -6.9      1.848      2.215
REMARK  Name = 
REMARK  10 active torsions:
REMARK  status: ('A' for Active; 'I' for Inactive)
REMARK    1  A    between atoms: C_1  and  C_2
REMARK    2  A    between atoms: C_2  and  O_3
REMARK    3  A    between atoms: O_3  and  C_4
REMARK    4  A    between atoms: C_4  and  C_6
REMARK    5  A    between atoms: C_12  and  C_13
REMARK    6  A    between atoms: C_16  and  N_17
REMARK    7  A    between atoms: N_17  and  C_18
REMARK    8  A    between atoms: C_18  and  C_19
REMARK    9  A    between atoms: C_19  and  C_20
REMARK   10  A    between atoms: C_20  and  N_21
REMARK                            x       y       z     vdW  Elec       q    Type
REMARK                         _______ _______ _______ _____ _____    ______ ____
ROOT
ATOM      1  C   UNL     1       2.916   4.413  17.878  0.00  0.00    +0.000 A 
ATOM      2  C   UNL     1       3.508   3.544  16.977  0.00  0.00    +0.000 A 
ATOM      3  N   UNL     1       4.731   3.728  16.444  0.00  0.00    +0.000 NA
ATOM      4  C   UNL     1       5.414   4.817  16.811  0.00  0.00    +0.000 A 
ATOM      5  C   UNL     1       6.657   4.988  16.214  0.00  0.00    +0.000 A 
ATOM      6  C   UNL     1       7.481   6.081  16.494  0.00  0.00    +0.000 A 
ATOM      7  C   UNL     1       7.052   7.037  17.395  0.00  0.00    +0.000 A 
ATOM      8  C   UNL     1       7.865   8.245  17.746  0.00  0.00    +0.000 C 
ATOM      9  C   UNL     1       5.798   6.868  17.999  0.00  0.00    +0.000 A 
ATOM     10  C   UNL     1       4.932   5.770  17.748  0.00  0.00    +0.000 A 
ATOM     11  C   UNL     1       3.624   5.561  18.316  0.00  0.00    +0.000 A 
ENDROOT
BRANCH   1  12
ATOM     12  C   UNL     1       1.526   4.058  18.250  0.00  0.00    +0.000 C 
ATOM     13  O   UNL     1       0.610   3.976  17.448  0.00  0.00    +0.000 OA
BRANCH  12  14
ATOM     14  O   UNL     1       1.402   4.059  19.604  0.00  0.00    +0.000 OA
BRANCH  14  16
ATOM     15  C   UNL     1       2.064   3.050  21.670  0.00  0.00    +0.000 C 
ATOM     16  C   UNL     1       1.622   2.788  20.238  0.00  0.00    +0.000 C 
ENDBRANCH  14  16
ENDBRANCH  12  14
ENDBRANCH   1  12
BRANCH  11  17
ATOM     17  N   UNL     1       3.047   6.311  19.346  0.00  0.00    +0.000 N 
ATOM     18  H   UNL     1       2.894   5.754  20.189  0.00  0.00    +0.000 HD
BRANCH  17  19
ATOM     19  C   UNL     1       2.218   7.504  19.303  0.00  0.00    +0.000 C 
BRANCH  19  20
ATOM     20  C   UNL     1       2.353   8.233  17.961  0.00  0.00    +0.000 C 
BRANCH  20  21
ATOM     21  C   UNL     1       1.360   9.394  17.888  0.00  0.00    +0.000 C 
BRANCH  21  22
ATOM     22  N   UNL     1       0.860   9.876  19.185  0.00  0.00    +0.000 NA
ATOM     23  C   UNL     1      -0.620   9.987  19.132  0.00  0.00    +0.000 C 
ATOM     24  C   UNL     1      -1.127  11.163  18.271  0.00  0.00    +0.000 C 
ATOM     25  O   UNL     1      -0.551  12.412  18.671  0.00  0.00    +0.000 OA
ATOM     26  C   UNL     1       0.882  12.349  18.669  0.00  0.00    +0.000 C 
ATOM     27  C   UNL     1       1.382  11.209  19.571  0.00  0.00    +0.000 C 
ENDBRANCH  21  22
ENDBRANCH  20  21
ENDBRANCH  19  20
ENDBRANCH  17  19
ENDBRANCH  11  17
TORSDOF 8
ENDMDL
