MODEL 1
REMARK VINA RESULT:      -7.2      0.000      0.000
REMARK  Name = 
REMARK  7 active torsions:
REMARK  status: ('A' for Active; 'I' for Inactive)
REMARK    1  A    between atoms: C_1  and  C_2
REMARK    2  A    between atoms: C_2  and  O_3
REMARK    3  A    between atoms: O_3  and  C_4
REMARK    4  A    between atoms: C_9  and  N_10
REMARK    5  A    between atoms: C_14  and  S_15
REMARK    6  A    between atoms: N_16  and  C_17
REMARK    7  A    between atoms: C_17  and  C_18
REMARK                            x       y       z     vdW  Elec       q    Type
REMARK                         _______ _______ _______ _____ _____    ______ ____
ROOT
ATOM      1  N   UNL     1      -0.858  11.323  21.836  0.00  0.00    +0.000 N 
ATOM      2  C   UNL     1      -1.043  11.191  20.377  0.00  0.00    +0.000 C 
ATOM      3  C   UNL     1       0.309  10.871  19.714  0.00  0.00    +0.000 C 
ATOM      4  N   UNL     1       0.879   9.621  20.231  0.00  0.00    +0.000 N 
ATOM      5  C   UNL     1       1.645   8.723  19.507  0.00  0.00    +0.000 C 
ATOM      6  N   UNL     1       2.070   7.645  20.072  0.00  0.00    +0.000 NA
ATOM      7  C   UNL     1       0.933   9.576  21.714  0.00  0.00    +0.000 C 
ATOM      8  C   UNL     1      -0.387  10.025  22.388  0.00  0.00    +0.000 C 
ENDROOT
BRANCH   1  14
ATOM      9  C   UNL     1      -0.928  13.555  22.999  0.00  0.00    +0.000 A 
ATOM     10  C   UNL     1      -1.653  14.482  23.780  0.00  0.00    +0.000 A 
ATOM     11  C   UNL     1      -2.901  14.170  24.294  0.00  0.00    +0.000 A 
ATOM     12  C   UNL     1      -3.447  12.935  24.010  0.00  0.00    +0.000 A 
ATOM     13  C   UNL     1      -2.757  12.034  23.187  0.00  0.00    +0.000 A 
ATOM     14  C   UNL     1      -1.485  12.297  22.619  0.00  0.00    +0.000 A 
BRANCH   9  15
ATOM     15  O   UNL     1       0.336  13.895  22.577  0.00  0.00    +0.000 OA
BRANCH  15  17
ATOM     16  C   UNL     1      -0.081  14.906  20.448  0.00  0.00    +0.000 C 
ATOM     17  C   UNL     1       0.479  15.114  21.845  0.00  0.00    +0.000 C 
ENDBRANCH  15  17
ENDBRANCH   9  15
ENDBRANCH   1  14
BRANCH   5  18
ATOM     18  S   UNL     1       2.012   9.073  17.814  0.00  0.00    +0.000 S 
ATOM     19  H   UNL     1       0.796   9.495  17.455  0.00  0.00    +0.000 HD
ENDBRANCH   5  18
BRANCH   6  20
ATOM     20  C   UNL     1       2.851   6.643  19.363  0.00  0.00    +0.000 C 
BRANCH  20  21
ATOM     21  C   UNL     1       2.164   5.297  19.443  0.00  0.00    +0.000 A 
ATOM     22  C   UNL     1       1.907   4.570  18.270  0.00  0.00    +0.000 A 
ATOM     23  C   UNL     1       1.260   3.335  18.328  0.00  0.00    +0.000 A 
ATOM     24  C   UNL     1       0.865   2.816  19.559  0.00  0.00    +0.000 A 
ATOM     25  C   UNL     1       1.116   3.529  20.731  0.00  0.00    +0.000 A 
ATOM     26  C   UNL     1       1.764   4.765  20.675  0.00  0.00    +0.000 A 
ENDBRANCH  20  21
ENDBRANCH   6  20
TORSDOF 6
ENDMDL
MODEL 2
REMARK VINA RESULT:      -7.1      0.351      1.080
REMARK  Name = 
REMARK  7 active torsions:
REMARK  status: ('A' for Active; 'I' for Inactive)
REMARK    1  A    between atoms: C_1  and  C_2
REMARK    2  A    between atoms: C_2  and  O_3
REMARK    3  A    between atoms: O_3  and  C_4
REMARK    4  A    between atoms: C_9  and  N_10
REMARK    5  A    between atoms: C_14  and  S_15
REMARK    6  A    between atoms: N_16  and  C_17
REMARK    7  A    between atoms: C_17  and  C_18
REMARK                            x       y       z     vdW  Elec       q    Type
REMARK                         _______ _______ _______ _____ _____    ______ ____
ROOT
ATOM      1  N   UNL     1      -0.827  11.242  21.824  0.00  0.00    +0.000 N 
ATOM      2  C   UNL     1      -1.018  11.104  20.367  0.00  0.00    +0.000 C 
ATOM      3  C   UNL     1       0.329  10.772  19.701  0.00  0.00    +0.000 C 
ATOM      4  N   UNL     1       0.892   9.520  20.222  0.00  0.00    +0.000 N 
ATOM      5  C   UNL     1       1.649   8.614  19.498  0.00  0.00    +0.000 C 
ATOM      6  N   UNL     1       2.069   7.536  20.067  0.00  0.00    +0.000 NA
ATOM      7  C   UNL     1       0.951   9.481  21.705  0.00  0.00    +0.000 C 
ATOM      8  C   UNL     1      -0.363   9.943  22.381  0.00  0.00    +0.000 C 
ENDROOT
BRANCH   1  14
ATOM      9  C   UNL     1      -0.865  13.465  23.005  0.00  0.00    +0.000 A 
ATOM     10  C   UNL     1      -1.582  14.402  23.781  0.00  0.00    +0.000 A 
ATOM     11  C   UNL     1      -2.846  14.114  24.273  0.00  0.00    +0.000 A 
ATOM     12  C   UNL     1      -3.415  12.895  23.969  0.00  0.00    +0.000 A 
ATOM     13  C   UNL     1      -2.731  11.985  23.150  0.00  0.00    +0.000 A 
ATOM     14  C   UNL     1      -1.445  12.224  22.606  0.00  0.00    +0.000 A 
BRANCH   9  15
ATOM     15  O   UNL     1       0.413  13.780  22.606  0.00  0.00    +0.000 OA
BRANCH  15  17
ATOM     16  C   UNL     1       2.043  15.035  21.384  0.00  0.00    +0.000 C 
ATOM     17  C   UNL     1       0.560  14.796  21.613  0.00  0.00    +0.000 C 
ENDBRANCH  15  17
ENDBRANCH   9  15
ENDBRANCH   1  14
BRANCH   5  18
ATOM     18  S   UNL     1       2.013   8.954  17.803  0.00  0.00    +0.000 S 
ATOM     19  H   UNL     1       2.788   7.891  17.573  0.00  0.00    +0.000 HD
ENDBRANCH   5  18
BRANCH   6  20
ATOM     20  C   UNL     1       2.840   6.525  19.360  0.00  0.00    +0.000 C 
BRANCH  20  21
ATOM     21  C   UNL     1       2.125   5.193  19.416  0.00  0.00    +0.000 A 
ATOM     22  C   UNL     1       1.693   4.680  20.649  0.00  0.00    +0.000 A 
ATOM     23  C   UNL     1       1.047   3.445  20.716  0.00  0.00    +0.000 A 
ATOM     24  C   UNL     1       0.825   2.713  19.552  0.00  0.00    +0.000 A 
ATOM     25  C   UNL     1       1.249   3.214  18.321  0.00  0.00    +0.000 A 
ATOM     26  C   UNL     1       1.895   4.450  18.251  0.00  0.00    +0.000 A 
ENDBRANCH  20  21
ENDBRANCH   6  20
TORSDOF 6
ENDMDL
MODEL 3
REMARK VINA RESULT:      -6.8      4.051      9.451
REMARK  Name = 
REMARK  7 active torsions:
REMARK  status: ('A' for Active; 'I' for Inactive)
REMARK    1  A    between atoms: C_1  and  C_2
REMARK    2  A    between atoms: C_2  and  O_3
REMARK    3  A    between atoms: O_3  and  C_4
REMARK    4  A    between atoms: C_9  and  N_10
REMARK    5  A    between atoms: C_14  and  S_15
REMARK    6  A    between atoms: N_16  and  C_17
REMARK    7  A    between atoms: C_17  and  C_18
REMARK                            x       y       z     vdW  Elec       q    Type
REMARK                         _______ _______ _______ _____ _____    ______ ____
ROOT
ATOM      1  N   UNL     1       3.629   6.731  18.026  0.00  0.00    +0.000 N 
ATOM      2  C   UNL     1       2.706   6.243  19.070  0.00  0.00    +0.000 C 
ATOM      3  C   UNL     1       2.289   7.416  19.976  0.00  0.00    +0.000 C 
ATOM      4  N   UNL     1       1.619   8.474  19.213  0.00  0.00    +0.000 N 
ATOM      5  C   UNL     1       0.601   9.287  19.683  0.00  0.00    +0.000 C 
ATOM      6  N   UNL     1       0.076  10.169  18.903  0.00  0.00    +0.000 NA
ATOM      7  C   UNL     1       2.387   8.907  18.018  0.00  0.00    +0.000 C 
ATOM      8  C   UNL     1       2.921   7.725  17.173  0.00  0.00    +0.000 C 
ENDROOT
BRANCH   1  14
ATOM      9  C   UNL     1       4.780   4.705  17.073  0.00  0.00    +0.000 A 
ATOM     10  C   UNL     1       5.979   4.093  16.645  0.00  0.00    +0.000 A 
ATOM     11  C   UNL     1       7.205   4.721  16.805  0.00  0.00    +0.000 A 
ATOM     12  C   UNL     1       7.239   5.979  17.371  0.00  0.00    +0.000 A 
ATOM     13  C   UNL     1       6.046   6.614  17.744  0.00  0.00    +0.000 A 
ATOM     14  C   UNL     1       4.762   6.034  17.595  0.00  0.00    +0.000 A 
BRANCH   9  15
ATOM     15  O   UNL     1       3.604   4.004  16.954  0.00  0.00    +0.000 OA
BRANCH  15  17
ATOM     16  C   UNL     1       2.047   2.573  18.075  0.00  0.00    +0.000 C 
ATOM     17  C   UNL     1       3.498   2.772  17.671  0.00  0.00    +0.000 C 
ENDBRANCH  15  17
ENDBRANCH   9  15
ENDBRANCH   1  14
BRANCH   5  18
ATOM     18  S   UNL     1       0.036   9.085  21.345  0.00  0.00    +0.000 S 
ATOM     19  H   UNL     1      -1.274   9.066  21.085  0.00  0.00    +0.000 HD
ENDBRANCH   5  18
BRANCH   6  20
ATOM     20  C   UNL     1      -1.017  11.034  19.319  0.00  0.00    +0.000 C 
BRANCH  20  21
ATOM     21  C   UNL     1      -2.133  10.990  18.298  0.00  0.00    +0.000 A 
ATOM     22  C   UNL     1      -1.952  10.294  17.092  0.00  0.00    +0.000 A 
ATOM     23  C   UNL     1      -2.966  10.259  16.134  0.00  0.00    +0.000 A 
ATOM     24  C   UNL     1      -4.170  10.917  16.374  0.00  0.00    +0.000 A 
ATOM     25  C   UNL     1      -4.361  11.610  17.570  0.00  0.00    +0.000 A 
ATOM     26  C   UNL     1      -3.347  11.646  18.530  0.00  0.00    +0.000 A 
ENDBRANCH  20  21
ENDBRANCH   6  20
TORSDOF 6
ENDMDL
MODEL 4
REMARK VINA RESULT:      -6.6      3.990      9.254
REMARK  Name = 
REMARK  7 active torsions:
REMARK  status: ('A' for Active; 'I' for Inactive)
REMARK    1  A    between atoms: C_1  and  C_2
REMARK    2  A    between atoms: C_2  and  O_3
REMARK    3  A    between atoms: O_3  and  C_4
REMARK    4  A    between atoms: C_9  and  N_10
REMARK    5  A    between atoms: C_14  and  S_15
REMARK    6  A    between atoms: N_16  and  C_17
REMARK    7  A    between atoms: C_17  and  C_18
REMARK                            x       y       z     vdW  Elec       q    Type
REMARK                         _______ _______ _______ _____ _____    ______ ____
ROOT
ATOM      1  N   UNL     1       3.790   6.408  17.756  0.00  0.00    +0.000 N 
ATOM      2  C   UNL     1       2.859   5.899  18.782  0.00  0.00    +0.000 C 
ATOM      3  C   UNL     1       2.541   7.020  19.789  0.00  0.00    +0.000 C 
ATOM      4  N   UNL     1       1.926   8.177  19.129  0.00  0.00    +0.000 N 
ATOM      5  C   UNL     1       0.976   9.014  19.689  0.00  0.00    +0.000 C 
ATOM      6  N   UNL     1       0.494   9.988  18.994  0.00  0.00    +0.000 NA
ATOM      7  C   UNL     1       2.697   8.654  17.952  0.00  0.00    +0.000 C 
ATOM      8  C   UNL     1       3.132   7.511  17.003  0.00  0.00    +0.000 C 
ENDROOT
BRANCH   1  14
ATOM      9  C   UNL     1       6.248   5.970  17.434  0.00  0.00    +0.000 A 
ATOM     10  C   UNL     1       7.263   5.155  16.886  0.00  0.00    +0.000 A 
ATOM     11  C   UNL     1       6.959   4.087  16.056  0.00  0.00    +0.000 A 
ATOM     12  C   UNL     1       5.634   3.809  15.788  0.00  0.00    +0.000 A 
ATOM     13  C   UNL     1       4.622   4.581  16.375  0.00  0.00    +0.000 A 
ATOM     14  C   UNL     1       4.865   5.675  17.241  0.00  0.00    +0.000 A 
BRANCH   9  15
ATOM     15  O   UNL     1       6.614   7.058  18.191  0.00  0.00    +0.000 OA
BRANCH  15  17
ATOM     16  C   UNL     1       8.076   8.914  17.804  0.00  0.00    +0.000 C 
ATOM     17  C   UNL     1       7.991   7.441  18.168  0.00  0.00    +0.000 C 
ENDBRANCH  15  17
ENDBRANCH   9  15
ENDBRANCH   1  14
BRANCH   5  18
ATOM     18  S   UNL     1       0.434   8.717  21.344  0.00  0.00    +0.000 S 
ATOM     19  H   UNL     1       1.152   7.613  21.568  0.00  0.00    +0.000 HD
ENDBRANCH   5  18
BRANCH   6  20
ATOM     20  C   UNL     1      -0.529  10.886  19.506  0.00  0.00    +0.000 C 
BRANCH  20  21
ATOM     21  C   UNL     1      -1.741  10.862  18.600  0.00  0.00    +0.000 A 
ATOM     22  C   UNL     1      -1.759  10.023  17.475  0.00  0.00    +0.000 A 
ATOM     23  C   UNL     1      -2.863  10.003  16.622  0.00  0.00    +0.000 A 
ATOM     24  C   UNL     1      -3.960  10.820  16.888  0.00  0.00    +0.000 A 
ATOM     25  C   UNL     1      -3.954  11.657  18.004  0.00  0.00    +0.000 A 
ATOM     26  C   UNL     1      -2.850  11.678  18.859  0.00  0.00    +0.000 A 
ENDBRANCH  20  21
ENDBRANCH   6  20
TORSDOF 6
ENDMDL
MODEL 5
REMARK VINA RESULT:      -6.5      3.336      4.886
REMARK  Name = 
REMARK  7 active torsions:
REMARK  status: ('A' for Active; 'I' for Inactive)
REMARK    1  A    between atoms: C_1  and  C_2
REMARK    2  A    between atoms: C_2  and  O_3
REMARK    3  A    between atoms: O_3  and  C_4
REMARK    4  A    between atoms: C_9  and  N_10
REMARK    5  A    between atoms: C_14  and  S_15
REMARK    6  A    between atoms: N_16  and  C_17
REMARK    7  A    between atoms: C_17  and  C_18
REMARK                            x       y       z     vdW  Elec       q    Type
REMARK                         _______ _______ _______ _____ _____    ______ ____
ROOT
ATOM      1  N   UNL     1       0.772   9.548  20.003  0.00  0.00    +0.000 N 
ATOM      2  C   UNL     1       1.043   8.780  21.234  0.00  0.00    +0.000 C 
ATOM      3  C   UNL     1       1.023   7.273  20.914  0.00  0.00    +0.000 C 
ATOM      4  N   UNL     1       2.034   6.924  19.910  0.00  0.00    +0.000 N 
ATOM      5  C   UNL     1       2.733   5.730  19.850  0.00  0.00    +0.000 C 
ATOM      6  N   UNL     1       3.616   5.552  18.927  0.00  0.00    +0.000 NA
ATOM      7  C   UNL     1       1.968   7.777  18.696  0.00  0.00    +0.000 C 
ATOM      8  C   UNL     1       1.854   9.287  19.016  0.00  0.00    +0.000 C 
ENDROOT
BRANCH   1  14
ATOM      9  C   UNL     1      -1.023  10.970  18.956  0.00  0.00    +0.000 A 
ATOM     10  C   UNL     1      -1.810  12.141  19.004  0.00  0.00    +0.000 A 
ATOM     11  C   UNL     1      -1.596  13.113  19.969  0.00  0.00    +0.000 A 
ATOM     12  C   UNL     1      -0.609  12.909  20.911  0.00  0.00    +0.000 A 
ATOM     13  C   UNL     1       0.137  11.721  20.901  0.00  0.00    +0.000 A 
ATOM     14  C   UNL     1      -0.042  10.685  19.953  0.00  0.00    +0.000 A 
BRANCH   9  15
ATOM     15  O   UNL     1      -1.234  10.076  17.932  0.00  0.00    +0.000 OA
BRANCH  15  17
ATOM     16  C   UNL     1      -2.703   9.981  16.045  0.00  0.00    +0.000 C 
ATOM     17  C   UNL     1      -2.587   9.821  17.552  0.00  0.00    +0.000 C 
ENDBRANCH  15  17
ENDBRANCH   9  15
ENDBRANCH   1  14
BRANCH   5  18
ATOM     18  S   UNL     1       2.405   4.479  21.055  0.00  0.00    +0.000 S 
ATOM     19  H   UNL     1       2.217   3.464  20.207  0.00  0.00    +0.000 HD
ENDBRANCH   5  18
BRANCH   6  20
ATOM     20  C   UNL     1       4.410   4.337  18.824  0.00  0.00    +0.000 C 
BRANCH  20  21
ATOM     21  C   UNL     1       5.282   4.390  17.589  0.00  0.00    +0.000 A 
ATOM     22  C   UNL     1       4.728   4.123  16.328  0.00  0.00    +0.000 A 
ATOM     23  C   UNL     1       5.524   4.152  15.182  0.00  0.00    +0.000 A 
ATOM     24  C   UNL     1       6.881   4.450  15.287  0.00  0.00    +0.000 A 
ATOM     25  C   UNL     1       7.442   4.719  16.536  0.00  0.00    +0.000 A 
ATOM     26  C   UNL     1       6.646   4.690  17.684  0.00  0.00    +0.000 A 
ENDBRANCH  20  21
ENDBRANCH   6  20
TORSDOF 6
ENDMDL
MODEL 6
REMARK VINA RESULT:      -6.5      2.988      4.516
REMARK  Name = 
REMARK  7 active torsions:
REMARK  status: ('A' for Active; 'I' for Inactive)
REMARK    1  A    between atoms: C_1  and  C_2
REMARK    2  A    between atoms: C_2  and  O_3
REMARK    3  A    between atoms: O_3  and  C_4
REMARK    4  A    between atoms: C_9  and  N_10
REMARK    5  A    between atoms: C_14  and  S_15
REMARK    6  A    between atoms: N_16  and  C_17
REMARK    7  A    between atoms: C_17  and  C_18
REMARK                            x       y       z     vdW  Elec       q    Type
REMARK                         _______ _______ _______ _____ _____    ______ ____
ROOT
ATOM      1  N   UNL     1       0.392  10.442  20.243  0.00  0.00    +0.000 N 
ATOM      2  C   UNL     1       0.993   9.565  21.268  0.00  0.00    +0.000 C 
ATOM      3  C   UNL     1       1.013   8.114  20.754  0.00  0.00    +0.000 C 
ATOM      4  N   UNL     1       1.792   7.993  19.516  0.00  0.00    +0.000 N 
ATOM      5  C   UNL     1       2.546   6.893  19.142  0.00  0.00    +0.000 C 
ATOM      6  N   UNL     1       3.206   6.919  18.034  0.00  0.00    +0.000 NA
ATOM      7  C   UNL     1       1.388   8.972  18.476  0.00  0.00    +0.000 C 
ATOM      8  C   UNL     1       1.238  10.414  19.019  0.00  0.00    +0.000 C 
ENDROOT
BRANCH   1  14
ATOM      9  C   UNL     1      -1.712  11.764  19.837  0.00  0.00    +0.000 A 
ATOM     10  C   UNL     1      -2.551  12.836  20.216  0.00  0.00    +0.000 A 
ATOM     11  C   UNL     1      -2.179  13.724  21.213  0.00  0.00    +0.000 A 
ATOM     12  C   UNL     1      -0.975  13.532  21.859  0.00  0.00    +0.000 A 
ATOM     13  C   UNL     1      -0.165  12.437  21.526  0.00  0.00    +0.000 A 
ATOM     14  C   UNL     1      -0.494  11.486  20.528  0.00  0.00    +0.000 A 
BRANCH   9  15
ATOM     15  O   UNL     1      -2.102  10.959  18.793  0.00  0.00    +0.000 OA
BRANCH  15  17
ATOM     16  C   UNL     1      -2.613  10.494  16.501  0.00  0.00    +0.000 C 
ATOM     17  C   UNL     1      -2.203  11.562  17.502  0.00  0.00    +0.000 C 
ENDBRANCH  15  17
ENDBRANCH   9  15
ENDBRANCH   1  14
BRANCH   5  18
ATOM     18  S   UNL     1       2.595   5.481  20.203  0.00  0.00    +0.000 S 
ATOM     19  H   UNL     1       1.427   5.683  20.819  0.00  0.00    +0.000 HD
ENDBRANCH   5  18
BRANCH   6  20
ATOM     20  C   UNL     1       4.044   5.814  17.595  0.00  0.00    +0.000 C 
BRANCH  20  21
ATOM     21  C   UNL     1       5.492   6.091  17.940  0.00  0.00    +0.000 A 
ATOM     22  C   UNL     1       6.112   5.383  18.981  0.00  0.00    +0.000 A 
ATOM     23  C   UNL     1       7.441   5.640  19.321  0.00  0.00    +0.000 A 
ATOM     24  C   UNL     1       8.162   6.604  18.620  0.00  0.00    +0.000 A 
ATOM     25  C   UNL     1       7.556   7.312  17.582  0.00  0.00    +0.000 A 
ATOM     26  C   UNL     1       6.226   7.057  17.241  0.00  0.00    +0.000 A 
ENDBRANCH  20  21
ENDBRANCH   6  20
TORSDOF 6
ENDMDL
MODEL 7
REMARK VINA RESULT:      -6.5      2.894      4.354
REMARK  Name = 
REMARK  7 active torsions:
REMARK  status: ('A' for Active; 'I' for Inactive)
REMARK    1  A    between atoms: C_1  and  C_2
REMARK    2  A    between atoms: C_2  and  O_3
REMARK    3  A    between atoms: O_3  and  C_4
REMARK    4  A    between atoms: C_9  and  N_10
REMARK    5  A    between atoms: C_14  and  S_15
REMARK    6  A    between atoms: N_16  and  C_17
REMARK    7  A    between atoms: C_17  and  C_18
REMARK                            x       y       z     vdW  Elec       q    Type
REMARK                         _______ _______ _______ _____ _____    ______ ____
ROOT
ATOM      1  N   UNL     1       0.319  10.000  20.722  0.00  0.00    +0.000 N 
ATOM      2  C   UNL     1       0.934   9.020  21.639  0.00  0.00    +0.000 C 
ATOM      3  C   UNL     1       1.009   7.646  20.948  0.00  0.00    +0.000 C 
ATOM      4  N   UNL     1       1.807   7.706  19.718  0.00  0.00    +0.000 N 
ATOM      5  C   UNL     1       2.602   6.685  19.221  0.00  0.00    +0.000 C 
ATOM      6  N   UNL     1       3.275   6.871  18.137  0.00  0.00    +0.000 NA
ATOM      7  C   UNL     1       1.385   8.795  18.802  0.00  0.00    +0.000 C 
ATOM      8  C   UNL     1       1.181  10.152  19.519  0.00  0.00    +0.000 C 
ENDROOT
BRANCH   1  14
ATOM      9  C   UNL     1      -1.480  11.699  20.260  0.00  0.00    +0.000 A 
ATOM     10  C   UNL     1      -2.394  12.651  20.764  0.00  0.00    +0.000 A 
ATOM     11  C   UNL     1      -2.411  12.991  22.108  0.00  0.00    +0.000 A 
ATOM     12  C   UNL     1      -1.531  12.362  22.964  0.00  0.00    +0.000 A 
ATOM     13  C   UNL     1      -0.662  11.374  22.478  0.00  0.00    +0.000 A 
ATOM     14  C   UNL     1      -0.604  10.972  21.121  0.00  0.00    +0.000 A 
BRANCH   9  15
ATOM     15  O   UNL     1      -1.462  11.456  18.906  0.00  0.00    +0.000 OA
BRANCH  15  17
ATOM     16  C   UNL     1      -3.190  10.274  17.747  0.00  0.00    +0.000 C 
ATOM     17  C   UNL     1      -2.685  11.637  18.190  0.00  0.00    +0.000 C 
ENDBRANCH  15  17
ENDBRANCH   9  15
ENDBRANCH   1  14
BRANCH   5  18
ATOM     18  S   UNL     1       2.683   5.153  20.097  0.00  0.00    +0.000 S 
ATOM     19  H   UNL     1       1.474   4.695  19.762  0.00  0.00    +0.000 HD
ENDBRANCH   5  18
BRANCH   6  20
ATOM     20  C   UNL     1       4.154   5.856  17.577  0.00  0.00    +0.000 C 
BRANCH  20  21
ATOM     21  C   UNL     1       5.591   6.149  17.952  0.00  0.00    +0.000 A 
ATOM     22  C   UNL     1       6.289   7.177  17.299  0.00  0.00    +0.000 A 
ATOM     23  C   UNL     1       7.620   7.447  17.623  0.00  0.00    +0.000 A 
ATOM     24  C   UNL     1       8.262   6.694  18.603  0.00  0.00    +0.000 A 
ATOM     25  C   UNL     1       7.577   5.672  19.259  0.00  0.00    +0.000 A 
ATOM     26  C   UNL     1       6.245   5.400  18.937  0.00  0.00    +0.000 A 
ENDBRANCH  20  21
ENDBRANCH   6  20
TORSDOF 6
ENDMDL
MODEL 8
REMARK VINA RESULT:      -6.5      2.842      8.860
REMARK  Name = 
REMARK  7 active torsions:
REMARK  status: ('A' for Active; 'I' for Inactive)
REMARK    1  A    between atoms: C_1  and  C_2
REMARK    2  A    between atoms: C_2  and  O_3
REMARK    3  A    between atoms: O_3  and  C_4
REMARK    4  A    between atoms: C_9  and  N_10
REMARK    5  A    between atoms: C_14  and  S_15
REMARK    6  A    between atoms: N_16  and  C_17
REMARK    7  A    between atoms: C_17  and  C_18
REMARK                            x       y       z     vdW  Elec       q    Type
REMARK                         _______ _______ _______ _____ _____    ______ ____
ROOT
ATOM      1  N   UNL     1       2.331   7.270  18.645  0.00  0.00    +0.000 N 
ATOM      2  C   UNL     1       2.697   8.465  17.860  0.00  0.00    +0.000 C 
ATOM      3  C   UNL     1       1.551   9.491  17.922  0.00  0.00    +0.000 C 
ATOM      4  N   UNL     1       1.272   9.903  19.303  0.00  0.00    +0.000 N 
ATOM      5  C   UNL     1       0.845  11.159  19.699  0.00  0.00    +0.000 C 
ATOM      6  N   UNL     1       0.656  11.404  20.951  0.00  0.00    +0.000 NA
ATOM      7  C   UNL     1       1.076   8.756  20.224  0.00  0.00    +0.000 C 
ATOM      8  C   UNL     1       2.156   7.657  20.071  0.00  0.00    +0.000 C 
ENDROOT
BRANCH   1  14
ATOM      9  C   UNL     1       3.892   5.409  17.984  0.00  0.00    +0.000 A 
ATOM     10  C   UNL     1       4.061   4.059  17.600  0.00  0.00    +0.000 A 
ATOM     11  C   UNL     1       2.971   3.236  17.365  0.00  0.00    +0.000 A 
ATOM     12  C   UNL     1       1.701   3.748  17.537  0.00  0.00    +0.000 A 
ATOM     13  C   UNL     1       1.530   5.069  17.973  0.00  0.00    +0.000 A 
ATOM     14  C   UNL     1       2.600   5.957  18.244  0.00  0.00    +0.000 A 
BRANCH   9  15
ATOM     15  O   UNL     1       5.009   6.196  18.132  0.00  0.00    +0.000 OA
BRANCH  15  17
ATOM     16  C   UNL     1       7.129   7.061  17.434  0.00  0.00    +0.000 C 
ATOM     17  C   UNL     1       5.859   6.352  16.994  0.00  0.00    +0.000 C 
ENDBRANCH  15  17
ENDBRANCH   9  15
ENDBRANCH   1  14
BRANCH   5  18
ATOM     18  S   UNL     1       0.580  12.405  18.474  0.00  0.00    +0.000 S 
ATOM     19  H   UNL     1       0.340  13.422  19.307  0.00  0.00    +0.000 HD
ENDBRANCH   5  18
BRANCH   6  20
ATOM     20  C   UNL     1       0.239  12.708  21.441  0.00  0.00    +0.000 C 
BRANCH  20  21
ATOM     21  C   UNL     1      -1.227  12.680  21.814  0.00  0.00    +0.000 A 
ATOM     22  C   UNL     1      -1.621  12.204  23.074  0.00  0.00    +0.000 A 
ATOM     23  C   UNL     1      -2.971  12.157  23.424  0.00  0.00    +0.000 A 
ATOM     24  C   UNL     1      -3.939  12.586  22.518  0.00  0.00    +0.000 A 
ATOM     25  C   UNL     1      -3.558  13.062  21.263  0.00  0.00    +0.000 A 
ATOM     26  C   UNL     1      -2.207  13.110  20.911  0.00  0.00    +0.000 A 
ENDBRANCH  20  21
ENDBRANCH   6  20
TORSDOF 6
ENDMDL
MODEL 9
REMARK VINA RESULT:      -6.4      3.681      9.154
REMARK  Name = 
REMARK  7 active torsions:
REMARK  status: ('A' for Active; 'I' for Inactive)
REMARK    1  A    between atoms: C_1  and  C_2
REMARK    2  A    between atoms: C_2  and  O_3
REMARK    3  A    between atoms: O_3  and  C_4
REMARK    4  A    between atoms: C_9  and  N_10
REMARK    5  A    between atoms: C_14  and  S_15
REMARK    6  A    between atoms: N_16  and  C_17
REMARK    7  A    between atoms: C_17  and  C_18
REMARK                            x       y       z     vdW  Elec       q    Type
REMARK                         _______ _______ _______ _____ _____    ______ ____
ROOT
ATOM      1  N   UNL     1       3.013   7.036  18.491  0.00  0.00    +0.000 N 
ATOM      2  C   UNL     1       2.191   6.756  19.685  0.00  0.00    +0.000 C 
ATOM      3  C   UNL     1       1.886   8.073  20.421  0.00  0.00    +0.000 C 
ATOM      4  N   UNL     1       1.160   9.014  19.560  0.00  0.00    +0.000 N 
ATOM      5  C   UNL     1       0.208   9.926  19.985  0.00  0.00    +0.000 C 
ATOM      6  N   UNL     1      -0.377  10.686  19.123  0.00  0.00    +0.000 NA
ATOM      7  C   UNL     1       1.813   9.221  18.243  0.00  0.00    +0.000 C 
ATOM      8  C   UNL     1       2.240   7.900  17.558  0.00  0.00    +0.000 C 
ENDROOT
BRANCH   1  14
ATOM      9  C   UNL     1       4.336   4.895  18.476  0.00  0.00    +0.000 A 
ATOM     10  C   UNL     1       5.441   4.167  17.983  0.00  0.00    +0.000 A 
ATOM     11  C   UNL     1       6.387   4.763  17.163  0.00  0.00    +0.000 A 
ATOM     12  C   UNL     1       6.221   6.085  16.807  0.00  0.00    +0.000 A 
ATOM     13  C   UNL     1       5.094   6.795  17.248  0.00  0.00    +0.000 A 
ATOM     14  C   UNL     1       4.086   6.241  18.075  0.00  0.00    +0.000 A 
BRANCH   9  15
ATOM     15  O   UNL     1       3.471   4.270  19.344  0.00  0.00    +0.000 OA
BRANCH  15  17
ATOM     16  C   UNL     1       1.596   3.455  18.098  0.00  0.00    +0.000 C 
ATOM     17  C   UNL     1       2.836   3.073  18.890  0.00  0.00    +0.000 C 
ENDBRANCH  15  17
ENDBRANCH   9  15
ENDBRANCH   1  14
BRANCH   5  18
ATOM     18  S   UNL     1      -0.191  10.017  21.704  0.00  0.00    +0.000 S 
ATOM     19  H   UNL     1       0.965  10.537  22.126  0.00  0.00    +0.000 HD
ENDBRANCH   5  18
BRANCH   6  20
ATOM     20  C   UNL     1      -1.409  11.642  19.494  0.00  0.00    +0.000 C 
BRANCH  20  21
ATOM     21  C   UNL     1      -2.575  11.547  18.534  0.00  0.00    +0.000 A 
ATOM     22  C   UNL     1      -2.368  11.088  17.223  0.00  0.00    +0.000 A 
ATOM     23  C   UNL     1      -3.431  11.010  16.323  0.00  0.00    +0.000 A 
ATOM     24  C   UNL     1      -4.710  11.388  16.724  0.00  0.00    +0.000 A 
ATOM     25  C   UNL     1      -4.927  11.844  18.025  0.00  0.00    +0.000 A 
ATOM     26  C   UNL     1      -3.865  11.922  18.928  0.00  0.00    +0.000 A 
ENDBRANCH  20  21
ENDBRANCH   6  20
TORSDOF 6
ENDMDL
