MODEL 1
REMARK VINA RESULT:      -6.6      0.000      0.000
REMARK  Name = 
REMARK  12 active torsions:
REMARK  status: ('A' for Active; 'I' for Inactive)
REMARK    1  A    between atoms: C_1  and  O_2
REMARK    2  A    between atoms: O_2  and  C_3
REMARK    3  A    between atoms: C_6  and  C_7
REMARK    4  A    between atoms: C_8  and  C_9
REMARK    5  A    between atoms: C_11  and  O_12
REMARK    6  A    between atoms: O_12  and  C_13
REMARK    7  A    between atoms: C_14  and  O_15
REMARK    8  A    between atoms: O_15  and  C_16
REMARK    9  A    between atoms: C_17  and  O_18
REMARK   10  A    between atoms: O_18  and  C_19
REMARK   11  A    between atoms: C_20  and  C_21
REMARK   12  A    between atoms: C_26  and  C_27
REMARK                            x       y       z     vdW  Elec       q    Type
REMARK                         _______ _______ _______ _____ _____    ______ ____
ROOT
ATOM      1  C   UNL     1       4.043   6.692  18.178  0.00  0.00    +0.000 A 
ATOM      2  C   UNL     1       5.050   7.580  17.780  0.00  0.00    +0.000 A 
ATOM      3  C   UNL     1       6.218   7.144  17.165  0.00  0.00    +0.000 A 
ATOM      4  C   UNL     1       6.377   5.772  16.890  0.00  0.00    +0.000 A 
ATOM      5  C   UNL     1       5.371   4.847  17.303  0.00  0.00    +0.000 A 
ATOM      6  C   UNL     1       4.170   5.295  17.959  0.00  0.00    +0.000 A 
ENDROOT
BRANCH   6   7
ATOM      7  C   UNL     1       3.079   4.354  18.400  0.00  0.00    +0.000 A 
ATOM      8  C   UNL     1       2.001   3.998  17.567  0.00  0.00    +0.000 A 
ATOM      9  C   UNL     1       0.947   3.198  18.028  0.00  0.00    +0.000 A 
ATOM     10  C   UNL     1       0.926   2.772  19.348  0.00  0.00    +0.000 A 
ATOM     11  F   UNL     1      -0.122   2.060  19.785  0.00  0.00    +0.000 F 
ATOM     12  C   UNL     1       1.967   3.090  20.213  0.00  0.00    +0.000 A 
ATOM     13  C   UNL     1       1.933   2.700  21.661  0.00  0.00    +0.000 C 
ATOM     14  C   UNL     1       3.053   3.827  19.712  0.00  0.00    +0.000 A 
ENDBRANCH   6   7
BRANCH   1  16
ATOM     15  C   UNL     1       2.185   8.297  18.111  0.00  0.00    +0.000 C 
ATOM     16  C   UNL     1       2.901   7.388  18.791  0.00  0.00    +0.000 C 
BRANCH  15  20
ATOM     17  C   UNL     1      -0.650  10.873  20.045  0.00  0.00    +0.000 A 
ATOM     18  C   UNL     1       0.265  10.117  20.774  0.00  0.00    +0.000 A 
ATOM     19  C   UNL     1       1.194   9.304  20.122  0.00  0.00    +0.000 A 
ATOM     20  C   UNL     1       1.209   9.211  18.724  0.00  0.00    +0.000 A 
ATOM     21  C   UNL     1       0.285   9.973  17.997  0.00  0.00    +0.000 A 
ATOM     22  C   UNL     1      -0.645  10.793  18.652  0.00  0.00    +0.000 A 
BRANCH  17  24
ATOM     23  C   UNL     1      -1.202  11.720  22.178  0.00  0.00    +0.000 C 
ATOM     24  O   UNL     1      -1.516  11.615  20.796  0.00  0.00    +0.000 OA
ENDBRANCH  17  24
ENDBRANCH  15  20
ENDBRANCH   1  16
BRANCH   3  25
ATOM     25  O   UNL     1       7.202   8.026  16.801  0.00  0.00    +0.000 OA
ATOM     26  C   UNL     1       7.995   8.578  17.848  0.00  0.00    +0.000 C 
ENDBRANCH   3  25
BRANCH   4  27
ATOM     27  O   UNL     1       7.511   5.262  16.301  0.00  0.00    +0.000 OA
ATOM     28  C   UNL     1       7.524   5.082  14.889  0.00  0.00    +0.000 C 
ENDBRANCH   4  27
BRANCH   5  29
ATOM     29  O   UNL     1       5.421   3.482  17.102  0.00  0.00    +0.000 OA
ATOM     30  C   UNL     1       5.141   2.914  15.832  0.00  0.00    +0.000 C 
ENDBRANCH   5  29
TORSDOF 7
ENDMDL
MODEL 2
REMARK VINA RESULT:      -6.6      0.491      1.060
REMARK  Name = 
REMARK  12 active torsions:
REMARK  status: ('A' for Active; 'I' for Inactive)
REMARK    1  A    between atoms: C_1  and  O_2
REMARK    2  A    between atoms: O_2  and  C_3
REMARK    3  A    between atoms: C_6  and  C_7
REMARK    4  A    between atoms: C_8  and  C_9
REMARK    5  A    between atoms: C_11  and  O_12
REMARK    6  A    between atoms: O_12  and  C_13
REMARK    7  A    between atoms: C_14  and  O_15
REMARK    8  A    between atoms: O_15  and  C_16
REMARK    9  A    between atoms: C_17  and  O_18
REMARK   10  A    between atoms: O_18  and  C_19
REMARK   11  A    between atoms: C_20  and  C_21
REMARK   12  A    between atoms: C_26  and  C_27
REMARK                            x       y       z     vdW  Elec       q    Type
REMARK                         _______ _______ _______ _____ _____    ______ ____
ROOT
ATOM      1  C   UNL     1       4.173   6.645  18.216  0.00  0.00    +0.000 A 
ATOM      2  C   UNL     1       5.194   7.521  17.826  0.00  0.00    +0.000 A 
ATOM      3  C   UNL     1       6.334   7.079  17.164  0.00  0.00    +0.000 A 
ATOM      4  C   UNL     1       6.448   5.715  16.832  0.00  0.00    +0.000 A 
ATOM      5  C   UNL     1       5.427   4.801  17.236  0.00  0.00    +0.000 A 
ATOM      6  C   UNL     1       4.257   5.255  17.941  0.00  0.00    +0.000 A 
ENDROOT
BRANCH   6   7
ATOM      7  C   UNL     1       3.152   4.327  18.374  0.00  0.00    +0.000 A 
ATOM      8  C   UNL     1       2.066   3.996  17.540  0.00  0.00    +0.000 A 
ATOM      9  C   UNL     1       1.001   3.208  17.995  0.00  0.00    +0.000 A 
ATOM     10  C   UNL     1       0.976   2.769  19.310  0.00  0.00    +0.000 A 
ATOM     11  F   UNL     1      -0.082   2.069  19.743  0.00  0.00    +0.000 F 
ATOM     12  C   UNL     1       2.024   3.061  20.177  0.00  0.00    +0.000 A 
ATOM     13  C   UNL     1       1.986   2.657  21.620  0.00  0.00    +0.000 C 
ATOM     14  C   UNL     1       3.120   3.787  19.681  0.00  0.00    +0.000 A 
ENDBRANCH   6   7
BRANCH   1  16
ATOM     15  C   UNL     1       2.209   8.120  18.202  0.00  0.00    +0.000 C 
ATOM     16  C   UNL     1       3.068   7.347  18.886  0.00  0.00    +0.000 C 
BRANCH  15  20
ATOM     17  C   UNL     1      -0.581  10.918  19.875  0.00  0.00    +0.000 A 
ATOM     18  C   UNL     1      -0.417  10.785  18.498  0.00  0.00    +0.000 A 
ATOM     19  C   UNL     1       0.480   9.852  17.976  0.00  0.00    +0.000 A 
ATOM     20  C   UNL     1       1.251   9.047  18.825  0.00  0.00    +0.000 A 
ATOM     21  C   UNL     1       1.082   9.185  20.209  0.00  0.00    +0.000 A 
ATOM     22  C   UNL     1       0.178  10.121  20.732  0.00  0.00    +0.000 A 
BRANCH  17  24
ATOM     23  C   UNL     1      -2.570  12.090  19.381  0.00  0.00    +0.000 C 
ATOM     24  O   UNL     1      -1.475  11.875  20.262  0.00  0.00    +0.000 OA
ENDBRANCH  17  24
ENDBRANCH  15  20
ENDBRANCH   1  16
BRANCH   3  25
ATOM     25  O   UNL     1       7.332   7.948  16.808  0.00  0.00    +0.000 OA
ATOM     26  C   UNL     1       8.001   8.631  17.864  0.00  0.00    +0.000 C 
ENDBRANCH   3  25
BRANCH   4  27
ATOM     27  O   UNL     1       7.552   5.199  16.194  0.00  0.00    +0.000 OA
ATOM     28  C   UNL     1       7.529   5.088  14.774  0.00  0.00    +0.000 C 
ENDBRANCH   4  27
BRANCH   5  29
ATOM     29  O   UNL     1       5.435   3.444  16.982  0.00  0.00    +0.000 OA
ATOM     30  C   UNL     1       5.155   2.937  15.686  0.00  0.00    +0.000 C 
ENDBRANCH   5  29
TORSDOF 7
ENDMDL
MODEL 3
REMARK VINA RESULT:      -6.5      3.903      9.663
REMARK  Name = 
REMARK  12 active torsions:
REMARK  status: ('A' for Active; 'I' for Inactive)
REMARK    1  A    between atoms: C_1  and  O_2
REMARK    2  A    between atoms: O_2  and  C_3
REMARK    3  A    between atoms: C_6  and  C_7
REMARK    4  A    between atoms: C_8  and  C_9
REMARK    5  A    between atoms: C_11  and  O_12
REMARK    6  A    between atoms: O_12  and  C_13
REMARK    7  A    between atoms: C_14  and  O_15
REMARK    8  A    between atoms: O_15  and  C_16
REMARK    9  A    between atoms: C_17  and  O_18
REMARK   10  A    between atoms: O_18  and  C_19
REMARK   11  A    between atoms: C_20  and  C_21
REMARK   12  A    between atoms: C_26  and  C_27
REMARK                            x       y       z     vdW  Elec       q    Type
REMARK                         _______ _______ _______ _____ _____    ______ ____
ROOT
ATOM      1  C   UNL     1       0.471  10.551  18.377  0.00  0.00    +0.000 A 
ATOM      2  C   UNL     1      -0.641   9.805  17.965  0.00  0.00    +0.000 A 
ATOM      3  C   UNL     1      -1.918  10.353  17.910  0.00  0.00    +0.000 A 
ATOM      4  C   UNL     1      -2.095  11.712  18.233  0.00  0.00    +0.000 A 
ATOM      5  C   UNL     1      -0.979  12.486  18.673  0.00  0.00    +0.000 A 
ATOM      6  C   UNL     1       0.340  11.914  18.751  0.00  0.00    +0.000 A 
ENDROOT
BRANCH   6   7
ATOM      7  C   UNL     1       1.546  12.699  19.198  0.00  0.00    +0.000 A 
ATOM      8  C   UNL     1       1.911  12.826  20.552  0.00  0.00    +0.000 A 
ATOM      9  C   UNL     1       2.980  13.638  20.954  0.00  0.00    +0.000 A 
ATOM     10  C   UNL     1       3.682  14.376  20.013  0.00  0.00    +0.000 A 
ATOM     11  F   UNL     1       4.660  15.194  20.425  0.00  0.00    +0.000 F 
ATOM     12  C   UNL     1       3.368  14.285  18.661  0.00  0.00    +0.000 A 
ATOM     13  C   UNL     1       4.066  15.125  17.634  0.00  0.00    +0.000 C 
ATOM     14  C   UNL     1       2.344  13.407  18.269  0.00  0.00    +0.000 A 
ENDBRANCH   6   7
BRANCH   1  16
ATOM     15  C   UNL     1       1.737   8.515  17.841  0.00  0.00    +0.000 C 
ATOM     16  C   UNL     1       1.712   9.762  18.339  0.00  0.00    +0.000 C 
BRANCH  15  20
ATOM     17  C   UNL     1       4.974   5.773  18.478  0.00  0.00    +0.000 A 
ATOM     18  C   UNL     1       3.869   5.807  19.326  0.00  0.00    +0.000 A 
ATOM     19  C   UNL     1       2.817   6.692  19.085  0.00  0.00    +0.000 A 
ATOM     20  C   UNL     1       2.860   7.580  18.002  0.00  0.00    +0.000 A 
ATOM     21  C   UNL     1       3.975   7.541  17.154  0.00  0.00    +0.000 A 
ATOM     22  C   UNL     1       5.030   6.649  17.394  0.00  0.00    +0.000 A 
BRANCH  17  24
ATOM     23  C   UNL     1       7.145   5.435  19.342  0.00  0.00    +0.000 C 
ATOM     24  O   UNL     1       5.944   4.877  18.827  0.00  0.00    +0.000 OA
ENDBRANCH  17  24
ENDBRANCH  15  20
ENDBRANCH   1  16
BRANCH   3  25
ATOM     25  O   UNL     1      -2.997   9.601  17.524  0.00  0.00    +0.000 OA
ATOM     26  C   UNL     1      -3.331   9.613  16.140  0.00  0.00    +0.000 C 
ENDBRANCH   3  25
BRANCH   4  27
ATOM     27  O   UNL     1      -3.329  12.320  18.220  0.00  0.00    +0.000 OA
ATOM     28  C   UNL     1      -4.200  12.119  19.330  0.00  0.00    +0.000 C 
ENDBRANCH   4  27
BRANCH   5  29
ATOM     29  O   UNL     1      -1.032  13.819  19.029  0.00  0.00    +0.000 OA
ATOM     30  C   UNL     1      -1.427  14.218  20.333  0.00  0.00    +0.000 C 
ENDBRANCH   5  29
TORSDOF 7
ENDMDL
MODEL 4
REMARK VINA RESULT:      -6.1      3.997      8.902
REMARK  Name = 
REMARK  12 active torsions:
REMARK  status: ('A' for Active; 'I' for Inactive)
REMARK    1  A    between atoms: C_1  and  O_2
REMARK    2  A    between atoms: O_2  and  C_3
REMARK    3  A    between atoms: C_6  and  C_7
REMARK    4  A    between atoms: C_8  and  C_9
REMARK    5  A    between atoms: C_11  and  O_12
REMARK    6  A    between atoms: O_12  and  C_13
REMARK    7  A    between atoms: C_14  and  O_15
REMARK    8  A    between atoms: O_15  and  C_16
REMARK    9  A    between atoms: C_17  and  O_18
REMARK   10  A    between atoms: O_18  and  C_19
REMARK   11  A    between atoms: C_20  and  C_21
REMARK   12  A    between atoms: C_26  and  C_27
REMARK                            x       y       z     vdW  Elec       q    Type
REMARK                         _______ _______ _______ _____ _____    ______ ____
ROOT
ATOM      1  C   UNL     1       1.328  12.281  18.665  0.00  0.00    +0.000 A 
ATOM      2  C   UNL     1       2.609  12.823  18.831  0.00  0.00    +0.000 A 
ATOM      3  C   UNL     1       2.818  14.188  18.993  0.00  0.00    +0.000 A 
ATOM      4  C   UNL     1       1.706  15.051  19.039  0.00  0.00    +0.000 A 
ATOM      5  C   UNL     1       0.393  14.523  18.854  0.00  0.00    +0.000 A 
ATOM      6  C   UNL     1       0.176  13.112  18.664  0.00  0.00    +0.000 A 
ENDROOT
BRANCH   6   7
ATOM      7  C   UNL     1      -1.193  12.512  18.478  0.00  0.00    +0.000 A 
ATOM      8  C   UNL     1      -2.128  12.411  19.527  0.00  0.00    +0.000 A 
ATOM      9  C   UNL     1      -3.359  11.765  19.357  0.00  0.00    +0.000 A 
ATOM     10  C   UNL     1      -3.665  11.165  18.145  0.00  0.00    +0.000 A 
ATOM     11  F   UNL     1      -4.821  10.497  18.023  0.00  0.00    +0.000 F 
ATOM     12  C   UNL     1      -2.782  11.237  17.073  0.00  0.00    +0.000 A 
ATOM     13  C   UNL     1      -3.061  10.538  15.776  0.00  0.00    +0.000 C 
ATOM     14  C   UNL     1      -1.587  11.957  17.238  0.00  0.00    +0.000 A 
ENDBRANCH   6   7
BRANCH   1  16
ATOM     15  C   UNL     1       1.445  10.012  19.598  0.00  0.00    +0.000 C 
ATOM     16  C   UNL     1       1.359  10.817  18.527  0.00  0.00    +0.000 C 
BRANCH  15  20
ATOM     17  C   UNL     1       2.288   5.821  19.233  0.00  0.00    +0.000 A 
ATOM     18  C   UNL     1       2.500   6.703  18.175  0.00  0.00    +0.000 A 
ATOM     19  C   UNL     1       2.240   8.066  18.325  0.00  0.00    +0.000 A 
ATOM     20  C   UNL     1       1.739   8.572  19.531  0.00  0.00    +0.000 A 
ATOM     21  C   UNL     1       1.528   7.680  20.591  0.00  0.00    +0.000 A 
ATOM     22  C   UNL     1       1.792   6.311  20.441  0.00  0.00    +0.000 A 
BRANCH  17  24
ATOM     23  C   UNL     1       3.324   3.820  19.941  0.00  0.00    +0.000 C 
ATOM     24  O   UNL     1       2.564   4.512  18.958  0.00  0.00    +0.000 OA
ENDBRANCH  17  24
ENDBRANCH  15  20
ENDBRANCH   1  16
BRANCH   3  25
ATOM     25  O   UNL     1       4.081  14.702  19.133  0.00  0.00    +0.000 OA
ATOM     26  C   UNL     1       4.851  14.857  17.945  0.00  0.00    +0.000 C 
ENDBRANCH   3  25
BRANCH   4  27
ATOM     27  O   UNL     1       1.833  16.413  19.178  0.00  0.00    +0.000 OA
ATOM     28  C   UNL     1       1.942  17.211  18.003  0.00  0.00    +0.000 C 
ENDBRANCH   4  27
BRANCH   5  29
ATOM     29  O   UNL     1      -0.769  15.269  18.865  0.00  0.00    +0.000 OA
ATOM     30  C   UNL     1      -1.236  15.887  20.055  0.00  0.00    +0.000 C 
ENDBRANCH   5  29
TORSDOF 7
ENDMDL
MODEL 5
REMARK VINA RESULT:      -6.1      4.878     12.034
REMARK  Name = 
REMARK  12 active torsions:
REMARK  status: ('A' for Active; 'I' for Inactive)
REMARK    1  A    between atoms: C_1  and  O_2
REMARK    2  A    between atoms: O_2  and  C_3
REMARK    3  A    between atoms: C_6  and  C_7
REMARK    4  A    between atoms: C_8  and  C_9
REMARK    5  A    between atoms: C_11  and  O_12
REMARK    6  A    between atoms: O_12  and  C_13
REMARK    7  A    between atoms: C_14  and  O_15
REMARK    8  A    between atoms: O_15  and  C_16
REMARK    9  A    between atoms: C_17  and  O_18
REMARK   10  A    between atoms: O_18  and  C_19
REMARK   11  A    between atoms: C_20  and  C_21
REMARK   12  A    between atoms: C_26  and  C_27
REMARK                            x       y       z     vdW  Elec       q    Type
REMARK                         _______ _______ _______ _____ _____    ______ ____
ROOT
ATOM      1  C   UNL     1      -3.439  13.183  23.059  0.00  0.00    +0.000 A 
ATOM      2  C   UNL     1      -2.821  13.882  24.103  0.00  0.00    +0.000 A 
ATOM      3  C   UNL     1      -3.377  15.030  24.655  0.00  0.00    +0.000 A 
ATOM      4  C   UNL     1      -4.625  15.482  24.183  0.00  0.00    +0.000 A 
ATOM      5  C   UNL     1      -5.264  14.796  23.107  0.00  0.00    +0.000 A 
ATOM      6  C   UNL     1      -4.678  13.619  22.520  0.00  0.00    +0.000 A 
ENDROOT
BRANCH   6   7
ATOM      7  C   UNL     1      -5.326  12.858  21.392  0.00  0.00    +0.000 A 
ATOM      8  C   UNL     1      -6.522  12.132  21.553  0.00  0.00    +0.000 A 
ATOM      9  C   UNL     1      -7.056  11.355  20.517  0.00  0.00    +0.000 A 
ATOM     10  C   UNL     1      -6.382  11.250  19.310  0.00  0.00    +0.000 A 
ATOM     11  F   UNL     1      -6.878  10.451  18.355  0.00  0.00    +0.000 F 
ATOM     12  C   UNL     1      -5.200  11.949  19.094  0.00  0.00    +0.000 A 
ATOM     13  C   UNL     1      -4.418  11.797  17.823  0.00  0.00    +0.000 C 
ATOM     14  C   UNL     1      -4.720  12.785  20.116  0.00  0.00    +0.000 A 
ENDBRANCH   6   7
BRANCH   1  16
ATOM     15  C   UNL     1      -1.327  11.990  22.676  0.00  0.00    +0.000 C 
ATOM     16  C   UNL     1      -2.669  11.997  22.653  0.00  0.00    +0.000 C 
BRANCH  15  20
ATOM     17  C   UNL     1       1.044   9.011  20.699  0.00  0.00    +0.000 A 
ATOM     18  C   UNL     1       0.578  10.138  20.025  0.00  0.00    +0.000 A 
ATOM     19  C   UNL     1      -0.172  11.106  20.695  0.00  0.00    +0.000 A 
ATOM     20  C   UNL     1      -0.493  10.953  22.051  0.00  0.00    +0.000 A 
ATOM     21  C   UNL     1      -0.022   9.816  22.722  0.00  0.00    +0.000 A 
ATOM     22  C   UNL     1       0.735   8.846  22.049  0.00  0.00    +0.000 A 
BRANCH  17  24
ATOM     23  C   UNL     1       1.862   6.810  20.447  0.00  0.00    +0.000 C 
ATOM     24  O   UNL     1       1.752   8.130  19.931  0.00  0.00    +0.000 OA
ENDBRANCH  17  24
ENDBRANCH  15  20
ENDBRANCH   1  16
BRANCH   3  25
ATOM     25  O   UNL     1      -2.747  15.712  25.663  0.00  0.00    +0.000 OA
ATOM     26  C   UNL     1      -1.323  15.747  25.628  0.00  0.00    +0.000 C 
ENDBRANCH   3  25
BRANCH   4  27
ATOM     27  O   UNL     1      -5.231  16.619  24.666  0.00  0.00    +0.000 OA
ATOM     28  C   UNL     1      -4.826  17.881  24.144  0.00  0.00    +0.000 C 
ENDBRANCH   4  27
BRANCH   5  29
ATOM     29  O   UNL     1      -6.478  15.151  22.552  0.00  0.00    +0.000 OA
ATOM     30  C   UNL     1      -6.554  16.079  21.481  0.00  0.00    +0.000 C 
ENDBRANCH   5  29
TORSDOF 7
ENDMDL
MODEL 6
REMARK VINA RESULT:      -6.1      5.176     12.323
REMARK  Name = 
REMARK  12 active torsions:
REMARK  status: ('A' for Active; 'I' for Inactive)
REMARK    1  A    between atoms: C_1  and  O_2
REMARK    2  A    between atoms: O_2  and  C_3
REMARK    3  A    between atoms: C_6  and  C_7
REMARK    4  A    between atoms: C_8  and  C_9
REMARK    5  A    between atoms: C_11  and  O_12
REMARK    6  A    between atoms: O_12  and  C_13
REMARK    7  A    between atoms: C_14  and  O_15
REMARK    8  A    between atoms: O_15  and  C_16
REMARK    9  A    between atoms: C_17  and  O_18
REMARK   10  A    between atoms: O_18  and  C_19
REMARK   11  A    between atoms: C_20  and  C_21
REMARK   12  A    between atoms: C_26  and  C_27
REMARK                            x       y       z     vdW  Elec       q    Type
REMARK                         _______ _______ _______ _____ _____    ______ ____
ROOT
ATOM      1  C   UNL     1      -3.557  13.694  23.316  0.00  0.00    +0.000 A 
ATOM      2  C   UNL     1      -3.138  14.555  24.338  0.00  0.00    +0.000 A 
ATOM      3  C   UNL     1      -3.775  15.764  24.592  0.00  0.00    +0.000 A 
ATOM      4  C   UNL     1      -4.907  16.117  23.831  0.00  0.00    +0.000 A 
ATOM      5  C   UNL     1      -5.340  15.262  22.772  0.00  0.00    +0.000 A 
ATOM      6  C   UNL     1      -4.668  14.020  22.494  0.00  0.00    +0.000 A 
ENDROOT
BRANCH   6   7
ATOM      7  C   UNL     1      -5.100  13.084  21.395  0.00  0.00    +0.000 A 
ATOM      8  C   UNL     1      -4.538  13.117  20.104  0.00  0.00    +0.000 A 
ATOM      9  C   UNL     1      -5.019  12.304  19.070  0.00  0.00    +0.000 A 
ATOM     10  C   UNL     1      -6.105  11.470  19.292  0.00  0.00    +0.000 A 
ATOM     11  F   UNL     1      -6.590  10.747  18.273  0.00  0.00    +0.000 F 
ATOM     12  C   UNL     1      -6.696  11.393  20.548  0.00  0.00    +0.000 A 
ATOM     13  C   UNL     1      -7.913  10.552  20.794  0.00  0.00    +0.000 C 
ATOM     14  C   UNL     1      -6.151  12.158  21.593  0.00  0.00    +0.000 A 
ENDBRANCH   6   7
BRANCH   1  16
ATOM     15  C   UNL     1      -1.534  12.467  22.658  0.00  0.00    +0.000 C 
ATOM     16  C   UNL     1      -2.739  12.473  23.250  0.00  0.00    +0.000 C 
BRANCH  15  20
ATOM     17  C   UNL     1       0.659   8.957  21.526  0.00  0.00    +0.000 A 
ATOM     18  C   UNL     1       0.622  10.089  20.713  0.00  0.00    +0.000 A 
ATOM     19  C   UNL     1      -0.079  11.228  21.114  0.00  0.00    +0.000 A 
ATOM     20  C   UNL     1      -0.780  11.249  22.327  0.00  0.00    +0.000 A 
ATOM     21  C   UNL     1      -0.739  10.107  23.138  0.00  0.00    +0.000 A 
ATOM     22  C   UNL     1      -0.032   8.964  22.737  0.00  0.00    +0.000 A 
BRANCH  17  24
ATOM     23  C   UNL     1       1.912   8.095  19.720  0.00  0.00    +0.000 C 
ATOM     24  O   UNL     1       1.363   7.903  21.017  0.00  0.00    +0.000 OA
ENDBRANCH  17  24
ENDBRANCH  15  20
ENDBRANCH   1  16
BRANCH   3  25
ATOM     25  O   UNL     1      -3.338  16.604  25.584  0.00  0.00    +0.000 OA
ATOM     26  C   UNL     1      -1.965  16.981  25.552  0.00  0.00    +0.000 C 
ENDBRANCH   3  25
BRANCH   4  27
ATOM     27  O   UNL     1      -5.579  17.303  24.011  0.00  0.00    +0.000 OA
ATOM     28  C   UNL     1      -5.148  18.448  23.281  0.00  0.00    +0.000 C 
ENDBRANCH   4  27
BRANCH   5  29
ATOM     29  O   UNL     1      -6.423  15.507  21.951  0.00  0.00    +0.000 OA
ATOM     30  C   UNL     1      -7.753  15.396  22.435  0.00  0.00    +0.000 C 
ENDBRANCH   5  29
TORSDOF 7
ENDMDL
MODEL 7
REMARK VINA RESULT:      -6.0      1.334      1.875
REMARK  Name = 
REMARK  12 active torsions:
REMARK  status: ('A' for Active; 'I' for Inactive)
REMARK    1  A    between atoms: C_1  and  O_2
REMARK    2  A    between atoms: O_2  and  C_3
REMARK    3  A    between atoms: C_6  and  C_7
REMARK    4  A    between atoms: C_8  and  C_9
REMARK    5  A    between atoms: C_11  and  O_12
REMARK    6  A    between atoms: O_12  and  C_13
REMARK    7  A    between atoms: C_14  and  O_15
REMARK    8  A    between atoms: O_15  and  C_16
REMARK    9  A    between atoms: C_17  and  O_18
REMARK   10  A    between atoms: O_18  and  C_19
REMARK   11  A    between atoms: C_20  and  C_21
REMARK   12  A    between atoms: C_26  and  C_27
REMARK                            x       y       z     vdW  Elec       q    Type
REMARK                         _______ _______ _______ _____ _____    ______ ____
ROOT
ATOM      1  C   UNL     1       3.712   6.862  18.424  0.00  0.00    +0.000 A 
ATOM      2  C   UNL     1       4.661   7.614  17.722  0.00  0.00    +0.000 A 
ATOM      3  C   UNL     1       5.912   7.104  17.394  0.00  0.00    +0.000 A 
ATOM      4  C   UNL     1       6.220   5.772  17.735  0.00  0.00    +0.000 A 
ATOM      5  C   UNL     1       5.274   4.994  18.468  0.00  0.00    +0.000 A 
ATOM      6  C   UNL     1       3.987   5.529  18.827  0.00  0.00    +0.000 A 
ENDROOT
BRANCH   6   7
ATOM      7  C   UNL     1       2.955   4.737  19.588  0.00  0.00    +0.000 A 
ATOM      8  C   UNL     1       2.898   4.718  20.996  0.00  0.00    +0.000 A 
ATOM      9  C   UNL     1       1.993   3.901  21.685  0.00  0.00    +0.000 A 
ATOM     10  C   UNL     1       1.153   3.050  20.982  0.00  0.00    +0.000 A 
ATOM     11  F   UNL     1       0.338   2.231  21.662  0.00  0.00    +0.000 F 
ATOM     12  C   UNL     1       1.163   3.031  19.592  0.00  0.00    +0.000 A 
ATOM     13  C   UNL     1       0.314   2.071  18.813  0.00  0.00    +0.000 C 
ATOM     14  C   UNL     1       2.022   3.913  18.916  0.00  0.00    +0.000 A 
ENDBRANCH   6   7
BRANCH   1  16
ATOM     15  C   UNL     1       2.122   8.647  17.862  0.00  0.00    +0.000 C 
ATOM     16  C   UNL     1       2.464   7.610  18.642  0.00  0.00    +0.000 C 
BRANCH  15  20
ATOM     17  C   UNL     1      -1.119  11.356  18.617  0.00  0.00    +0.000 A 
ATOM     18  C   UNL     1      -1.285  10.222  17.823  0.00  0.00    +0.000 A 
ATOM     19  C   UNL     1      -0.222   9.343  17.611  0.00  0.00    +0.000 A 
ATOM     20  C   UNL     1       1.038   9.594  18.169  0.00  0.00    +0.000 A 
ATOM     21  C   UNL     1       1.198  10.736  18.965  0.00  0.00    +0.000 A 
ATOM     22  C   UNL     1       0.129  11.617  19.181  0.00  0.00    +0.000 A 
BRANCH  17  24
ATOM     23  C   UNL     1      -2.442  12.720  20.018  0.00  0.00    +0.000 C 
ATOM     24  O   UNL     1      -2.228  12.145  18.736  0.00  0.00    +0.000 OA
ENDBRANCH  17  24
ENDBRANCH  15  20
ENDBRANCH   1  16
BRANCH   3  25
ATOM     25  O   UNL     1       6.836   7.862  16.723  0.00  0.00    +0.000 OA
ATOM     26  C   UNL     1       7.773   8.588  17.514  0.00  0.00    +0.000 C 
ENDBRANCH   3  25
BRANCH   4  27
ATOM     27  O   UNL     1       7.441   5.202  17.461  0.00  0.00    +0.000 OA
ATOM     28  C   UNL     1       7.587   4.447  16.262  0.00  0.00    +0.000 C 
ENDBRANCH   4  27
BRANCH   5  29
ATOM     29  O   UNL     1       5.468   3.687  18.870  0.00  0.00    +0.000 OA
ATOM     30  C   UNL     1       4.840   2.608  18.194  0.00  0.00    +0.000 C 
ENDBRANCH   5  29
TORSDOF 7
ENDMDL
MODEL 8
REMARK VINA RESULT:      -6.0      3.988      8.860
REMARK  Name = 
REMARK  12 active torsions:
REMARK  status: ('A' for Active; 'I' for Inactive)
REMARK    1  A    between atoms: C_1  and  O_2
REMARK    2  A    between atoms: O_2  and  C_3
REMARK    3  A    between atoms: C_6  and  C_7
REMARK    4  A    between atoms: C_8  and  C_9
REMARK    5  A    between atoms: C_11  and  O_12
REMARK    6  A    between atoms: O_12  and  C_13
REMARK    7  A    between atoms: C_14  and  O_15
REMARK    8  A    between atoms: O_15  and  C_16
REMARK    9  A    between atoms: C_17  and  O_18
REMARK   10  A    between atoms: O_18  and  C_19
REMARK   11  A    between atoms: C_20  and  C_21
REMARK   12  A    between atoms: C_26  and  C_27
REMARK                            x       y       z     vdW  Elec       q    Type
REMARK                         _______ _______ _______ _____ _____    ______ ____
ROOT
ATOM      1  C   UNL     1       1.404  12.258  18.577  0.00  0.00    +0.000 A 
ATOM      2  C   UNL     1       2.690  12.789  18.736  0.00  0.00    +0.000 A 
ATOM      3  C   UNL     1       2.910  14.149  18.926  0.00  0.00    +0.000 A 
ATOM      4  C   UNL     1       1.803  15.017  19.009  0.00  0.00    +0.000 A 
ATOM      5  C   UNL     1       0.485  14.499  18.832  0.00  0.00    +0.000 A 
ATOM      6  C   UNL     1       0.257  13.095  18.613  0.00  0.00    +0.000 A 
ENDROOT
BRANCH   6   7
ATOM      7  C   UNL     1      -1.118  12.506  18.434  0.00  0.00    +0.000 A 
ATOM      8  C   UNL     1      -2.037  12.386  19.495  0.00  0.00    +0.000 A 
ATOM      9  C   UNL     1      -3.274  11.750  19.329  0.00  0.00    +0.000 A 
ATOM     10  C   UNL     1      -3.602  11.180  18.109  0.00  0.00    +0.000 A 
ATOM     11  F   UNL     1      -4.763  10.521  17.989  0.00  0.00    +0.000 F 
ATOM     12  C   UNL     1      -2.735  11.272  17.025  0.00  0.00    +0.000 A 
ATOM     13  C   UNL     1      -3.037  10.605  15.717  0.00  0.00    +0.000 C 
ATOM     14  C   UNL     1      -1.533  11.981  17.188  0.00  0.00    +0.000 A 
ENDBRANCH   6   7
BRANCH   1  16
ATOM     15  C   UNL     1       1.471   9.966  19.458  0.00  0.00    +0.000 C 
ATOM     16  C   UNL     1       1.426  10.798  18.405  0.00  0.00    +0.000 C 
BRANCH  15  20
ATOM     17  C   UNL     1       2.313   5.761  19.359  0.00  0.00    +0.000 A 
ATOM     18  C   UNL     1       1.848   6.385  20.515  0.00  0.00    +0.000 A 
ATOM     19  C   UNL     1       1.559   7.751  20.517  0.00  0.00    +0.000 A 
ATOM     20  C   UNL     1       1.752   8.526  19.366  0.00  0.00    +0.000 A 
ATOM     21  C   UNL     1       2.221   7.892  18.207  0.00  0.00    +0.000 A 
ATOM     22  C   UNL     1       2.508   6.519  18.205  0.00  0.00    +0.000 A 
BRANCH  17  24
ATOM     23  C   UNL     1       1.787   3.560  18.683  0.00  0.00    +0.000 C 
ATOM     24  O   UNL     1       2.576   4.426  19.488  0.00  0.00    +0.000 OA
ENDBRANCH  17  24
ENDBRANCH  15  20
ENDBRANCH   1  16
BRANCH   3  25
ATOM     25  O   UNL     1       4.178  14.653  19.058  0.00  0.00    +0.000 OA
ATOM     26  C   UNL     1       4.880  14.959  17.858  0.00  0.00    +0.000 C 
ENDBRANCH   3  25
BRANCH   4  27
ATOM     27  O   UNL     1       1.940  16.375  19.177  0.00  0.00    +0.000 OA
ATOM     28  C   UNL     1       2.199  16.877  20.485  0.00  0.00    +0.000 C 
ENDBRANCH   4  27
BRANCH   5  29
ATOM     29  O   UNL     1      -0.673  15.252  18.878  0.00  0.00    +0.000 OA
ATOM     30  C   UNL     1      -1.176  15.754  20.107  0.00  0.00    +0.000 C 
ENDBRANCH   5  29
TORSDOF 7
ENDMDL
MODEL 9
REMARK VINA RESULT:      -6.0      4.522     11.472
REMARK  Name = 
REMARK  12 active torsions:
REMARK  status: ('A' for Active; 'I' for Inactive)
REMARK    1  A    between atoms: C_1  and  O_2
REMARK    2  A    between atoms: O_2  and  C_3
REMARK    3  A    between atoms: C_6  and  C_7
REMARK    4  A    between atoms: C_8  and  C_9
REMARK    5  A    between atoms: C_11  and  O_12
REMARK    6  A    between atoms: O_12  and  C_13
REMARK    7  A    between atoms: C_14  and  O_15
REMARK    8  A    between atoms: O_15  and  C_16
REMARK    9  A    between atoms: C_17  and  O_18
REMARK   10  A    between atoms: O_18  and  C_19
REMARK   11  A    between atoms: C_20  and  C_21
REMARK   12  A    between atoms: C_26  and  C_27
REMARK                            x       y       z     vdW  Elec       q    Type
REMARK                         _______ _______ _______ _____ _____    ______ ____
ROOT
ATOM      1  C   UNL     1      -2.828  12.859  22.911  0.00  0.00    +0.000 A 
ATOM      2  C   UNL     1      -2.512  13.430  24.150  0.00  0.00    +0.000 A 
ATOM      3  C   UNL     1      -3.157  14.566  24.626  0.00  0.00    +0.000 A 
ATOM      4  C   UNL     1      -4.194  15.136  23.862  0.00  0.00    +0.000 A 
ATOM      5  C   UNL     1      -4.520  14.581  22.587  0.00  0.00    +0.000 A 
ATOM      6  C   UNL     1      -3.838  13.418  22.084  0.00  0.00    +0.000 A 
ENDROOT
BRANCH   6   7
ATOM      7  C   UNL     1      -4.159  12.794  20.750  0.00  0.00    +0.000 A 
ATOM      8  C   UNL     1      -5.440  12.303  20.430  0.00  0.00    +0.000 A 
ATOM      9  C   UNL     1      -5.694  11.641  19.222  0.00  0.00    +0.000 A 
ATOM     10  C   UNL     1      -4.662  11.415  18.325  0.00  0.00    +0.000 A 
ATOM     11  F   UNL     1      -4.913  10.725  17.204  0.00  0.00    +0.000 F 
ATOM     12  C   UNL     1      -3.378  11.882  18.587  0.00  0.00    +0.000 A 
ATOM     13  C   UNL     1      -2.232  11.590  17.665  0.00  0.00    +0.000 C 
ATOM     14  C   UNL     1      -3.159  12.612  19.767  0.00  0.00    +0.000 A 
ENDBRANCH   6   7
BRANCH   1  16
ATOM     15  C   UNL     1      -0.762  11.749  22.180  0.00  0.00    +0.000 C 
ATOM     16  C   UNL     1      -2.023  11.660  22.632  0.00  0.00    +0.000 C 
BRANCH  15  20
ATOM     17  C   UNL     1       1.413   8.482  20.448  0.00  0.00    +0.000 A 
ATOM     18  C   UNL     1       0.945   9.540  19.672  0.00  0.00    +0.000 A 
ATOM     19  C   UNL     1       0.260  10.604  20.261  0.00  0.00    +0.000 A 
ATOM     20  C   UNL     1       0.007  10.618  21.639  0.00  0.00    +0.000 A 
ATOM     21  C   UNL     1       0.479   9.551  22.413  0.00  0.00    +0.000 A 
ATOM     22  C   UNL     1       1.171   8.484  21.821  0.00  0.00    +0.000 A 
BRANCH  17  24
ATOM     23  C   UNL     1       2.404   7.809  18.413  0.00  0.00    +0.000 C 
ATOM     24  O   UNL     1       2.053   7.494  19.754  0.00  0.00    +0.000 OA
ENDBRANCH  17  24
ENDBRANCH  15  20
ENDBRANCH   1  16
BRANCH   3  25
ATOM     25  O   UNL     1      -2.820  15.122  25.833  0.00  0.00    +0.000 OA
ATOM     26  C   UNL     1      -1.533  15.725  25.929  0.00  0.00    +0.000 C 
ENDBRANCH   3  25
BRANCH   4  27
ATOM     27  O   UNL     1      -4.866  16.269  24.257  0.00  0.00    +0.000 OA
ATOM     28  C   UNL     1      -4.282  17.539  23.981  0.00  0.00    +0.000 C 
ENDBRANCH   4  27
BRANCH   5  29
ATOM     29  O   UNL     1      -5.504  15.060  21.745  0.00  0.00    +0.000 OA
ATOM     30  C   UNL     1      -5.227  16.073  20.790  0.00  0.00    +0.000 C 
ENDBRANCH   5  29
TORSDOF 7
ENDMDL
