MODEL 1
REMARK VINA RESULT:      -7.3      0.000      0.000
REMARK  Name = 
REMARK  6 active torsions:
REMARK  status: ('A' for Active; 'I' for Inactive)
REMARK    1  A    between atoms: C_1  and  C_2
REMARK    2  A    between atoms: C_2  and  O_3
REMARK    3  A    between atoms: O_3  and  C_4
REMARK    4  A    between atoms: C_4  and  C_6
REMARK    5  A    between atoms: N_9  and  C_10
REMARK    6  A    between atoms: N_14  and  C_15
REMARK                            x       y       z     vdW  Elec       q    Type
REMARK                         _______ _______ _______ _____ _____    ______ ____
ROOT
ATOM      1  C   UNL     1       2.661   7.751  19.028  0.00  0.00    +0.000 C 
ATOM      2  C   UNL     1       1.985   7.638  20.384  0.00  0.00    +0.000 C 
ATOM      3  C   UNL     1       0.803   8.556  20.297  0.00  0.00    +0.000 C 
ATOM      4  O   UNL     1      -0.015   8.630  21.209  0.00  0.00    +0.000 OA
ATOM      5  N   UNL     1       0.812   9.220  19.094  0.00  0.00    +0.000 N 
ATOM      6  C   UNL     1       1.934   8.908  18.359  0.00  0.00    +0.000 C 
ATOM      7  O   UNL     1       2.342   9.458  17.342  0.00  0.00    +0.000 OA
ENDROOT
BRANCH   5   8
ATOM      8  C   UNL     1      -0.194  10.133  18.652  0.00  0.00    +0.000 A 
ATOM      9  C   UNL     1      -0.354  11.394  19.246  0.00  0.00    +0.000 A 
ATOM     10  C   UNL     1      -1.356  12.275  18.821  0.00  0.00    +0.000 A 
ATOM     11  C   UNL     1      -2.231  11.901  17.806  0.00  0.00    +0.000 A 
ATOM     12  C   UNL     1      -2.095  10.652  17.213  0.00  0.00    +0.000 A 
ATOM     13 CL   UNL     1      -3.197  10.168  15.983  0.00  0.00    +0.000 Cl
ATOM     14  C   UNL     1      -1.084   9.779  17.623  0.00  0.00    +0.000 A 
ENDBRANCH   5   8
BRANCH   1  18
ATOM     15  C   UNL     1       3.204   3.632  17.768  0.00  0.00    +0.000 C 
ATOM     16  C   UNL     1       3.951   4.738  17.019  0.00  0.00    +0.000 C 
ATOM     17  C   UNL     1       3.988   6.044  17.815  0.00  0.00    +0.000 C 
ATOM     18  N   UNL     1       2.649   6.495  18.226  0.00  0.00    +0.000 NA
ATOM     19  C   UNL     1       1.887   5.443  18.925  0.00  0.00    +0.000 C 
ATOM     20  C   UNL     1       1.804   4.153  18.106  0.00  0.00    +0.000 C 
BRANCH  15  21
ATOM     21  C   UNL     1       3.887   3.147  19.041  0.00  0.00    +0.000 C 
ATOM     22  O   UNL     1       5.003   3.516  19.389  0.00  0.00    +0.000 OA
BRANCH  21  23
ATOM     23  O   UNL     1       3.102   2.302  19.763  0.00  0.00    +0.000 OA
BRANCH  23  25
ATOM     24  C   UNL     1       1.575   2.754  21.598  0.00  0.00    +0.000 C 
ATOM     25  C   UNL     1       3.023   2.596  21.169  0.00  0.00    +0.000 C 
ENDBRANCH  23  25
ENDBRANCH  21  23
ENDBRANCH  15  21
ENDBRANCH   1  18
TORSDOF 5
ENDMDL
MODEL 2
REMARK VINA RESULT:      -7.1      1.158      1.492
REMARK  Name = 
REMARK  6 active torsions:
REMARK  status: ('A' for Active; 'I' for Inactive)
REMARK    1  A    between atoms: C_1  and  C_2
REMARK    2  A    between atoms: C_2  and  O_3
REMARK    3  A    between atoms: O_3  and  C_4
REMARK    4  A    between atoms: C_4  and  C_6
REMARK    5  A    between atoms: N_9  and  C_10
REMARK    6  A    between atoms: N_14  and  C_15
REMARK                            x       y       z     vdW  Elec       q    Type
REMARK                         _______ _______ _______ _____ _____    ______ ____
ROOT
ATOM      1  C   UNL     1       2.767   7.525  18.894  0.00  0.00    +0.000 C 
ATOM      2  C   UNL     1       2.132   7.486  20.273  0.00  0.00    +0.000 C 
ATOM      3  C   UNL     1       1.009   8.476  20.203  0.00  0.00    +0.000 C 
ATOM      4  O   UNL     1       0.229   8.623  21.139  0.00  0.00    +0.000 OA
ATOM      5  N   UNL     1       1.020   9.111  18.984  0.00  0.00    +0.000 N 
ATOM      6  C   UNL     1       2.094   8.712  18.221  0.00  0.00    +0.000 C 
ATOM      7  O   UNL     1       2.502   9.211  17.178  0.00  0.00    +0.000 OA
ENDROOT
BRANCH   5   8
ATOM      8  C   UNL     1       0.060  10.077  18.554  0.00  0.00    +0.000 A 
ATOM      9  C   UNL     1      -1.024   9.724  17.735  0.00  0.00    +0.000 A 
ATOM     10  C   UNL     1      -1.949  10.681  17.301  0.00  0.00    +0.000 A 
ATOM     11  C   UNL     1      -1.794  12.015  17.660  0.00  0.00    +0.000 A 
ATOM     12  C   UNL     1      -0.721  12.387  18.460  0.00  0.00    +0.000 A 
ATOM     13 CL   UNL     1      -0.502  14.043  18.878  0.00  0.00    +0.000 Cl
ATOM     14  C   UNL     1       0.192  11.431  18.910  0.00  0.00    +0.000 A 
ENDBRANCH   5   8
BRANCH   1  18
ATOM     15  C   UNL     1       3.019   3.356  17.708  0.00  0.00    +0.000 C 
ATOM     16  C   UNL     1       3.792   4.401  16.900  0.00  0.00    +0.000 C 
ATOM     17  C   UNL     1       3.939   5.719  17.663  0.00  0.00    +0.000 C 
ATOM     18  N   UNL     1       2.648   6.254  18.123  0.00  0.00    +0.000 NA
ATOM     19  C   UNL     1       1.861   5.262  18.880  0.00  0.00    +0.000 C 
ATOM     20  C   UNL     1       1.668   3.963  18.097  0.00  0.00    +0.000 C 
BRANCH  15  21
ATOM     21  C   UNL     1       3.733   2.859  18.960  0.00  0.00    +0.000 C 
ATOM     22  O   UNL     1       4.912   3.090  19.200  0.00  0.00    +0.000 OA
BRANCH  21  23
ATOM     23  O   UNL     1       2.902   2.177  19.796  0.00  0.00    +0.000 OA
BRANCH  23  25
ATOM     24  C   UNL     1       1.417   2.730  21.638  0.00  0.00    +0.000 C 
ATOM     25  C   UNL     1       2.853   2.675  21.144  0.00  0.00    +0.000 C 
ENDBRANCH  23  25
ENDBRANCH  21  23
ENDBRANCH  15  21
ENDBRANCH   1  18
TORSDOF 5
ENDMDL
MODEL 3
REMARK VINA RESULT:      -7.1      3.183      5.397
REMARK  Name = 
REMARK  6 active torsions:
REMARK  status: ('A' for Active; 'I' for Inactive)
REMARK    1  A    between atoms: C_1  and  C_2
REMARK    2  A    between atoms: C_2  and  O_3
REMARK    3  A    between atoms: O_3  and  C_4
REMARK    4  A    between atoms: C_4  and  C_6
REMARK    5  A    between atoms: N_9  and  C_10
REMARK    6  A    between atoms: N_14  and  C_15
REMARK                            x       y       z     vdW  Elec       q    Type
REMARK                         _______ _______ _______ _____ _____    ______ ____
ROOT
ATOM      1  C   UNL     1       4.044   3.550  18.593  0.00  0.00    +0.000 C 
ATOM      2  C   UNL     1       2.746   3.214  17.879  0.00  0.00    +0.000 C 
ATOM      3  C   UNL     1       1.928   4.466  17.968  0.00  0.00    +0.000 C 
ATOM      4  O   UNL     1       0.842   4.559  17.404  0.00  0.00    +0.000 OA
ATOM      5  N   UNL     1       2.588   5.405  18.724  0.00  0.00    +0.000 N 
ATOM      6  C   UNL     1       3.761   4.898  19.237  0.00  0.00    +0.000 C 
ATOM      7  O   UNL     1       4.484   5.398  20.092  0.00  0.00    +0.000 OA
ENDROOT
BRANCH   5   8
ATOM      8  C   UNL     1       2.124   6.732  18.973  0.00  0.00    +0.000 A 
ATOM      9  C   UNL     1       2.124   7.712  17.968  0.00  0.00    +0.000 A 
ATOM     10  C   UNL     1       1.687   9.017  18.225  0.00  0.00    +0.000 A 
ATOM     11  C   UNL     1       1.261   9.372  19.500  0.00  0.00    +0.000 A 
ATOM     12  C   UNL     1       1.264   8.420  20.511  0.00  0.00    +0.000 A 
ATOM     13 CL   UNL     1       0.774   8.862  22.101  0.00  0.00    +0.000 Cl
ATOM     14  C   UNL     1       1.682   7.112  20.252  0.00  0.00    +0.000 A 
ENDBRANCH   5   8
BRANCH   1  18
ATOM     15  C   UNL     1       7.275   4.814  15.983  0.00  0.00    +0.000 C 
ATOM     16  C   UNL     1       6.213   3.860  15.433  0.00  0.00    +0.000 C 
ATOM     17  C   UNL     1       4.955   3.840  16.305  0.00  0.00    +0.000 C 
ATOM     18  N   UNL     1       5.250   3.547  17.717  0.00  0.00    +0.000 NA
ATOM     19  C   UNL     1       6.294   4.429  18.273  0.00  0.00    +0.000 C 
ATOM     20  C   UNL     1       7.571   4.409  17.430  0.00  0.00    +0.000 C 
BRANCH  15  21
ATOM     21  C   UNL     1       6.896   6.291  15.936  0.00  0.00    +0.000 C 
ATOM     22  O   UNL     1       5.851   6.702  15.446  0.00  0.00    +0.000 OA
BRANCH  21  23
ATOM     23  O   UNL     1       7.822   7.085  16.540  0.00  0.00    +0.000 OA
BRANCH  23  25
ATOM     24  C   UNL     1       8.294   9.039  17.905  0.00  0.00    +0.000 C 
ATOM     25  C   UNL     1       7.313   7.922  17.592  0.00  0.00    +0.000 C 
ENDBRANCH  23  25
ENDBRANCH  21  23
ENDBRANCH  15  21
ENDBRANCH   1  18
TORSDOF 5
ENDMDL
MODEL 4
REMARK VINA RESULT:      -7.0      3.112      5.463
REMARK  Name = 
REMARK  6 active torsions:
REMARK  status: ('A' for Active; 'I' for Inactive)
REMARK    1  A    between atoms: C_1  and  C_2
REMARK    2  A    between atoms: C_2  and  O_3
REMARK    3  A    between atoms: O_3  and  C_4
REMARK    4  A    between atoms: C_4  and  C_6
REMARK    5  A    between atoms: N_9  and  C_10
REMARK    6  A    between atoms: N_14  and  C_15
REMARK                            x       y       z     vdW  Elec       q    Type
REMARK                         _______ _______ _______ _____ _____    ______ ____
ROOT
ATOM      1  C   UNL     1       4.117   3.339  18.350  0.00  0.00    +0.000 C 
ATOM      2  C   UNL     1       2.824   3.138  17.579  0.00  0.00    +0.000 C 
ATOM      3  C   UNL     1       2.001   4.351  17.891  0.00  0.00    +0.000 C 
ATOM      4  O   UNL     1       0.919   4.545  17.348  0.00  0.00    +0.000 OA
ATOM      5  N   UNL     1       2.655   5.136  18.811  0.00  0.00    +0.000 N 
ATOM      6  C   UNL     1       3.827   4.546  19.229  0.00  0.00    +0.000 C 
ATOM      7  O   UNL     1       4.544   4.881  20.165  0.00  0.00    +0.000 OA
ENDROOT
BRANCH   5   8
ATOM      8  C   UNL     1       2.187   6.395  19.296  0.00  0.00    +0.000 A 
ATOM      9  C   UNL     1       1.656   6.535  20.588  0.00  0.00    +0.000 A 
ATOM     10  C   UNL     1       1.181   7.768  21.048  0.00  0.00    +0.000 A 
ATOM     11  C   UNL     1       1.207   8.882  20.216  0.00  0.00    +0.000 A 
ATOM     12  C   UNL     1       1.719   8.762  18.931  0.00  0.00    +0.000 A 
ATOM     13 CL   UNL     1       1.722  10.127  17.882  0.00  0.00    +0.000 Cl
ATOM     14  C   UNL     1       2.212   7.537  18.475  0.00  0.00    +0.000 A 
ENDBRANCH   5   8
BRANCH   1  18
ATOM     15  C   UNL     1       7.320   5.062  15.980  0.00  0.00    +0.000 C 
ATOM     16  C   UNL     1       6.293   4.163  15.290  0.00  0.00    +0.000 C 
ATOM     17  C   UNL     1       5.032   3.980  16.136  0.00  0.00    +0.000 C 
ATOM     18  N   UNL     1       5.328   3.498  17.495  0.00  0.00    +0.000 NA
ATOM     19  C   UNL     1       6.339   4.325  18.181  0.00  0.00    +0.000 C 
ATOM     20  C   UNL     1       7.621   4.465  17.358  0.00  0.00    +0.000 C 
BRANCH  15  21
ATOM     21  C   UNL     1       6.894   6.517  16.139  0.00  0.00    +0.000 C 
ATOM     22  O   UNL     1       5.800   6.941  15.785  0.00  0.00    +0.000 OA
BRANCH  21  23
ATOM     23  O   UNL     1       7.843   7.273  16.759  0.00  0.00    +0.000 OA
BRANCH  23  25
ATOM     24  C   UNL     1       8.475   9.137  18.183  0.00  0.00    +0.000 C 
ATOM     25  C   UNL     1       7.333   8.358  17.553  0.00  0.00    +0.000 C 
ENDBRANCH  23  25
ENDBRANCH  21  23
ENDBRANCH  15  21
ENDBRANCH   1  18
TORSDOF 5
ENDMDL
MODEL 5
REMARK VINA RESULT:      -7.0      1.166      2.047
REMARK  Name = 
REMARK  6 active torsions:
REMARK  status: ('A' for Active; 'I' for Inactive)
REMARK    1  A    between atoms: C_1  and  C_2
REMARK    2  A    between atoms: C_2  and  O_3
REMARK    3  A    between atoms: O_3  and  C_4
REMARK    4  A    between atoms: C_4  and  C_6
REMARK    5  A    between atoms: N_9  and  C_10
REMARK    6  A    between atoms: N_14  and  C_15
REMARK                            x       y       z     vdW  Elec       q    Type
REMARK                         _______ _______ _______ _____ _____    ______ ____
ROOT
ATOM      1  C   UNL     1       2.531   7.967  19.233  0.00  0.00    +0.000 C 
ATOM      2  C   UNL     1       1.796   7.863  20.558  0.00  0.00    +0.000 C 
ATOM      3  C   UNL     1       0.562   8.693  20.375  0.00  0.00    +0.000 C 
ATOM      4  O   UNL     1      -0.304   8.749  21.243  0.00  0.00    +0.000 OA
ATOM      5  N   UNL     1       0.587   9.306  19.145  0.00  0.00    +0.000 N 
ATOM      6  C   UNL     1       1.764   9.043  18.479  0.00  0.00    +0.000 C 
ATOM      7  O   UNL     1       2.185   9.577  17.459  0.00  0.00    +0.000 OA
ENDROOT
BRANCH   5   8
ATOM      8  C   UNL     1      -0.454  10.129  18.616  0.00  0.00    +0.000 A 
ATOM      9  C   UNL     1      -0.772  11.371  19.188  0.00  0.00    +0.000 A 
ATOM     10  C   UNL     1      -1.807  12.162  18.676  0.00  0.00    +0.000 A 
ATOM     11  C   UNL     1      -2.559  11.715  17.594  0.00  0.00    +0.000 A 
ATOM     12  C   UNL     1      -2.266  10.484  17.022  0.00  0.00    +0.000 A 
ATOM     13 CL   UNL     1      -3.216   9.908  15.707  0.00  0.00    +0.000 Cl
ATOM     14  C   UNL     1      -1.221   9.701  17.519  0.00  0.00    +0.000 A 
ENDBRANCH   5   8
BRANCH   1  18
ATOM     15  C   UNL     1       3.826   4.038  17.917  0.00  0.00    +0.000 C 
ATOM     16  C   UNL     1       3.983   5.224  16.963  0.00  0.00    +0.000 C 
ATOM     17  C   UNL     1       3.878   6.563  17.694  0.00  0.00    +0.000 C 
ATOM     18  N   UNL     1       2.643   6.681  18.487  0.00  0.00    +0.000 NA
ATOM     19  C   UNL     1       2.444   5.537  19.397  0.00  0.00    +0.000 C 
ATOM     20  C   UNL     1       2.496   4.199  18.658  0.00  0.00    +0.000 C 
BRANCH  15  21
ATOM     21  C   UNL     1       4.955   3.876  18.929  0.00  0.00    +0.000 C 
ATOM     22  O   UNL     1       4.818   3.303  20.004  0.00  0.00    +0.000 OA
BRANCH  21  23
ATOM     23  O   UNL     1       6.133   4.393  18.482  0.00  0.00    +0.000 OA
BRANCH  23  25
ATOM     24  C   UNL     1       7.690   6.255  18.592  0.00  0.00    +0.000 C 
ATOM     25  C   UNL     1       6.755   5.341  19.366  0.00  0.00    +0.000 C 
ENDBRANCH  23  25
ENDBRANCH  21  23
ENDBRANCH  15  21
ENDBRANCH   1  18
TORSDOF 5
ENDMDL
MODEL 6
REMARK VINA RESULT:      -6.8      4.801      7.519
REMARK  Name = 
REMARK  6 active torsions:
REMARK  status: ('A' for Active; 'I' for Inactive)
REMARK    1  A    between atoms: C_1  and  C_2
REMARK    2  A    between atoms: C_2  and  O_3
REMARK    3  A    between atoms: O_3  and  C_4
REMARK    4  A    between atoms: C_4  and  C_6
REMARK    5  A    between atoms: N_9  and  C_10
REMARK    6  A    between atoms: N_14  and  C_15
REMARK                            x       y       z     vdW  Elec       q    Type
REMARK                         _______ _______ _______ _____ _____    ______ ____
ROOT
ATOM      1  C   UNL     1       5.984   4.891  18.115  0.00  0.00    +0.000 C 
ATOM      2  C   UNL     1       5.068   6.001  17.631  0.00  0.00    +0.000 C 
ATOM      3  C   UNL     1       5.276   6.046  16.147  0.00  0.00    +0.000 C 
ATOM      4  O   UNL     1       4.609   6.788  15.432  0.00  0.00    +0.000 OA
ATOM      5  N   UNL     1       6.261   5.159  15.785  0.00  0.00    +0.000 N 
ATOM      6  C   UNL     1       6.816   4.550  16.888  0.00  0.00    +0.000 C 
ATOM      7  O   UNL     1       7.827   3.858  16.935  0.00  0.00    +0.000 OA
ENDROOT
BRANCH   5   8
ATOM      8  C   UNL     1       6.681   4.901  14.445  0.00  0.00    +0.000 A 
ATOM      9  C   UNL     1       7.657   5.689  13.815  0.00  0.00    +0.000 A 
ATOM     10  C   UNL     1       8.048   5.443  12.494  0.00  0.00    +0.000 A 
ATOM     11  C   UNL     1       7.454   4.415  11.770  0.00  0.00    +0.000 A 
ATOM     12  C   UNL     1       6.480   3.630  12.372  0.00  0.00    +0.000 A 
ATOM     13 CL   UNL     1       5.714   2.380  11.469  0.00  0.00    +0.000 Cl
ATOM     14  C   UNL     1       6.100   3.862  13.696  0.00  0.00    +0.000 A 
ENDBRANCH   5   8
BRANCH   1  18
ATOM     15  C   UNL     1       2.884   2.234  19.593  0.00  0.00    +0.000 C 
ATOM     16  C   UNL     1       3.919   2.779  20.578  0.00  0.00    +0.000 C 
ATOM     17  C   UNL     1       4.665   3.990  20.013  0.00  0.00    +0.000 C 
ATOM     18  N   UNL     1       5.275   3.717  18.701  0.00  0.00    +0.000 NA
ATOM     19  C   UNL     1       4.310   3.160  17.733  0.00  0.00    +0.000 C 
ATOM     20  C   UNL     1       3.602   1.918  18.278  0.00  0.00    +0.000 C 
BRANCH  15  21
ATOM     21  C   UNL     1       1.708   3.165  19.319  0.00  0.00    +0.000 C 
ATOM     22  O   UNL     1       1.183   3.280  18.217  0.00  0.00    +0.000 OA
BRANCH  21  23
ATOM     23  O   UNL     1       1.282   3.809  20.439  0.00  0.00    +0.000 OA
BRANCH  23  25
ATOM     24  C   UNL     1       1.992   6.131  20.339  0.00  0.00    +0.000 C 
ATOM     25  C   UNL     1       0.830   5.159  20.231  0.00  0.00    +0.000 C 
ENDBRANCH  23  25
ENDBRANCH  21  23
ENDBRANCH  15  21
ENDBRANCH   1  18
TORSDOF 5
ENDMDL
MODEL 7
REMARK VINA RESULT:      -6.7      1.125      1.905
REMARK  Name = 
REMARK  6 active torsions:
REMARK  status: ('A' for Active; 'I' for Inactive)
REMARK    1  A    between atoms: C_1  and  C_2
REMARK    2  A    between atoms: C_2  and  O_3
REMARK    3  A    between atoms: O_3  and  C_4
REMARK    4  A    between atoms: C_4  and  C_6
REMARK    5  A    between atoms: N_9  and  C_10
REMARK    6  A    between atoms: N_14  and  C_15
REMARK                            x       y       z     vdW  Elec       q    Type
REMARK                         _______ _______ _______ _____ _____    ______ ____
ROOT
ATOM      1  C   UNL     1       2.225   7.384  19.799  0.00  0.00    +0.000 C 
ATOM      2  C   UNL     1       1.750   7.805  21.179  0.00  0.00    +0.000 C 
ATOM      3  C   UNL     1       0.846   8.974  20.930  0.00  0.00    +0.000 C 
ATOM      4  O   UNL     1       0.219   9.501  21.843  0.00  0.00    +0.000 OA
ATOM      5  N   UNL     1       0.849   9.292  19.593  0.00  0.00    +0.000 N 
ATOM      6  C   UNL     1       1.732   8.501  18.892  0.00  0.00    +0.000 C 
ATOM      7  O   UNL     1       2.113   8.643  17.736  0.00  0.00    +0.000 OA
ENDROOT
BRANCH   5   8
ATOM      8  C   UNL     1       0.060  10.319  18.991  0.00  0.00    +0.000 A 
ATOM      9  C   UNL     1       0.399  11.676  19.115  0.00  0.00    +0.000 A 
ATOM     10  C   UNL     1      -0.392  12.678  18.540  0.00  0.00    +0.000 A 
ATOM     11  C   UNL     1      -1.550  12.342  17.847  0.00  0.00    +0.000 A 
ATOM     12  C   UNL     1      -1.908  11.006  17.723  0.00  0.00    +0.000 A 
ATOM     13 CL   UNL     1      -3.360  10.586  16.898  0.00  0.00    +0.000 Cl
ATOM     14  C   UNL     1      -1.111  10.004  18.280  0.00  0.00    +0.000 A 
ENDBRANCH   5   8
BRANCH   1  18
ATOM     15  C   UNL     1       2.103   3.122  18.978  0.00  0.00    +0.000 C 
ATOM     16  C   UNL     1       2.020   4.102  17.806  0.00  0.00    +0.000 C 
ATOM     17  C   UNL     1       2.483   5.506  18.200  0.00  0.00    +0.000 C 
ATOM     18  N   UNL     1       1.771   6.028  19.377  0.00  0.00    +0.000 NA
ATOM     19  C   UNL     1       1.804   5.094  20.519  0.00  0.00    +0.000 C 
ATOM     20  C   UNL     1       1.291   3.704  20.139  0.00  0.00    +0.000 C 
BRANCH  15  21
ATOM     21  C   UNL     1       3.517   2.810  19.453  0.00  0.00    +0.000 C 
ATOM     22  O   UNL     1       3.766   2.309  20.544  0.00  0.00    +0.000 OA
BRANCH  21  23
ATOM     23  O   UNL     1       4.459   3.104  18.515  0.00  0.00    +0.000 OA
BRANCH  23  25
ATOM     24  C   UNL     1       6.138   4.690  17.762  0.00  0.00    +0.000 C 
ATOM     25  C   UNL     1       5.494   4.001  18.952  0.00  0.00    +0.000 C 
ENDBRANCH  23  25
ENDBRANCH  21  23
ENDBRANCH  15  21
ENDBRANCH   1  18
TORSDOF 5
ENDMDL
MODEL 8
REMARK VINA RESULT:      -6.7      1.672      2.455
REMARK  Name = 
REMARK  6 active torsions:
REMARK  status: ('A' for Active; 'I' for Inactive)
REMARK    1  A    between atoms: C_1  and  C_2
REMARK    2  A    between atoms: C_2  and  O_3
REMARK    3  A    between atoms: O_3  and  C_4
REMARK    4  A    between atoms: C_4  and  C_6
REMARK    5  A    between atoms: N_9  and  C_10
REMARK    6  A    between atoms: N_14  and  C_15
REMARK                            x       y       z     vdW  Elec       q    Type
REMARK                         _______ _______ _______ _____ _____    ______ ____
ROOT
ATOM      1  C   UNL     1       2.201   7.425  19.814  0.00  0.00    +0.000 C 
ATOM      2  C   UNL     1       1.753   7.822  21.210  0.00  0.00    +0.000 C 
ATOM      3  C   UNL     1       0.868   9.014  21.001  0.00  0.00    +0.000 C 
ATOM      4  O   UNL     1       0.264   9.531  21.935  0.00  0.00    +0.000 OA
ATOM      5  N   UNL     1       0.859   9.363  19.671  0.00  0.00    +0.000 N 
ATOM      6  C   UNL     1       1.717   8.572  18.940  0.00  0.00    +0.000 C 
ATOM      7  O   UNL     1       2.085   8.734  17.782  0.00  0.00    +0.000 OA
ENDROOT
BRANCH   5   8
ATOM      8  C   UNL     1       0.082  10.419  19.106  0.00  0.00    +0.000 A 
ATOM      9  C   UNL     1      -1.091  10.162  18.379  0.00  0.00    +0.000 A 
ATOM     10  C   UNL     1      -1.836  11.201  17.810  0.00  0.00    +0.000 A 
ATOM     11  C   UNL     1      -1.410  12.519  17.940  0.00  0.00    +0.000 A 
ATOM     12  C   UNL     1      -0.246  12.793  18.646  0.00  0.00    +0.000 A 
ATOM     13 CL   UNL     1       0.309  14.418  18.778  0.00  0.00    +0.000 Cl
ATOM     14  C   UNL     1       0.490  11.759  19.230  0.00  0.00    +0.000 A 
ENDBRANCH   5   8
BRANCH   1  18
ATOM     15  C   UNL     1       1.986   3.188  18.889  0.00  0.00    +0.000 C 
ATOM     16  C   UNL     1       1.900   4.198  17.744  0.00  0.00    +0.000 C 
ATOM     17  C   UNL     1       2.396   5.583  18.164  0.00  0.00    +0.000 C 
ATOM     18  N   UNL     1       1.714   6.088  19.367  0.00  0.00    +0.000 NA
ATOM     19  C   UNL     1       1.751   5.125  20.484  0.00  0.00    +0.000 C 
ATOM     20  C   UNL     1       1.206   3.754  20.079  0.00  0.00    +0.000 C 
BRANCH  15  21
ATOM     21  C   UNL     1       3.403   2.839  19.331  0.00  0.00    +0.000 C 
ATOM     22  O   UNL     1       3.661   2.305  20.403  0.00  0.00    +0.000 OA
BRANCH  21  23
ATOM     23  O   UNL     1       4.333   3.141  18.384  0.00  0.00    +0.000 OA
BRANCH  23  25
ATOM     24  C   UNL     1       6.044   4.707  17.659  0.00  0.00    +0.000 C 
ATOM     25  C   UNL     1       5.408   3.984  18.834  0.00  0.00    +0.000 C 
ENDBRANCH  23  25
ENDBRANCH  21  23
ENDBRANCH  15  21
ENDBRANCH   1  18
TORSDOF 5
ENDMDL
MODEL 9
REMARK VINA RESULT:      -6.5      4.336      7.525
REMARK  Name = 
REMARK  6 active torsions:
REMARK  status: ('A' for Active; 'I' for Inactive)
REMARK    1  A    between atoms: C_1  and  C_2
REMARK    2  A    between atoms: C_2  and  O_3
REMARK    3  A    between atoms: O_3  and  C_4
REMARK    4  A    between atoms: C_4  and  C_6
REMARK    5  A    between atoms: N_9  and  C_10
REMARK    6  A    between atoms: N_14  and  C_15
REMARK                            x       y       z     vdW  Elec       q    Type
REMARK                         _______ _______ _______ _____ _____    ______ ____
ROOT
ATOM      1  C   UNL     1       5.434   4.969  17.861  0.00  0.00    +0.000 C 
ATOM      2  C   UNL     1       4.825   6.251  17.322  0.00  0.00    +0.000 C 
ATOM      3  C   UNL     1       5.181   6.260  15.866  0.00  0.00    +0.000 C 
ATOM      4  O   UNL     1       4.759   7.130  15.111  0.00  0.00    +0.000 OA
ATOM      5  N   UNL     1       5.987   5.185  15.575  0.00  0.00    +0.000 N 
ATOM      6  C   UNL     1       6.291   4.466  16.709  0.00  0.00    +0.000 C 
ATOM      7  O   UNL     1       7.124   3.575  16.833  0.00  0.00    +0.000 OA
ENDROOT
BRANCH   5   8
ATOM      8  C   UNL     1       6.472   4.851  14.274  0.00  0.00    +0.000 A 
ATOM      9  C   UNL     1       7.500   5.585  13.661  0.00  0.00    +0.000 A 
ATOM     10  C   UNL     1       7.955   5.265  12.377  0.00  0.00    +0.000 A 
ATOM     11  C   UNL     1       7.376   4.215  11.672  0.00  0.00    +0.000 A 
ATOM     12  C   UNL     1       6.351   3.483  12.257  0.00  0.00    +0.000 A 
ATOM     13 CL   UNL     1       5.604   2.206  11.377  0.00  0.00    +0.000 Cl
ATOM     14  C   UNL     1       5.907   3.790  13.546  0.00  0.00    +0.000 A 
ENDBRANCH   5   8
BRANCH   1  18
ATOM     15  C   UNL     1       2.239   3.041  20.080  0.00  0.00    +0.000 C 
ATOM     16  C   UNL     1       3.658   2.482  20.195  0.00  0.00    +0.000 C 
ATOM     17  C   UNL     1       4.708   3.483  19.710  0.00  0.00    +0.000 C 
ATOM     18  N   UNL     1       4.440   3.969  18.347  0.00  0.00    +0.000 NA
ATOM     19  C   UNL     1       3.068   4.489  18.191  0.00  0.00    +0.000 C 
ATOM     20  C   UNL     1       2.015   3.468  18.627  0.00  0.00    +0.000 C 
BRANCH  15  21
ATOM     21  C   UNL     1       1.935   4.214  21.007  0.00  0.00    +0.000 C 
ATOM     22  O   UNL     1       2.419   4.329  22.127  0.00  0.00    +0.000 OA
BRANCH  21  23
ATOM     23  O   UNL     1       1.111   5.131  20.432  0.00  0.00    +0.000 OA
BRANCH  23  25
ATOM     24  C   UNL     1       2.156   7.265  19.924  0.00  0.00    +0.000 C 
ATOM     25  C   UNL     1       1.288   6.482  20.893  0.00  0.00    +0.000 C 
ENDBRANCH  23  25
ENDBRANCH  21  23
ENDBRANCH  15  21
ENDBRANCH   1  18
TORSDOF 5
ENDMDL
