MODEL 1
REMARK VINA RESULT:      -5.2      0.000      0.000
REMARK  Name = 
REMARK  11 active torsions:
REMARK  status: ('A' for Active; 'I' for Inactive)
REMARK    1  A    between atoms: P_2  and  O_3
REMARK    2  A    between atoms: P_2  and  O_4
REMARK    3  A    between atoms: P_2  and  O_5
REMARK    4  A    between atoms: O_5  and  P_6
REMARK    5  A    between atoms: P_6  and  O_8
REMARK    6  A    between atoms: P_6  and  O_9
REMARK    7  A    between atoms: O_9  and  C_10
REMARK    8  A    between atoms: C_10  and  C_11
REMARK    9  A    between atoms: C_11  and  C_12
REMARK   10  A    between atoms: C_12  and  O_13
REMARK   11  A    between atoms: C_12  and  C_14
REMARK                            x       y       z     vdW  Elec       q    Type
REMARK                         _______ _______ _______ _____ _____    ______ ____
ROOT
ATOM      1  P   UNL     1       4.887   3.968  17.510  0.00  0.00    +0.000 P 
ATOM      2  O   UNL     1       3.710   4.818  17.044  0.00  0.00    +0.000 OA
ENDROOT
BRANCH   1   3
ATOM      3  O   UNL     1       5.675   3.396  16.186  0.00  0.00    +0.000 OA
ATOM      4  H   UNL     1       5.201   2.668  15.733  0.00  0.00    +0.000 HD
ENDBRANCH   1   3
BRANCH   1   5
ATOM      5  O   UNL     1       5.903   5.368  17.502  0.00  0.00    +0.000 OA
BRANCH   5   7
ATOM      6  O   UNL     1       7.669   5.420  14.740  0.00  0.00    +0.000 OA
ATOM      7  P   UNL     1       6.834   5.395  16.044  0.00  0.00    +0.000 P 
BRANCH   7   8
ATOM      8  O   UNL     1       7.604   6.697  16.661  0.00  0.00    +0.000 OA
ATOM      9  H   UNL     1       7.392   7.475  16.108  0.00  0.00    +0.000 HD
ENDBRANCH   7   8
BRANCH   7  10
ATOM     10  O   UNL     1       5.608   6.234  15.362  0.00  0.00    +0.000 OA
ATOM     11  H   UNL     1       5.090   6.619  16.096  0.00  0.00    +0.000 HD
ENDBRANCH   7  10
ENDBRANCH   5   7
ENDBRANCH   1   5
BRANCH   1  12
ATOM     12  O   UNL     1       3.870   2.567  17.516  0.00  0.00    +0.000 OA
BRANCH  12  13
ATOM     13  C   UNL     1       3.445   2.230  18.830  0.00  0.00    +0.000 C 
BRANCH  13  14
ATOM     14  C   UNL     1       1.976   1.834  18.837  0.00  0.00    +0.000 C 
BRANCH  14  15
ATOM     15  C   UNL     1       1.016   3.025  18.863  0.00  0.00    +0.000 C 
BRANCH  15  16
ATOM     16  O   UNL     1       1.165   3.723  17.618  0.00  0.00    +0.000 OA
ATOM     17  H   UNL     1       1.893   4.365  17.712  0.00  0.00    +0.000 HD
ENDBRANCH  15  16
BRANCH  15  18
ATOM     18  C   UNL     1       1.229   3.944  20.070  0.00  0.00    +0.000 C 
ATOM     19 BR   UNL     1       1.515   2.871  21.679  0.00  0.00    +0.000 Br
ENDBRANCH  15  18
ENDBRANCH  14  15
ENDBRANCH  13  14
ENDBRANCH  12  13
ENDBRANCH   1  12
TORSDOF 11
ENDMDL
MODEL 2
REMARK VINA RESULT:      -5.2      1.684      2.896
REMARK  Name = 
REMARK  11 active torsions:
REMARK  status: ('A' for Active; 'I' for Inactive)
REMARK    1  A    between atoms: P_2  and  O_3
REMARK    2  A    between atoms: P_2  and  O_4
REMARK    3  A    between atoms: P_2  and  O_5
REMARK    4  A    between atoms: O_5  and  P_6
REMARK    5  A    between atoms: P_6  and  O_8
REMARK    6  A    between atoms: P_6  and  O_9
REMARK    7  A    between atoms: O_9  and  C_10
REMARK    8  A    between atoms: C_10  and  C_11
REMARK    9  A    between atoms: C_11  and  C_12
REMARK   10  A    between atoms: C_12  and  O_13
REMARK   11  A    between atoms: C_12  and  C_14
REMARK                            x       y       z     vdW  Elec       q    Type
REMARK                         _______ _______ _______ _____ _____    ______ ____
ROOT
ATOM      1  P   UNL     1       6.903   5.009  17.682  0.00  0.00    +0.000 P 
ATOM      2  O   UNL     1       8.164   4.281  18.135  0.00  0.00    +0.000 OA
ENDROOT
BRANCH   1   3
ATOM      3  O   UNL     1       7.115   6.620  17.925  0.00  0.00    +0.000 OA
ATOM      4  H   UNL     1       6.751   7.175  17.203  0.00  0.00    +0.000 HD
ENDBRANCH   1   3
BRANCH   1   5
ATOM      5  O   UNL     1       7.566   5.169  16.091  0.00  0.00    +0.000 OA
BRANCH   5   7
ATOM      6  O   UNL     1       5.378   4.116  13.889  0.00  0.00    +0.000 OA
ATOM      7  P   UNL     1       6.413   4.613  14.929  0.00  0.00    +0.000 P 
BRANCH   7   8
ATOM      8  O   UNL     1       5.358   5.666  15.597  0.00  0.00    +0.000 OA
ATOM      9  H   UNL     1       5.778   6.549  15.630  0.00  0.00    +0.000 HD
ENDBRANCH   7   8
BRANCH   7  10
ATOM     10  O   UNL     1       6.086   3.379  15.951  0.00  0.00    +0.000 OA
ATOM     11  H   UNL     1       5.897   2.598  15.396  0.00  0.00    +0.000 HD
ENDBRANCH   7  10
ENDBRANCH   5   7
ENDBRANCH   1   5
BRANCH   1  12
ATOM     12  O   UNL     1       6.241   4.850  19.273  0.00  0.00    +0.000 OA
BRANCH  12  13
ATOM     13  C   UNL     1       4.825   4.728  19.245  0.00  0.00    +0.000 C 
BRANCH  13  14
ATOM     14  C   UNL     1       4.408   3.266  19.295  0.00  0.00    +0.000 C 
BRANCH  14  15
ATOM     15  C   UNL     1       3.544   2.829  18.111  0.00  0.00    +0.000 C 
BRANCH  15  16
ATOM     16  O   UNL     1       3.404   3.963  17.242  0.00  0.00    +0.000 OA
ATOM     17  H   UNL     1       2.577   4.426  17.474  0.00  0.00    +0.000 HD
ENDBRANCH  15  16
BRANCH  15  18
ATOM     18  C   UNL     1       2.190   2.254  18.533  0.00  0.00    +0.000 C 
ATOM     19 BR   UNL     1       1.248   3.537  19.670  0.00  0.00    +0.000 Br
ENDBRANCH  15  18
ENDBRANCH  14  15
ENDBRANCH  13  14
ENDBRANCH  12  13
ENDBRANCH   1  12
TORSDOF 11
ENDMDL
MODEL 3
REMARK VINA RESULT:      -5.2      2.085      2.869
REMARK  Name = 
REMARK  11 active torsions:
REMARK  status: ('A' for Active; 'I' for Inactive)
REMARK    1  A    between atoms: P_2  and  O_3
REMARK    2  A    between atoms: P_2  and  O_4
REMARK    3  A    between atoms: P_2  and  O_5
REMARK    4  A    between atoms: O_5  and  P_6
REMARK    5  A    between atoms: P_6  and  O_8
REMARK    6  A    between atoms: P_6  and  O_9
REMARK    7  A    between atoms: O_9  and  C_10
REMARK    8  A    between atoms: C_10  and  C_11
REMARK    9  A    between atoms: C_11  and  C_12
REMARK   10  A    between atoms: C_12  and  O_13
REMARK   11  A    between atoms: C_12  and  C_14
REMARK                            x       y       z     vdW  Elec       q    Type
REMARK                         _______ _______ _______ _____ _____    ______ ____
ROOT
ATOM      1  P   UNL     1       4.596   4.003  18.265  0.00  0.00    +0.000 P 
ATOM      2  O   UNL     1       5.499   4.107  17.041  0.00  0.00    +0.000 OA
ENDROOT
BRANCH   1   3
ATOM      3  O   UNL     1       4.469   2.421  18.689  0.00  0.00    +0.000 OA
ATOM      4  H   UNL     1       5.200   2.111  19.265  0.00  0.00    +0.000 HD
ENDBRANCH   1   3
BRANCH   1   5
ATOM      5  O   UNL     1       5.976   4.162  19.297  0.00  0.00    +0.000 OA
BRANCH   5   7
ATOM      6  O   UNL     1       7.856   6.627  18.231  0.00  0.00    +0.000 OA
ATOM      7  P   UNL     1       6.967   5.463  18.735  0.00  0.00    +0.000 P 
BRANCH   7   8
ATOM      8  O   UNL     1       7.968   4.325  18.126  0.00  0.00    +0.000 OA
ATOM      9  H   UNL     1       8.012   4.435  17.156  0.00  0.00    +0.000 HD
ENDBRANCH   7   8
BRANCH   7  10
ATOM     10  O   UNL     1       7.640   5.498  20.224  0.00  0.00    +0.000 OA
ATOM     11  H   UNL     1       6.909   5.393  20.865  0.00  0.00    +0.000 HD
ENDBRANCH   7  10
ENDBRANCH   5   7
ENDBRANCH   1   5
BRANCH   1  12
ATOM     12  O   UNL     1       3.216   3.843  17.233  0.00  0.00    +0.000 OA
BRANCH  12  13
ATOM     13  C   UNL     1       2.049   4.400  17.822  0.00  0.00    +0.000 C 
BRANCH  13  14
ATOM     14  C   UNL     1       2.417   5.384  18.922  0.00  0.00    +0.000 C 
BRANCH  14  15
ATOM     15  C   UNL     1       1.582   5.228  20.195  0.00  0.00    +0.000 C 
BRANCH  15  16
ATOM     16  O   UNL     1       2.437   5.531  21.307  0.00  0.00    +0.000 OA
ATOM     17  H   UNL     1       3.155   6.111  20.992  0.00  0.00    +0.000 HD
ENDBRANCH  15  16
BRANCH  15  18
ATOM     18  C   UNL     1       0.933   3.847  20.324  0.00  0.00    +0.000 C 
ATOM     19 BR   UNL     1       2.033   2.700  21.463  0.00  0.00    +0.000 Br
ENDBRANCH  15  18
ENDBRANCH  14  15
ENDBRANCH  13  14
ENDBRANCH  12  13
ENDBRANCH   1  12
TORSDOF 11
ENDMDL
MODEL 4
REMARK VINA RESULT:      -5.2      1.791      2.057
REMARK  Name = 
REMARK  11 active torsions:
REMARK  status: ('A' for Active; 'I' for Inactive)
REMARK    1  A    between atoms: P_2  and  O_3
REMARK    2  A    between atoms: P_2  and  O_4
REMARK    3  A    between atoms: P_2  and  O_5
REMARK    4  A    between atoms: O_5  and  P_6
REMARK    5  A    between atoms: P_6  and  O_8
REMARK    6  A    between atoms: P_6  and  O_9
REMARK    7  A    between atoms: O_9  and  C_10
REMARK    8  A    between atoms: C_10  and  C_11
REMARK    9  A    between atoms: C_11  and  C_12
REMARK   10  A    between atoms: C_12  and  O_13
REMARK   11  A    between atoms: C_12  and  C_14
REMARK                            x       y       z     vdW  Elec       q    Type
REMARK                         _______ _______ _______ _____ _____    ______ ____
ROOT
ATOM      1  P   UNL     1       4.680   4.075  17.697  0.00  0.00    +0.000 P 
ATOM      2  O   UNL     1       5.128   3.615  16.314  0.00  0.00    +0.000 OA
ENDROOT
BRANCH   1   3
ATOM      3  O   UNL     1       5.540   3.248  18.827  0.00  0.00    +0.000 OA
ATOM      4  H   UNL     1       6.405   3.659  19.037  0.00  0.00    +0.000 HD
ENDBRANCH   1   3
BRANCH   1   5
ATOM      5  O   UNL     1       5.895   5.306  17.683  0.00  0.00    +0.000 OA
BRANCH   5   7
ATOM      6  O   UNL     1       7.612   5.112  14.896  0.00  0.00    +0.000 OA
ATOM      7  P   UNL     1       6.800   5.204  16.212  0.00  0.00    +0.000 P 
BRANCH   7   8
ATOM      8  O   UNL     1       7.826   4.217  17.012  0.00  0.00    +0.000 OA
ATOM      9  H   UNL     1       8.312   3.677  16.358  0.00  0.00    +0.000 HD
ENDBRANCH   7   8
BRANCH   7  10
ATOM     10  O   UNL     1       7.533   6.598  16.653  0.00  0.00    +0.000 OA
ATOM     11  H   UNL     1       7.614   7.140  15.844  0.00  0.00    +0.000 HD
ENDBRANCH   7  10
ENDBRANCH   5   7
ENDBRANCH   1   5
BRANCH   1  12
ATOM     12  O   UNL     1       3.465   2.841  17.711  0.00  0.00    +0.000 OA
BRANCH  12  13
ATOM     13  C   UNL     1       3.472   2.109  18.929  0.00  0.00    +0.000 C 
BRANCH  13  14
ATOM     14  C   UNL     1       2.132   2.232  19.640  0.00  0.00    +0.000 C 
BRANCH  14  15
ATOM     15  C   UNL     1       2.129   3.256  20.777  0.00  0.00    +0.000 C 
BRANCH  15  16
ATOM     16  O   UNL     1       1.841   2.546  21.991  0.00  0.00    +0.000 OA
ATOM     17  H   UNL     1       2.481   1.814  22.077  0.00  0.00    +0.000 HD
ENDBRANCH  15  16
BRANCH  15  18
ATOM     18  C   UNL     1       1.157   4.415  20.541  0.00  0.00    +0.000 C 
ATOM     19 BR   UNL     1       2.156   6.050  20.151  0.00  0.00    +0.000 Br
ENDBRANCH  15  18
ENDBRANCH  14  15
ENDBRANCH  13  14
ENDBRANCH  12  13
ENDBRANCH   1  12
TORSDOF 11
ENDMDL
MODEL 5
REMARK VINA RESULT:      -5.1      1.261      1.841
REMARK  Name = 
REMARK  11 active torsions:
REMARK  status: ('A' for Active; 'I' for Inactive)
REMARK    1  A    between atoms: P_2  and  O_3
REMARK    2  A    between atoms: P_2  and  O_4
REMARK    3  A    between atoms: P_2  and  O_5
REMARK    4  A    between atoms: O_5  and  P_6
REMARK    5  A    between atoms: P_6  and  O_8
REMARK    6  A    between atoms: P_6  and  O_9
REMARK    7  A    between atoms: O_9  and  C_10
REMARK    8  A    between atoms: C_10  and  C_11
REMARK    9  A    between atoms: C_11  and  C_12
REMARK   10  A    between atoms: C_12  and  O_13
REMARK   11  A    between atoms: C_12  and  C_14
REMARK                            x       y       z     vdW  Elec       q    Type
REMARK                         _______ _______ _______ _____ _____    ______ ____
ROOT
ATOM      1  P   UNL     1       5.615   4.521  17.679  0.00  0.00    +0.000 P 
ATOM      2  O   UNL     1       6.148   3.911  16.387  0.00  0.00    +0.000 OA
ENDROOT
BRANCH   1   3
ATOM      3  O   UNL     1       5.777   3.417  18.885  0.00  0.00    +0.000 OA
ATOM      4  H   UNL     1       5.408   2.537  18.661  0.00  0.00    +0.000 HD
ENDBRANCH   1   3
BRANCH   1   5
ATOM      5  O   UNL     1       7.191   5.137  18.039  0.00  0.00    +0.000 OA
BRANCH   5   7
ATOM      6  O   UNL     1       7.347   8.298  17.183  0.00  0.00    +0.000 OA
ATOM      7  P   UNL     1       7.275   6.804  17.588  0.00  0.00    +0.000 P 
BRANCH   7   8
ATOM      8  O   UNL     1       5.653   6.748  17.405  0.00  0.00    +0.000 OA
ATOM      9  H   UNL     1       5.237   7.202  18.165  0.00  0.00    +0.000 HD
ENDBRANCH   7   8
BRANCH   7  10
ATOM     10  O   UNL     1       7.631   6.301  16.074  0.00  0.00    +0.000 OA
ATOM     11  H   UNL     1       7.430   7.047  15.476  0.00  0.00    +0.000 HD
ENDBRANCH   7  10
ENDBRANCH   5   7
ENDBRANCH   1   5
BRANCH   1  12
ATOM     12  O   UNL     1       4.038   3.904  17.318  0.00  0.00    +0.000 OA
BRANCH  12  13
ATOM     13  C   UNL     1       3.756   2.719  18.049  0.00  0.00    +0.000 C 
BRANCH  13  14
ATOM     14  C   UNL     1       2.297   2.319  17.887  0.00  0.00    +0.000 C 
BRANCH  14  15
ATOM     15  C   UNL     1       1.308   3.376  18.383  0.00  0.00    +0.000 C 
BRANCH  15  16
ATOM     16  O   UNL     1       1.117   4.316  17.316  0.00  0.00    +0.000 OA
ATOM     17  H   UNL     1       0.428   4.952  17.588  0.00  0.00    +0.000 HD
ENDBRANCH  15  16
BRANCH  15  18
ATOM     18  C   UNL     1       1.753   4.055  19.680  0.00  0.00    +0.000 C 
ATOM     19 BR   UNL     1       1.450   2.857  21.196  0.00  0.00    +0.000 Br
ENDBRANCH  15  18
ENDBRANCH  14  15
ENDBRANCH  13  14
ENDBRANCH  12  13
ENDBRANCH   1  12
TORSDOF 11
ENDMDL
MODEL 6
REMARK VINA RESULT:      -5.1      4.245      6.455
REMARK  Name = 
REMARK  11 active torsions:
REMARK  status: ('A' for Active; 'I' for Inactive)
REMARK    1  A    between atoms: P_2  and  O_3
REMARK    2  A    between atoms: P_2  and  O_4
REMARK    3  A    between atoms: P_2  and  O_5
REMARK    4  A    between atoms: O_5  and  P_6
REMARK    5  A    between atoms: P_6  and  O_8
REMARK    6  A    between atoms: P_6  and  O_9
REMARK    7  A    between atoms: O_9  and  C_10
REMARK    8  A    between atoms: C_10  and  C_11
REMARK    9  A    between atoms: C_11  and  C_12
REMARK   10  A    between atoms: C_12  and  O_13
REMARK   11  A    between atoms: C_12  and  C_14
REMARK                            x       y       z     vdW  Elec       q    Type
REMARK                         _______ _______ _______ _____ _____    ______ ____
ROOT
ATOM      1  P   UNL     1       4.189   3.124  19.424  0.00  0.00    +0.000 P 
ATOM      2  O   UNL     1       4.920   2.097  20.282  0.00  0.00    +0.000 OA
ENDROOT
BRANCH   1   3
ATOM      3  O   UNL     1       4.346   2.695  17.846  0.00  0.00    +0.000 OA
ATOM      4  H   UNL     1       4.099   1.763  17.668  0.00  0.00    +0.000 HD
ENDBRANCH   1   3
BRANCH   1   5
ATOM      5  O   UNL     1       2.741   2.182  19.529  0.00  0.00    +0.000 OA
BRANCH   5   7
ATOM      6  O   UNL     1       1.294   2.723  22.421  0.00  0.00    +0.000 OA
ATOM      7  P   UNL     1       1.978   2.467  21.055  0.00  0.00    +0.000 P 
BRANCH   7   8
ATOM      8  O   UNL     1       0.652   2.912  20.213  0.00  0.00    +0.000 OA
ATOM      9  H   UNL     1       0.495   2.254  19.507  0.00  0.00    +0.000 HD
ENDBRANCH   7   8
BRANCH   7  10
ATOM     10  O   UNL     1       2.683   3.942  21.049  0.00  0.00    +0.000 OA
ATOM     11  H   UNL     1       2.050   4.557  21.469  0.00  0.00    +0.000 HD
ENDBRANCH   7  10
ENDBRANCH   5   7
ENDBRANCH   1   5
BRANCH   1  12
ATOM     12  O   UNL     1       5.637   4.066  19.319  0.00  0.00    +0.000 OA
BRANCH  12  13
ATOM     13  C   UNL     1       5.394   5.345  18.748  0.00  0.00    +0.000 C 
BRANCH  13  14
ATOM     14  C   UNL     1       6.528   5.744  17.815  0.00  0.00    +0.000 C 
BRANCH  14  15
ATOM     15  C   UNL     1       6.973   4.624  16.871  0.00  0.00    +0.000 C 
BRANCH  15  16
ATOM     16  O   UNL     1       8.173   4.057  17.417  0.00  0.00    +0.000 OA
ATOM     17  H   UNL     1       8.534   3.423  16.770  0.00  0.00    +0.000 HD
ENDBRANCH  15  16
BRANCH  15  18
ATOM     18  C   UNL     1       7.161   5.094  15.427  0.00  0.00    +0.000 C 
ATOM     19 BR   UNL     1       6.060   4.012  14.227  0.00  0.00    +0.000 Br
ENDBRANCH  15  18
ENDBRANCH  14  15
ENDBRANCH  13  14
ENDBRANCH  12  13
ENDBRANCH   1  12
TORSDOF 11
ENDMDL
MODEL 7
REMARK VINA RESULT:      -5.1      1.809      3.077
REMARK  Name = 
REMARK  11 active torsions:
REMARK  status: ('A' for Active; 'I' for Inactive)
REMARK    1  A    between atoms: P_2  and  O_3
REMARK    2  A    between atoms: P_2  and  O_4
REMARK    3  A    between atoms: P_2  and  O_5
REMARK    4  A    between atoms: O_5  and  P_6
REMARK    5  A    between atoms: P_6  and  O_8
REMARK    6  A    between atoms: P_6  and  O_9
REMARK    7  A    between atoms: O_9  and  C_10
REMARK    8  A    between atoms: C_10  and  C_11
REMARK    9  A    between atoms: C_11  and  C_12
REMARK   10  A    between atoms: C_12  and  O_13
REMARK   11  A    between atoms: C_12  and  C_14
REMARK                            x       y       z     vdW  Elec       q    Type
REMARK                         _______ _______ _______ _____ _____    ______ ____
ROOT
ATOM      1  P   UNL     1       6.796   5.368  17.382  0.00  0.00    +0.000 P 
ATOM      2  O   UNL     1       7.647   4.395  18.193  0.00  0.00    +0.000 OA
ENDROOT
BRANCH   1   3
ATOM      3  O   UNL     1       7.501   6.851  17.439  0.00  0.00    +0.000 OA
ATOM      4  H   UNL     1       7.698   7.224  16.554  0.00  0.00    +0.000 HD
ENDBRANCH   1   3
BRANCH   1   5
ATOM      5  O   UNL     1       7.717   4.992  15.966  0.00  0.00    +0.000 OA
BRANCH   5   7
ATOM      6  O   UNL     1       5.698   3.962  13.597  0.00  0.00    +0.000 OA
ATOM      7  P   UNL     1       6.652   4.448  14.716  0.00  0.00    +0.000 P 
BRANCH   7   8
ATOM      8  O   UNL     1       5.749   5.773  15.025  0.00  0.00    +0.000 OA
ATOM      9  H   UNL     1       6.257   6.367  15.613  0.00  0.00    +0.000 HD
ENDBRANCH   7   8
BRANCH   7  10
ATOM     10  O   UNL     1       5.940   3.495  15.838  0.00  0.00    +0.000 OA
ATOM     11  H   UNL     1       4.979   3.534  15.670  0.00  0.00    +0.000 HD
ENDBRANCH   7  10
ENDBRANCH   5   7
ENDBRANCH   1   5
BRANCH   1  12
ATOM     12  O   UNL     1       5.877   5.743  18.800  0.00  0.00    +0.000 OA
BRANCH  12  13
ATOM     13  C   UNL     1       4.486   5.534  18.597  0.00  0.00    +0.000 C 
BRANCH  13  14
ATOM     14  C   UNL     1       3.870   4.811  19.785  0.00  0.00    +0.000 C 
BRANCH  14  15
ATOM     15  C   UNL     1       3.894   3.285  19.660  0.00  0.00    +0.000 C 
BRANCH  15  16
ATOM     16  O   UNL     1       4.848   2.955  18.641  0.00  0.00    +0.000 OA
ATOM     17  H   UNL     1       5.661   2.634  19.074  0.00  0.00    +0.000 HD
ENDBRANCH  15  16
BRANCH  15  18
ATOM     18  C   UNL     1       2.515   2.683  19.380  0.00  0.00    +0.000 C 
ATOM     19 BR   UNL     1       1.132   3.748  20.263  0.00  0.00    +0.000 Br
ENDBRANCH  15  18
ENDBRANCH  14  15
ENDBRANCH  13  14
ENDBRANCH  12  13
ENDBRANCH   1  12
TORSDOF 11
ENDMDL
MODEL 8
REMARK VINA RESULT:      -5.1      1.822      2.731
REMARK  Name = 
REMARK  11 active torsions:
REMARK  status: ('A' for Active; 'I' for Inactive)
REMARK    1  A    between atoms: P_2  and  O_3
REMARK    2  A    between atoms: P_2  and  O_4
REMARK    3  A    between atoms: P_2  and  O_5
REMARK    4  A    between atoms: O_5  and  P_6
REMARK    5  A    between atoms: P_6  and  O_8
REMARK    6  A    between atoms: P_6  and  O_9
REMARK    7  A    between atoms: O_9  and  C_10
REMARK    8  A    between atoms: C_10  and  C_11
REMARK    9  A    between atoms: C_11  and  C_12
REMARK   10  A    between atoms: C_12  and  O_13
REMARK   11  A    between atoms: C_12  and  C_14
REMARK                            x       y       z     vdW  Elec       q    Type
REMARK                         _______ _______ _______ _____ _____    ______ ____
ROOT
ATOM      1  P   UNL     1       6.748   4.756  17.622  0.00  0.00    +0.000 P 
ATOM      2  O   UNL     1       8.098   4.371  18.218  0.00  0.00    +0.000 OA
ENDROOT
BRANCH   1   3
ATOM      3  O   UNL     1       6.456   6.336  17.967  0.00  0.00    +0.000 OA
ATOM      4  H   UNL     1       5.698   6.469  18.575  0.00  0.00    +0.000 HD
ENDBRANCH   1   3
BRANCH   1   5
ATOM      5  O   UNL     1       7.531   5.229  16.153  0.00  0.00    +0.000 OA
BRANCH   5   7
ATOM      6  O   UNL     1       5.887   4.000  13.597  0.00  0.00    +0.000 OA
ATOM      7  P   UNL     1       6.664   4.580  14.804  0.00  0.00    +0.000 P 
BRANCH   7   8
ATOM      8  O   UNL     1       5.576   5.776  15.037  0.00  0.00    +0.000 OA
ATOM      9  H   UNL     1       5.486   6.281  14.205  0.00  0.00    +0.000 HD
ENDBRANCH   7   8
BRANCH   7  10
ATOM     10  O   UNL     1       5.977   3.525  15.847  0.00  0.00    +0.000 OA
ATOM     11  H   UNL     1       5.017   3.537  15.666  0.00  0.00    +0.000 HD
ENDBRANCH   7  10
ENDBRANCH   5   7
ENDBRANCH   1   5
BRANCH   1  12
ATOM     12  O   UNL     1       5.965   4.284  19.092  0.00  0.00    +0.000 OA
BRANCH  12  13
ATOM     13  C   UNL     1       4.615   4.726  19.135  0.00  0.00    +0.000 C 
BRANCH  13  14
ATOM     14  C   UNL     1       3.689   3.694  18.510  0.00  0.00    +0.000 C 
BRANCH  14  15
ATOM     15  C   UNL     1       3.501   2.437  19.361  0.00  0.00    +0.000 C 
BRANCH  15  16
ATOM     16  O   UNL     1       2.750   1.498  18.578  0.00  0.00    +0.000 OA
ATOM     17  H   UNL     1       1.930   1.935  18.280  0.00  0.00    +0.000 HD
ENDBRANCH  15  16
BRANCH  15  18
ATOM     18  C   UNL     1       2.844   2.718  20.715  0.00  0.00    +0.000 C 
ATOM     19 BR   UNL     1       1.146   3.652  20.447  0.00  0.00    +0.000 Br
ENDBRANCH  15  18
ENDBRANCH  14  15
ENDBRANCH  13  14
ENDBRANCH  12  13
ENDBRANCH   1  12
TORSDOF 11
ENDMDL
MODEL 9
REMARK VINA RESULT:      -5.1      1.501      2.243
REMARK  Name = 
REMARK  11 active torsions:
REMARK  status: ('A' for Active; 'I' for Inactive)
REMARK    1  A    between atoms: P_2  and  O_3
REMARK    2  A    between atoms: P_2  and  O_4
REMARK    3  A    between atoms: P_2  and  O_5
REMARK    4  A    between atoms: O_5  and  P_6
REMARK    5  A    between atoms: P_6  and  O_8
REMARK    6  A    between atoms: P_6  and  O_9
REMARK    7  A    between atoms: O_9  and  C_10
REMARK    8  A    between atoms: C_10  and  C_11
REMARK    9  A    between atoms: C_11  and  C_12
REMARK   10  A    between atoms: C_12  and  O_13
REMARK   11  A    between atoms: C_12  and  C_14
REMARK                            x       y       z     vdW  Elec       q    Type
REMARK                         _______ _______ _______ _____ _____    ______ ____
ROOT
ATOM      1  P   UNL     1       4.980   4.397  17.127  0.00  0.00    +0.000 P 
ATOM      2  O   UNL     1       5.306   3.894  18.529  0.00  0.00    +0.000 OA
ENDROOT
BRANCH   1   3
ATOM      3  O   UNL     1       3.836   5.571  17.246  0.00  0.00    +0.000 OA
ATOM      4  H   UNL     1       3.045   5.403  16.692  0.00  0.00    +0.000 HD
ENDBRANCH   1   3
BRANCH   1   5
ATOM      5  O   UNL     1       6.217   5.598  17.269  0.00  0.00    +0.000 OA
BRANCH   5   7
ATOM      6  O   UNL     1       7.629   5.368  20.219  0.00  0.00    +0.000 OA
ATOM      7  P   UNL     1       6.962   5.476  18.826  0.00  0.00    +0.000 P 
BRANCH   7   8
ATOM      8  O   UNL     1       7.897   6.739  18.383  0.00  0.00    +0.000 OA
ATOM      9  H   UNL     1       8.673   6.397  17.896  0.00  0.00    +0.000 HD
ENDBRANCH   7   8
BRANCH   7  10
ATOM     10  O   UNL     1       7.930   4.321  18.191  0.00  0.00    +0.000 OA
ATOM     11  H   UNL     1       7.396   3.505  18.138  0.00  0.00    +0.000 HD
ENDBRANCH   7  10
ENDBRANCH   5   7
ENDBRANCH   1   5
BRANCH   1  12
ATOM     12  O   UNL     1       3.741   3.196  16.986  0.00  0.00    +0.000 OA
BRANCH  12  13
ATOM     13  C   UNL     1       3.567   2.474  18.198  0.00  0.00    +0.000 C 
BRANCH  13  14
ATOM     14  C   UNL     1       2.101   2.128  18.414  0.00  0.00    +0.000 C 
BRANCH  14  15
ATOM     15  C   UNL     1       1.209   3.346  18.661  0.00  0.00    +0.000 C 
BRANCH  15  16
ATOM     16  O   UNL     1       1.216   4.132  17.460  0.00  0.00    +0.000 OA
ATOM     17  H   UNL     1       0.427   3.898  16.937  0.00  0.00    +0.000 HD
ENDBRANCH  15  16
BRANCH  15  18
ATOM     18  C   UNL     1       1.628   4.161  19.888  0.00  0.00    +0.000 C 
ATOM     19 BR   UNL     1       1.712   2.999  21.459  0.00  0.00    +0.000 Br
ENDBRANCH  15  18
ENDBRANCH  14  15
ENDBRANCH  13  14
ENDBRANCH  12  13
ENDBRANCH   1  12
TORSDOF 11
ENDMDL
