MODEL 1
REMARK VINA RESULT:      -7.9      0.000      0.000
REMARK  Name = 
REMARK  6 active torsions:
REMARK  status: ('A' for Active; 'I' for Inactive)
REMARK    1  A    between atoms: C_1  and  C_2
REMARK    2  A    between atoms: C_5  and  O_6
REMARK    3  A    between atoms: O_6  and  C_7
REMARK    4  A    between atoms: N_9  and  C_10
REMARK    5  A    between atoms: C_10  and  C_11
REMARK    6  A    between atoms: C_11  and  C_12
REMARK                            x       y       z     vdW  Elec       q    Type
REMARK                         _______ _______ _______ _____ _____    ______ ____
ROOT
ATOM      1  C   UNL     1       4.483   4.650  17.906  0.00  0.00    +0.000 C 
ENDROOT
BRANCH   1   8
ATOM      2  C   UNL     1       1.255   8.237  21.545  0.00  0.00    +0.000 C 
ATOM      3  C   UNL     1       1.928   7.789  20.286  0.00  0.00    +0.000 C 
ATOM      4  C   UNL     1       2.021   6.528  19.814  0.00  0.00    +0.000 C 
ATOM      5  C   UNL     1       1.430   5.401  20.497  0.00  0.00    +0.000 C 
ATOM      6  C   UNL     1       1.561   4.146  20.043  0.00  0.00    +0.000 C 
ATOM      7  C   UNL     1       2.340   3.824  18.793  0.00  0.00    +0.000 C 
ATOM      8  N   UNL     1       3.047   4.898  18.096  0.00  0.00    +0.000 NA
ATOM      9  C   UNL     1       2.770   6.269  18.522  0.00  0.00    +0.000 C 
BRANCH   6  10
ATOM     10  O   UNL     1       1.046   3.012  20.642  0.00  0.00    +0.000 OA
ATOM     11  C   UNL     1       1.590   2.603  21.891  0.00  0.00    +0.000 C 
ENDBRANCH   6  10
ENDBRANCH   1   8
BRANCH   1  12
ATOM     12  C   UNL     1       4.836   3.787  16.677  0.00  0.00    +0.000 C 
BRANCH  12  13
ATOM     13  C   UNL     1       5.899   4.437  15.844  0.00  0.00    +0.000 A 
ATOM     14  C   UNL     1       6.827   5.360  16.287  0.00  0.00    +0.000 A 
ATOM     15  N   UNL     1       7.624   5.706  15.231  0.00  0.00    +0.000 N 
ATOM     16  C   UNL     1       7.248   5.021  14.101  0.00  0.00    +0.000 A 
ATOM     17  C   UNL     1       7.779   5.060  12.808  0.00  0.00    +0.000 A 
ATOM     18  C   UNL     1       7.187   4.245  11.839  0.00  0.00    +0.000 A 
ATOM     19  C   UNL     1       6.110   3.421  12.157  0.00  0.00    +0.000 A 
ATOM     20  C   UNL     1       5.592   3.394  13.459  0.00  0.00    +0.000 A 
ATOM     21  C   UNL     1       6.166   4.213  14.453  0.00  0.00    +0.000 A 
ATOM     22  H   UNL     1       8.394   6.360  15.275  0.00  0.00    +0.000 HD
ENDBRANCH  12  13
ENDBRANCH   1  12
TORSDOF 4
ENDMDL
MODEL 2
REMARK VINA RESULT:      -7.8      2.649      6.754
REMARK  Name = 
REMARK  6 active torsions:
REMARK  status: ('A' for Active; 'I' for Inactive)
REMARK    1  A    between atoms: C_1  and  C_2
REMARK    2  A    between atoms: C_5  and  O_6
REMARK    3  A    between atoms: O_6  and  C_7
REMARK    4  A    between atoms: N_9  and  C_10
REMARK    5  A    between atoms: C_10  and  C_11
REMARK    6  A    between atoms: C_11  and  C_12
REMARK                            x       y       z     vdW  Elec       q    Type
REMARK                         _______ _______ _______ _____ _____    ______ ____
ROOT
ATOM      1  C   UNL     1       5.284   3.951  19.312  0.00  0.00    +0.000 C 
ENDROOT
BRANCH   1   8
ATOM      2  C   UNL     1       8.265   8.981  17.783  0.00  0.00    +0.000 C 
ATOM      3  C   UNL     1       8.016   7.675  18.470  0.00  0.00    +0.000 C 
ATOM      4  C   UNL     1       7.388   6.593  17.963  0.00  0.00    +0.000 C 
ATOM      5  C   UNL     1       6.870   6.560  16.615  0.00  0.00    +0.000 C 
ATOM      6  C   UNL     1       6.213   5.496  16.133  0.00  0.00    +0.000 C 
ATOM      7  C   UNL     1       5.960   4.265  16.966  0.00  0.00    +0.000 C 
ATOM      8  N   UNL     1       6.370   4.257  18.370  0.00  0.00    +0.000 NA
ATOM      9  C   UNL     1       7.211   5.361  18.829  0.00  0.00    +0.000 C 
BRANCH   6  10
ATOM     10  O   UNL     1       5.670   5.388  14.866  0.00  0.00    +0.000 OA
ATOM     11  C   UNL     1       5.995   4.243  14.088  0.00  0.00    +0.000 C 
ENDBRANCH   6  10
ENDBRANCH   1   8
BRANCH   1  12
ATOM     12  C   UNL     1       3.863   4.059  18.723  0.00  0.00    +0.000 C 
BRANCH  12  13
ATOM     13  C   UNL     1       3.057   5.102  19.437  0.00  0.00    +0.000 A 
ATOM     14  C   UNL     1       2.469   4.965  20.679  0.00  0.00    +0.000 A 
ATOM     15  N   UNL     1       1.832   6.136  20.983  0.00  0.00    +0.000 N 
ATOM     16  C   UNL     1       1.997   7.049  19.970  0.00  0.00    +0.000 A 
ATOM     17  C   UNL     1       1.526   8.362  19.857  0.00  0.00    +0.000 A 
ATOM     18  C   UNL     1       1.851   9.069  18.696  0.00  0.00    +0.000 A 
ATOM     19  C   UNL     1       2.621   8.485  17.693  0.00  0.00    +0.000 A 
ATOM     20  C   UNL     1       3.086   7.169  17.825  0.00  0.00    +0.000 A 
ATOM     21  C   UNL     1       2.765   6.430  18.983  0.00  0.00    +0.000 A 
ATOM     22  H   UNL     1       1.324   6.315  21.838  0.00  0.00    +0.000 HD
ENDBRANCH  12  13
ENDBRANCH   1  12
TORSDOF 4
ENDMDL
MODEL 3
REMARK VINA RESULT:      -7.6      1.573      2.795
REMARK  Name = 
REMARK  6 active torsions:
REMARK  status: ('A' for Active; 'I' for Inactive)
REMARK    1  A    between atoms: C_1  and  C_2
REMARK    2  A    between atoms: C_5  and  O_6
REMARK    3  A    between atoms: O_6  and  C_7
REMARK    4  A    between atoms: N_9  and  C_10
REMARK    5  A    between atoms: C_10  and  C_11
REMARK    6  A    between atoms: C_11  and  C_12
REMARK                            x       y       z     vdW  Elec       q    Type
REMARK                         _______ _______ _______ _____ _____    ______ ____
ROOT
ATOM      1  C   UNL     1       4.709   3.445  17.529  0.00  0.00    +0.000 C 
ENDROOT
BRANCH   1   8
ATOM      2  C   UNL     1       1.082   2.506  22.271  0.00  0.00    +0.000 C 
ATOM      3  C   UNL     1       2.306   2.382  21.421  0.00  0.00    +0.000 C 
ATOM      4  C   UNL     1       2.880   3.348  20.672  0.00  0.00    +0.000 C 
ATOM      5  C   UNL     1       2.362   4.695  20.615  0.00  0.00    +0.000 C 
ATOM      6  C   UNL     1       2.914   5.637  19.839  0.00  0.00    +0.000 C 
ATOM      7  C   UNL     1       4.108   5.354  18.962  0.00  0.00    +0.000 C 
ATOM      8  N   UNL     1       4.634   3.991  18.891  0.00  0.00    +0.000 NA
ATOM      9  C   UNL     1       4.114   3.021  19.853  0.00  0.00    +0.000 C 
BRANCH   6  10
ATOM     10  O   UNL     1       2.472   6.940  19.711  0.00  0.00    +0.000 OA
ATOM     11  C   UNL     1       2.548   7.556  18.431  0.00  0.00    +0.000 C 
ENDBRANCH   6  10
ENDBRANCH   1   8
BRANCH   1  12
ATOM     12  C   UNL     1       4.381   4.451  16.407  0.00  0.00    +0.000 C 
BRANCH  12  13
ATOM     13  C   UNL     1       5.602   4.788  15.605  0.00  0.00    +0.000 A 
ATOM     14  C   UNL     1       6.670   5.551  16.034  0.00  0.00    +0.000 A 
ATOM     15  N   UNL     1       7.583   5.620  15.017  0.00  0.00    +0.000 N 
ATOM     16  C   UNL     1       7.143   4.907  13.929  0.00  0.00    +0.000 A 
ATOM     17  C   UNL     1       7.747   4.703  12.684  0.00  0.00    +0.000 A 
ATOM     18  C   UNL     1       7.060   3.922  11.750  0.00  0.00    +0.000 A 
ATOM     19  C   UNL     1       5.821   3.365  12.056  0.00  0.00    +0.000 A 
ATOM     20  C   UNL     1       5.232   3.578  13.310  0.00  0.00    +0.000 A 
ATOM     21  C   UNL     1       5.900   4.369  14.267  0.00  0.00    +0.000 A 
ATOM     22  H   UNL     1       8.465   6.110  15.062  0.00  0.00    +0.000 HD
ENDBRANCH  12  13
ENDBRANCH   1  12
TORSDOF 4
ENDMDL
MODEL 4
REMARK VINA RESULT:      -7.4      2.194      7.095
REMARK  Name = 
REMARK  6 active torsions:
REMARK  status: ('A' for Active; 'I' for Inactive)
REMARK    1  A    between atoms: C_1  and  C_2
REMARK    2  A    between atoms: C_5  and  O_6
REMARK    3  A    between atoms: O_6  and  C_7
REMARK    4  A    between atoms: N_9  and  C_10
REMARK    5  A    between atoms: C_10  and  C_11
REMARK    6  A    between atoms: C_11  and  C_12
REMARK                            x       y       z     vdW  Elec       q    Type
REMARK                         _______ _______ _______ _____ _____    ______ ____
ROOT
ATOM      1  C   UNL     1       3.895   2.601  17.608  0.00  0.00    +0.000 C 
ENDROOT
BRANCH   1   8
ATOM      2  C   UNL     1       7.461   4.666  13.186  0.00  0.00    +0.000 C 
ATOM      3  C   UNL     1       6.195   4.444  13.952  0.00  0.00    +0.000 C 
ATOM      4  C   UNL     1       6.051   4.398  15.294  0.00  0.00    +0.000 C 
ATOM      5  C   UNL     1       7.161   4.588  16.198  0.00  0.00    +0.000 C 
ATOM      6  C   UNL     1       7.017   4.501  17.528  0.00  0.00    +0.000 C 
ATOM      7  C   UNL     1       5.689   4.190  18.171  0.00  0.00    +0.000 C 
ATOM      8  N   UNL     1       4.537   3.893  17.321  0.00  0.00    +0.000 NA
ATOM      9  C   UNL     1       4.680   4.137  15.887  0.00  0.00    +0.000 C 
BRANCH   6  10
ATOM     10  O   UNL     1       8.025   4.649  18.462  0.00  0.00    +0.000 OA
ATOM     11  C   UNL     1       7.957   5.749  19.360  0.00  0.00    +0.000 C 
ENDBRANCH   6  10
ENDBRANCH   1   8
BRANCH   1  12
ATOM     12  C   UNL     1       2.372   2.671  17.840  0.00  0.00    +0.000 C 
BRANCH  12  13
ATOM     13  C   UNL     1       2.042   3.510  19.037  0.00  0.00    +0.000 A 
ATOM     14  C   UNL     1       1.663   3.039  20.279  0.00  0.00    +0.000 A 
ATOM     15  N   UNL     1       1.459   4.114  21.100  0.00  0.00    +0.000 N 
ATOM     16  C   UNL     1       1.708   5.285  20.428  0.00  0.00    +0.000 A 
ATOM     17  C   UNL     1       1.630   6.610  20.871  0.00  0.00    +0.000 A 
ATOM     18  C   UNL     1       1.943   7.619  19.956  0.00  0.00    +0.000 A 
ATOM     19  C   UNL     1       2.324   7.310  18.652  0.00  0.00    +0.000 A 
ATOM     20  C   UNL     1       2.398   5.977  18.226  0.00  0.00    +0.000 A 
ATOM     21  C   UNL     1       2.079   4.940  19.128  0.00  0.00    +0.000 A 
ATOM     22  H   UNL     1       1.181   4.058  22.071  0.00  0.00    +0.000 HD
ENDBRANCH  12  13
ENDBRANCH   1  12
TORSDOF 4
ENDMDL
MODEL 5
REMARK VINA RESULT:      -7.4      2.364      6.760
REMARK  Name = 
REMARK  6 active torsions:
REMARK  status: ('A' for Active; 'I' for Inactive)
REMARK    1  A    between atoms: C_1  and  C_2
REMARK    2  A    between atoms: C_5  and  O_6
REMARK    3  A    between atoms: O_6  and  C_7
REMARK    4  A    between atoms: N_9  and  C_10
REMARK    5  A    between atoms: C_10  and  C_11
REMARK    6  A    between atoms: C_11  and  C_12
REMARK                            x       y       z     vdW  Elec       q    Type
REMARK                         _______ _______ _______ _____ _____    ______ ____
ROOT
ATOM      1  C   UNL     1       3.814   6.924  17.571  0.00  0.00    +0.000 C 
ENDROOT
BRANCH   1   8
ATOM      2  C   UNL     1       6.322   3.408  13.344  0.00  0.00    +0.000 C 
ATOM      3  C   UNL     1       5.662   4.619  13.921  0.00  0.00    +0.000 C 
ATOM      4  C   UNL     1       5.866   5.155  15.144  0.00  0.00    +0.000 C 
ATOM      5  C   UNL     1       6.813   4.602  16.083  0.00  0.00    +0.000 C 
ATOM      6  C   UNL     1       6.980   5.116  17.310  0.00  0.00    +0.000 C 
ATOM      7  C   UNL     1       6.185   6.301  17.797  0.00  0.00    +0.000 C 
ATOM      8  N   UNL     1       5.140   6.860  16.940  0.00  0.00    +0.000 NA
ATOM      9  C   UNL     1       5.077   6.382  15.560  0.00  0.00    +0.000 C 
BRANCH   6  10
ATOM     10  O   UNL     1       7.847   4.639  18.275  0.00  0.00    +0.000 OA
ATOM     11  C   UNL     1       7.975   5.370  19.488  0.00  0.00    +0.000 C 
ENDBRANCH   6  10
ENDBRANCH   1   8
BRANCH   1  12
ATOM     12  C   UNL     1       3.814   6.734  19.102  0.00  0.00    +0.000 C 
BRANCH  12  13
ATOM     13  C   UNL     1       2.803   5.709  19.521  0.00  0.00    +0.000 A 
ATOM     14  C   UNL     1       1.839   5.870  20.497  0.00  0.00    +0.000 A 
ATOM     15  N   UNL     1       1.112   4.714  20.576  0.00  0.00    +0.000 N 
ATOM     16  C   UNL     1       1.570   3.796  19.663  0.00  0.00    +0.000 A 
ATOM     17  C   UNL     1       1.128   2.496  19.396  0.00  0.00    +0.000 A 
ATOM     18  C   UNL     1       1.792   1.777  18.397  0.00  0.00    +0.000 A 
ATOM     19  C   UNL     1       2.852   2.343  17.693  0.00  0.00    +0.000 A 
ATOM     20  C   UNL     1       3.280   3.648  17.973  0.00  0.00    +0.000 A 
ATOM     21  C   UNL     1       2.633   4.391  18.982  0.00  0.00    +0.000 A 
ATOM     22  H   UNL     1       0.336   4.559  21.204  0.00  0.00    +0.000 HD
ENDBRANCH  12  13
ENDBRANCH   1  12
TORSDOF 4
ENDMDL
MODEL 6
REMARK VINA RESULT:      -7.4      2.465      7.159
REMARK  Name = 
REMARK  6 active torsions:
REMARK  status: ('A' for Active; 'I' for Inactive)
REMARK    1  A    between atoms: C_1  and  C_2
REMARK    2  A    between atoms: C_5  and  O_6
REMARK    3  A    between atoms: O_6  and  C_7
REMARK    4  A    between atoms: N_9  and  C_10
REMARK    5  A    between atoms: C_10  and  C_11
REMARK    6  A    between atoms: C_11  and  C_12
REMARK                            x       y       z     vdW  Elec       q    Type
REMARK                         _______ _______ _______ _____ _____    ______ ____
ROOT
ATOM      1  C   UNL     1       4.121   7.008  17.063  0.00  0.00    +0.000 C 
ENDROOT
BRANCH   1   8
ATOM      2  C   UNL     1       6.221   3.129  12.931  0.00  0.00    +0.000 C 
ATOM      3  C   UNL     1       5.663   4.409  13.470  0.00  0.00    +0.000 C 
ATOM      4  C   UNL     1       5.952   4.990  14.653  0.00  0.00    +0.000 C 
ATOM      5  C   UNL     1       6.902   4.425  15.583  0.00  0.00    +0.000 C 
ATOM      6  C   UNL     1       7.153   4.988  16.773  0.00  0.00    +0.000 C 
ATOM      7  C   UNL     1       6.456   6.245  17.227  0.00  0.00    +0.000 C 
ATOM      8  N   UNL     1       5.412   6.827  16.384  0.00  0.00    +0.000 NA
ATOM      9  C   UNL     1       5.260   6.285  15.035  0.00  0.00    +0.000 C 
BRANCH   6  10
ATOM     10  O   UNL     1       8.029   4.505  17.726  0.00  0.00    +0.000 OA
ATOM     11  C   UNL     1       8.090   5.166  18.984  0.00  0.00    +0.000 C 
ENDBRANCH   6  10
ENDBRANCH   1   8
BRANCH   1  12
ATOM     12  C   UNL     1       4.020   6.347  18.453  0.00  0.00    +0.000 C 
BRANCH  12  13
ATOM     13  C   UNL     1       3.316   5.026  18.377  0.00  0.00    +0.000 A 
ATOM     14  C   UNL     1       3.153   4.257  17.241  0.00  0.00    +0.000 A 
ATOM     15  N   UNL     1       2.466   3.126  17.585  0.00  0.00    +0.000 N 
ATOM     16  C   UNL     1       2.182   3.127  18.928  0.00  0.00    +0.000 A 
ATOM     17  C   UNL     1       1.505   2.180  19.704  0.00  0.00    +0.000 A 
ATOM     18  C   UNL     1       1.357   2.446  21.069  0.00  0.00    +0.000 A 
ATOM     19  C   UNL     1       1.872   3.612  21.631  0.00  0.00    +0.000 A 
ATOM     20  C   UNL     1       2.549   4.549  20.837  0.00  0.00    +0.000 A 
ATOM     21  C   UNL     1       2.704   4.308  19.456  0.00  0.00    +0.000 A 
ATOM     22  H   UNL     1       2.216   2.383  16.946  0.00  0.00    +0.000 HD
ENDBRANCH  12  13
ENDBRANCH   1  12
TORSDOF 4
ENDMDL
MODEL 7
REMARK VINA RESULT:      -7.3      3.742      7.934
REMARK  Name = 
REMARK  6 active torsions:
REMARK  status: ('A' for Active; 'I' for Inactive)
REMARK    1  A    between atoms: C_1  and  C_2
REMARK    2  A    between atoms: C_5  and  O_6
REMARK    3  A    between atoms: O_6  and  C_7
REMARK    4  A    between atoms: N_9  and  C_10
REMARK    5  A    between atoms: C_10  and  C_11
REMARK    6  A    between atoms: C_11  and  C_12
REMARK                            x       y       z     vdW  Elec       q    Type
REMARK                         _______ _______ _______ _____ _____    ______ ____
ROOT
ATOM      1  C   UNL     1       2.629   7.256  17.960  0.00  0.00    +0.000 C 
ENDROOT
BRANCH   1   8
ATOM      2  C   UNL     1       1.542   2.562  21.608  0.00  0.00    +0.000 C 
ATOM      3  C   UNL     1       1.335   3.498  20.460  0.00  0.00    +0.000 C 
ATOM      4  C   UNL     1       2.287   4.080  19.700  0.00  0.00    +0.000 C 
ATOM      5  C   UNL     1       3.696   3.839  19.905  0.00  0.00    +0.000 C 
ATOM      6  C   UNL     1       4.636   4.452  19.173  0.00  0.00    +0.000 C 
ATOM      7  C   UNL     1       4.288   5.442  18.090  0.00  0.00    +0.000 C 
ATOM      8  N   UNL     1       2.889   5.811  17.883  0.00  0.00    +0.000 NA
ATOM      9  C   UNL     1       1.877   5.025  18.587  0.00  0.00    +0.000 C 
BRANCH   6  10
ATOM     10  O   UNL     1       6.002   4.295  19.315  0.00  0.00    +0.000 OA
ATOM     11  C   UNL     1       6.831   5.442  19.178  0.00  0.00    +0.000 C 
ENDBRANCH   6  10
ENDBRANCH   1   8
BRANCH   1  12
ATOM     12  C   UNL     1       2.208   7.766  19.353  0.00  0.00    +0.000 C 
BRANCH  12  13
ATOM     13  C   UNL     1       1.370   9.005  19.247  0.00  0.00    +0.000 A 
ATOM     14  C   UNL     1       1.140   9.734  18.096  0.00  0.00    +0.000 A 
ATOM     15  N   UNL     1       0.322  10.784  18.411  0.00  0.00    +0.000 N 
ATOM     16  C   UNL     1      -0.002  10.757  19.745  0.00  0.00    +0.000 A 
ATOM     17  C   UNL     1      -0.805  11.624  20.493  0.00  0.00    +0.000 A 
ATOM     18  C   UNL     1      -0.960  11.351  21.856  0.00  0.00    +0.000 A 
ATOM     19  C   UNL     1      -0.339  10.250  22.441  0.00  0.00    +0.000 A 
ATOM     20  C   UNL     1       0.461   9.391  21.675  0.00  0.00    +0.000 A 
ATOM     21  C   UNL     1       0.640   9.649  20.300  0.00  0.00    +0.000 A 
ATOM     22  H   UNL     1      -0.013  11.475  17.754  0.00  0.00    +0.000 HD
ENDBRANCH  12  13
ENDBRANCH   1  12
TORSDOF 4
ENDMDL
MODEL 8
REMARK VINA RESULT:      -7.3      2.360      8.150
REMARK  Name = 
REMARK  6 active torsions:
REMARK  status: ('A' for Active; 'I' for Inactive)
REMARK    1  A    between atoms: C_1  and  C_2
REMARK    2  A    between atoms: C_5  and  O_6
REMARK    3  A    between atoms: O_6  and  C_7
REMARK    4  A    between atoms: N_9  and  C_10
REMARK    5  A    between atoms: C_10  and  C_11
REMARK    6  A    between atoms: C_11  and  C_12
REMARK                            x       y       z     vdW  Elec       q    Type
REMARK                         _______ _______ _______ _____ _____    ______ ____
ROOT
ATOM      1  C   UNL     1       3.038   7.266  17.992  0.00  0.00    +0.000 C 
ENDROOT
BRANCH   1   8
ATOM      2  C   UNL     1       6.051   3.978  13.914  0.00  0.00    +0.000 C 
ATOM      3  C   UNL     1       5.741   5.152  14.788  0.00  0.00    +0.000 C 
ATOM      4  C   UNL     1       5.238   5.126  16.040  0.00  0.00    +0.000 C 
ATOM      5  C   UNL     1       4.942   3.893  16.730  0.00  0.00    +0.000 C 
ATOM      6  C   UNL     1       4.405   3.877  17.959  0.00  0.00    +0.000 C 
ATOM      7  C   UNL     1       4.065   5.145  18.701  0.00  0.00    +0.000 C 
ATOM      8  N   UNL     1       4.248   6.433  18.033  0.00  0.00    +0.000 NA
ATOM      9  C   UNL     1       4.968   6.433  16.761  0.00  0.00    +0.000 C 
BRANCH   6  10
ATOM     10  O   UNL     1       4.073   2.746  18.681  0.00  0.00    +0.000 OA
ATOM     11  C   UNL     1       2.961   1.972  18.250  0.00  0.00    +0.000 C 
ENDBRANCH   6  10
ENDBRANCH   1   8
BRANCH   1  12
ATOM     12  C   UNL     1       2.265   7.356  19.324  0.00  0.00    +0.000 C 
BRANCH  12  13
ATOM     13  C   UNL     1       1.555   8.670  19.452  0.00  0.00    +0.000 A 
ATOM     14  C   UNL     1       1.400   9.611  18.453  0.00  0.00    +0.000 A 
ATOM     15  N   UNL     1       0.690  10.663  18.962  0.00  0.00    +0.000 N 
ATOM     16  C   UNL     1       0.363  10.431  20.275  0.00  0.00    +0.000 A 
ATOM     17  C   UNL     1      -0.351  11.226  21.178  0.00  0.00    +0.000 A 
ATOM     18  C   UNL     1      -0.535  10.732  22.472  0.00  0.00    +0.000 A 
ATOM     19  C   UNL     1      -0.028   9.489  22.843  0.00  0.00    +0.000 A 
ATOM     20  C   UNL     1       0.684   8.705  21.924  0.00  0.00    +0.000 A 
ATOM     21  C   UNL     1       0.891   9.185  20.614  0.00  0.00    +0.000 A 
ATOM     22  H   UNL     1       0.427  11.490  18.443  0.00  0.00    +0.000 HD
ENDBRANCH  12  13
ENDBRANCH   1  12
TORSDOF 4
ENDMDL
MODEL 9
REMARK VINA RESULT:      -7.2      2.243      7.529
REMARK  Name = 
REMARK  6 active torsions:
REMARK  status: ('A' for Active; 'I' for Inactive)
REMARK    1  A    between atoms: C_1  and  C_2
REMARK    2  A    between atoms: C_5  and  O_6
REMARK    3  A    between atoms: O_6  and  C_7
REMARK    4  A    between atoms: N_9  and  C_10
REMARK    5  A    between atoms: C_10  and  C_11
REMARK    6  A    between atoms: C_11  and  C_12
REMARK                            x       y       z     vdW  Elec       q    Type
REMARK                         _______ _______ _______ _____ _____    ______ ____
ROOT
ATOM      1  C   UNL     1       2.952   6.572  19.521  0.00  0.00    +0.000 C 
ENDROOT
BRANCH   1   8
ATOM      2  C   UNL     1       5.617   4.469  14.521  0.00  0.00    +0.000 C 
ATOM      3  C   UNL     1       5.507   5.160  15.843  0.00  0.00    +0.000 C 
ATOM      4  C   UNL     1       4.732   4.802  16.889  0.00  0.00    +0.000 C 
ATOM      5  C   UNL     1       3.885   3.632  16.860  0.00  0.00    +0.000 C 
ATOM      6  C   UNL     1       3.089   3.305  17.887  0.00  0.00    +0.000 C 
ATOM      7  C   UNL     1       3.015   4.141  19.141  0.00  0.00    +0.000 C 
ATOM      8  N   UNL     1       3.770   5.391  19.210  0.00  0.00    +0.000 NA
ATOM      9  C   UNL     1       4.739   5.650  18.146  0.00  0.00    +0.000 C 
BRANCH   6  10
ATOM     10  O   UNL     1       2.236   2.218  17.935  0.00  0.00    +0.000 OA
ATOM     11  C   UNL     1       1.080   2.303  18.759  0.00  0.00    +0.000 C 
ENDBRANCH   6  10
ENDBRANCH   1   8
BRANCH   1  12
ATOM     12  C   UNL     1       2.288   7.242  18.300  0.00  0.00    +0.000 C 
BRANCH  12  13
ATOM     13  C   UNL     1       1.808   8.622  18.633  0.00  0.00    +0.000 A 
ATOM     14  C   UNL     1       1.883   9.729  17.810  0.00  0.00    +0.000 A 
ATOM     15  N   UNL     1       1.333  10.793  18.471  0.00  0.00    +0.000 N 
ATOM     16  C   UNL     1       0.887  10.408  19.712  0.00  0.00    +0.000 A 
ATOM     17  C   UNL     1       0.263  11.157  20.715  0.00  0.00    +0.000 A 
ATOM     18  C   UNL     1      -0.086  10.495  21.896  0.00  0.00    +0.000 A 
ATOM     19  C   UNL     1       0.174   9.137  22.060  0.00  0.00    +0.000 A 
ATOM     20  C   UNL     1       0.798   8.402  21.042  0.00  0.00    +0.000 A 
ATOM     21  C   UNL     1       1.169   9.047  19.845  0.00  0.00    +0.000 A 
ATOM     22  H   UNL     1       1.250  11.728  18.097  0.00  0.00    +0.000 HD
ENDBRANCH  12  13
ENDBRANCH   1  12
TORSDOF 4
ENDMDL
