MODEL 1
REMARK VINA RESULT:      -9.5      0.000      0.000
REMARK  Name = 
REMARK  6 active torsions:
REMARK  status: ('A' for Active; 'I' for Inactive)
REMARK    1  A    between atoms: C_2  and  C_5
REMARK    2  A    between atoms: C_8  and  C_9
REMARK    3  A    between atoms: C_11  and  C_12
REMARK    4  A    between atoms: C_19  and  N_20
REMARK    5  A    between atoms: N_20  and  C_21
REMARK    6  A    between atoms: C_21  and  C_22
REMARK                            x       y       z     vdW  Elec       q    Type
REMARK                         _______ _______ _______ _____ _____    ______ ____
ROOT
ATOM      1  C   UNL     1       4.431   5.426  17.498  0.00  0.00    +0.000 A 
ATOM      2  N   UNL     1       4.624   5.665  16.153  0.00  0.00    +0.000 NA
ATOM      3  C   UNL     1       5.486   4.738  15.790  0.00  0.00    +0.000 A 
ATOM      4  O   UNL     1       5.813   3.854  16.780  0.00  0.00    +0.000 OA
ATOM      5  C   UNL     1       5.130   4.292  17.880  0.00  0.00    +0.000 A 
ENDROOT
BRANCH   1   9
ATOM      6  C   UNL     1       1.847   7.857  19.862  0.00  0.00    +0.000 A 
ATOM      7  C   UNL     1       2.350   6.648  20.362  0.00  0.00    +0.000 A 
ATOM      8  C   UNL     1       3.244   5.886  19.605  0.00  0.00    +0.000 A 
ATOM      9  C   UNL     1       3.620   6.300  18.320  0.00  0.00    +0.000 A 
ATOM     10  C   UNL     1       3.121   7.511  17.826  0.00  0.00    +0.000 A 
ATOM     11  C   UNL     1       2.253   8.289  18.591  0.00  0.00    +0.000 A 
BRANCH   6  13
ATOM     12  F   UNL     1      -0.064   7.939  21.314  0.00  0.00    +0.000 F 
ATOM     13  C   UNL     1       0.877   8.683  20.670  0.00  0.00    +0.000 C 
ATOM     14  F   UNL     1       0.188   9.576  19.906  0.00  0.00    +0.000 F 
ATOM     15  F   UNL     1       1.499   9.415  21.634  0.00  0.00    +0.000 F 
ENDBRANCH   6  13
ENDBRANCH   1   9
BRANCH   3  16
ATOM     16  C   UNL     1       6.127   4.544  14.498  0.00  0.00    +0.000 A 
ATOM     17  C   UNL     1       7.288   5.244  14.139  0.00  0.00    +0.000 A 
ATOM     18  C   UNL     1       7.858   5.072  12.876  0.00  0.00    +0.000 A 
ATOM     19  C   UNL     1       7.276   4.196  11.960  0.00  0.00    +0.000 A 
ATOM     20  C   UNL     1       6.126   3.490  12.307  0.00  0.00    +0.000 A 
ATOM     21  C   UNL     1       5.554   3.666  13.568  0.00  0.00    +0.000 A 
ENDBRANCH   3  16
BRANCH   5  22
ATOM     22  N   UNL     1       5.310   3.607  19.033  0.00  0.00    +0.000 N 
ATOM     23  H   UNL     1       5.471   4.106  19.900  0.00  0.00    +0.000 HD
BRANCH  22  24
ATOM     24  C   UNL     1       4.637   2.334  19.234  0.00  0.00    +0.000 C 
BRANCH  24  25
ATOM     25  C   UNL     1       3.184   2.514  19.593  0.00  0.00    +0.000 A 
ATOM     26  C   UNL     1       2.829   2.783  20.927  0.00  0.00    +0.000 A 
ATOM     27  C   UNL     1       1.509   3.025  21.284  0.00  0.00    +0.000 A 
ATOM     28  C   UNL     1       0.512   3.008  20.307  0.00  0.00    +0.000 A 
ATOM     29  C   UNL     1       0.841   2.759  18.978  0.00  0.00    +0.000 A 
ATOM     30  C   UNL     1       2.169   2.521  18.621  0.00  0.00    +0.000 A 
ENDBRANCH  24  25
ENDBRANCH  22  24
ENDBRANCH   5  22
TORSDOF 6
ENDMDL
MODEL 2
REMARK VINA RESULT:      -9.5      3.970      7.330
REMARK  Name = 
REMARK  6 active torsions:
REMARK  status: ('A' for Active; 'I' for Inactive)
REMARK    1  A    between atoms: C_2  and  C_5
REMARK    2  A    between atoms: C_8  and  C_9
REMARK    3  A    between atoms: C_11  and  C_12
REMARK    4  A    between atoms: C_19  and  N_20
REMARK    5  A    between atoms: N_20  and  C_21
REMARK    6  A    between atoms: C_21  and  C_22
REMARK                            x       y       z     vdW  Elec       q    Type
REMARK                         _______ _______ _______ _____ _____    ______ ____
ROOT
ATOM      1  C   UNL     1       2.662   6.868  19.539  0.00  0.00    +0.000 A 
ATOM      2  N   UNL     1       2.295   8.179  19.312  0.00  0.00    +0.000 NA
ATOM      3  C   UNL     1       1.311   8.382  20.164  0.00  0.00    +0.000 A 
ATOM      4  O   UNL     1       1.058   7.325  20.993  0.00  0.00    +0.000 OA
ATOM      5  C   UNL     1       1.930   6.350  20.596  0.00  0.00    +0.000 A 
ENDROOT
BRANCH   1   9
ATOM      6  C   UNL     1       5.745   5.102  17.183  0.00  0.00    +0.000 A 
ATOM      7  C   UNL     1       5.774   5.019  18.581  0.00  0.00    +0.000 A 
ATOM      8  C   UNL     1       4.730   5.548  19.344  0.00  0.00    +0.000 A 
ATOM      9  C   UNL     1       3.657   6.203  18.725  0.00  0.00    +0.000 A 
ATOM     10  C   UNL     1       3.627   6.279  17.327  0.00  0.00    +0.000 A 
ATOM     11  C   UNL     1       4.652   5.725  16.561  0.00  0.00    +0.000 A 
BRANCH   6  13
ATOM     12  F   UNL     1       7.347   5.412  15.421  0.00  0.00    +0.000 F 
ATOM     13  C   UNL     1       6.871   4.539  16.351  0.00  0.00    +0.000 C 
ATOM     14  F   UNL     1       6.504   3.422  15.662  0.00  0.00    +0.000 F 
ATOM     15  F   UNL     1       7.942   4.178  17.108  0.00  0.00    +0.000 F 
ENDBRANCH   6  13
ENDBRANCH   1   9
BRANCH   3  16
ATOM     16  C   UNL     1       0.474   9.561  20.327  0.00  0.00    +0.000 A 
ATOM     17  C   UNL     1      -0.256  10.099  19.257  0.00  0.00    +0.000 A 
ATOM     18  C   UNL     1      -1.018  11.257  19.429  0.00  0.00    +0.000 A 
ATOM     19  C   UNL     1      -1.060  11.886  20.672  0.00  0.00    +0.000 A 
ATOM     20  C   UNL     1      -0.345  11.358  21.745  0.00  0.00    +0.000 A 
ATOM     21  C   UNL     1       0.420  10.204  21.571  0.00  0.00    +0.000 A 
ENDBRANCH   3  16
BRANCH   5  22
ATOM     22  N   UNL     1       1.862   5.161  21.237  0.00  0.00    +0.000 N 
ATOM     23  H   UNL     1       1.876   5.129  22.250  0.00  0.00    +0.000 HD
BRANCH  22  24
ATOM     24  C   UNL     1       1.112   4.062  20.651  0.00  0.00    +0.000 C 
BRANCH  24  25
ATOM     25  C   UNL     1       1.946   3.259  19.687  0.00  0.00    +0.000 A 
ATOM     26  C   UNL     1       1.653   3.307  18.312  0.00  0.00    +0.000 A 
ATOM     27  C   UNL     1       2.442   2.638  17.386  0.00  0.00    +0.000 A 
ATOM     28  C   UNL     1       3.549   1.906  17.818  0.00  0.00    +0.000 A 
ATOM     29  C   UNL     1       3.868   1.855  19.172  0.00  0.00    +0.000 A 
ATOM     30  C   UNL     1       3.076   2.533  20.100  0.00  0.00    +0.000 A 
ENDBRANCH  24  25
ENDBRANCH  22  24
ENDBRANCH   5  22
TORSDOF 6
ENDMDL
MODEL 3
REMARK VINA RESULT:      -9.5      3.920      7.503
REMARK  Name = 
REMARK  6 active torsions:
REMARK  status: ('A' for Active; 'I' for Inactive)
REMARK    1  A    between atoms: C_2  and  C_5
REMARK    2  A    between atoms: C_8  and  C_9
REMARK    3  A    between atoms: C_11  and  C_12
REMARK    4  A    between atoms: C_19  and  N_20
REMARK    5  A    between atoms: N_20  and  C_21
REMARK    6  A    between atoms: C_21  and  C_22
REMARK                            x       y       z     vdW  Elec       q    Type
REMARK                         _______ _______ _______ _____ _____    ______ ____
ROOT
ATOM      1  C   UNL     1       2.607   6.842  19.784  0.00  0.00    +0.000 A 
ATOM      2  N   UNL     1       2.250   8.175  19.772  0.00  0.00    +0.000 NA
ATOM      3  C   UNL     1       1.216   8.231  20.586  0.00  0.00    +0.000 A 
ATOM      4  O   UNL     1       0.917   7.046  21.198  0.00  0.00    +0.000 OA
ATOM      5  C   UNL     1       1.815   6.151  20.686  0.00  0.00    +0.000 A 
ENDROOT
BRANCH   1   9
ATOM      6  C   UNL     1       5.517   5.155  17.165  0.00  0.00    +0.000 A 
ATOM      7  C   UNL     1       4.582   6.085  16.693  0.00  0.00    +0.000 A 
ATOM      8  C   UNL     1       3.669   6.679  17.569  0.00  0.00    +0.000 A 
ATOM      9  C   UNL     1       3.652   6.325  18.925  0.00  0.00    +0.000 A 
ATOM     10  C   UNL     1       4.593   5.400  19.395  0.00  0.00    +0.000 A 
ATOM     11  C   UNL     1       5.524   4.829  18.529  0.00  0.00    +0.000 A 
BRANCH   6  13
ATOM     12  F   UNL     1       6.080   3.304  15.743  0.00  0.00    +0.000 F 
ATOM     13  C   UNL     1       6.502   4.505  16.225  0.00  0.00    +0.000 C 
ATOM     14  F   UNL     1       7.708   4.268  16.813  0.00  0.00    +0.000 F 
ATOM     15  F   UNL     1       6.762   5.276  15.134  0.00  0.00    +0.000 F 
ENDBRANCH   6  13
ENDBRANCH   1   9
BRANCH   3  16
ATOM     16  C   UNL     1       0.366   9.368  20.905  0.00  0.00    +0.000 A 
ATOM     17  C   UNL     1      -0.057  10.270  19.919  0.00  0.00    +0.000 A 
ATOM     18  C   UNL     1      -0.837  11.379  20.259  0.00  0.00    +0.000 A 
ATOM     19  C   UNL     1      -1.203  11.594  21.587  0.00  0.00    +0.000 A 
ATOM     20  C   UNL     1      -0.794  10.701  22.575  0.00  0.00    +0.000 A 
ATOM     21  C   UNL     1      -0.011   9.596  22.236  0.00  0.00    +0.000 A 
ENDBRANCH   3  16
BRANCH   5  22
ATOM     22  N   UNL     1       1.713   4.867  21.101  0.00  0.00    +0.000 N 
ATOM     23  H   UNL     1       1.719   4.652  22.092  0.00  0.00    +0.000 HD
BRANCH  22  24
ATOM     24  C   UNL     1       0.941   3.912  20.324  0.00  0.00    +0.000 C 
BRANCH  24  25
ATOM     25  C   UNL     1       1.787   3.198  19.301  0.00  0.00    +0.000 A 
ATOM     26  C   UNL     1       1.687   3.562  17.946  0.00  0.00    +0.000 A 
ATOM     27  C   UNL     1       2.502   2.978  16.984  0.00  0.00    +0.000 A 
ATOM     28  C   UNL     1       3.441   2.016  17.362  0.00  0.00    +0.000 A 
ATOM     29  C   UNL     1       3.568   1.651  18.699  0.00  0.00    +0.000 A 
ATOM     30  C   UNL     1       2.751   2.244  19.664  0.00  0.00    +0.000 A 
ENDBRANCH  24  25
ENDBRANCH  22  24
ENDBRANCH   5  22
TORSDOF 6
ENDMDL
MODEL 4
REMARK VINA RESULT:      -9.4      3.925      7.494
REMARK  Name = 
REMARK  6 active torsions:
REMARK  status: ('A' for Active; 'I' for Inactive)
REMARK    1  A    between atoms: C_2  and  C_5
REMARK    2  A    between atoms: C_8  and  C_9
REMARK    3  A    between atoms: C_11  and  C_12
REMARK    4  A    between atoms: C_19  and  N_20
REMARK    5  A    between atoms: N_20  and  C_21
REMARK    6  A    between atoms: C_21  and  C_22
REMARK                            x       y       z     vdW  Elec       q    Type
REMARK                         _______ _______ _______ _____ _____    ______ ____
ROOT
ATOM      1  C   UNL     1       2.608   6.909  19.767  0.00  0.00    +0.000 A 
ATOM      2  N   UNL     1       2.265   8.245  19.755  0.00  0.00    +0.000 NA
ATOM      3  C   UNL     1       1.228   8.312  20.564  0.00  0.00    +0.000 A 
ATOM      4  O   UNL     1       0.913   7.129  21.173  0.00  0.00    +0.000 OA
ATOM      5  C   UNL     1       1.804   6.225  20.665  0.00  0.00    +0.000 A 
ENDROOT
BRANCH   1   9
ATOM      6  C   UNL     1       5.514   5.192  17.162  0.00  0.00    +0.000 A 
ATOM      7  C   UNL     1       4.588   6.130  16.686  0.00  0.00    +0.000 A 
ATOM      8  C   UNL     1       3.678   6.733  17.557  0.00  0.00    +0.000 A 
ATOM      9  C   UNL     1       3.651   6.381  18.914  0.00  0.00    +0.000 A 
ATOM     10  C   UNL     1       4.582   5.449  19.388  0.00  0.00    +0.000 A 
ATOM     11  C   UNL     1       5.512   4.868  18.527  0.00  0.00    +0.000 A 
BRANCH   6  13
ATOM     12  F   UNL     1       6.816   5.298  15.148  0.00  0.00    +0.000 F 
ATOM     13  C   UNL     1       6.497   4.532  16.227  0.00  0.00    +0.000 C 
ATOM     14  F   UNL     1       6.030   3.355  15.724  0.00  0.00    +0.000 F 
ATOM     15  F   UNL     1       7.675   4.238  16.840  0.00  0.00    +0.000 F 
ENDBRANCH   6  13
ENDBRANCH   1   9
BRANCH   3  16
ATOM     16  C   UNL     1       0.389   9.458  20.880  0.00  0.00    +0.000 A 
ATOM     17  C   UNL     1       0.046   9.776  22.202  0.00  0.00    +0.000 A 
ATOM     18  C   UNL     1      -0.798  10.856  22.476  0.00  0.00    +0.000 A 
ATOM     19  C   UNL     1      -1.303  11.629  21.431  0.00  0.00    +0.000 A 
ATOM     20  C   UNL     1      -0.964  11.327  20.114  0.00  0.00    +0.000 A 
ATOM     21  C   UNL     1      -0.126  10.245  19.841  0.00  0.00    +0.000 A 
ENDBRANCH   3  16
BRANCH   5  22
ATOM     22  N   UNL     1       1.685   4.942  21.078  0.00  0.00    +0.000 N 
ATOM     23  H   UNL     1       1.677   4.726  22.068  0.00  0.00    +0.000 HD
BRANCH  22  24
ATOM     24  C   UNL     1       0.915   3.994  20.290  0.00  0.00    +0.000 C 
BRANCH  24  25
ATOM     25  C   UNL     1       1.775   3.251  19.299  0.00  0.00    +0.000 A 
ATOM     26  C   UNL     1       1.721   3.601  17.938  0.00  0.00    +0.000 A 
ATOM     27  C   UNL     1       2.549   2.989  17.006  0.00  0.00    +0.000 A 
ATOM     28  C   UNL     1       3.456   2.013  17.421  0.00  0.00    +0.000 A 
ATOM     29  C   UNL     1       3.538   1.660  18.765  0.00  0.00    +0.000 A 
ATOM     30  C   UNL     1       2.708   2.281  19.699  0.00  0.00    +0.000 A 
ENDBRANCH  24  25
ENDBRANCH  22  24
ENDBRANCH   5  22
TORSDOF 6
ENDMDL
MODEL 5
REMARK VINA RESULT:      -9.4      0.112      1.154
REMARK  Name = 
REMARK  6 active torsions:
REMARK  status: ('A' for Active; 'I' for Inactive)
REMARK    1  A    between atoms: C_2  and  C_5
REMARK    2  A    between atoms: C_8  and  C_9
REMARK    3  A    between atoms: C_11  and  C_12
REMARK    4  A    between atoms: C_19  and  N_20
REMARK    5  A    between atoms: N_20  and  C_21
REMARK    6  A    between atoms: C_21  and  C_22
REMARK                            x       y       z     vdW  Elec       q    Type
REMARK                         _______ _______ _______ _____ _____    ______ ____
ROOT
ATOM      1  C   UNL     1       4.423   5.478  17.485  0.00  0.00    +0.000 A 
ATOM      2  N   UNL     1       4.605   5.688  16.134  0.00  0.00    +0.000 NA
ATOM      3  C   UNL     1       5.479   4.767  15.787  0.00  0.00    +0.000 A 
ATOM      4  O   UNL     1       5.825   3.911  16.795  0.00  0.00    +0.000 OA
ATOM      5  C   UNL     1       5.143   4.365  17.890  0.00  0.00    +0.000 A 
ENDROOT
BRANCH   1   9
ATOM      6  C   UNL     1       1.815   7.932  19.798  0.00  0.00    +0.000 A 
ATOM      7  C   UNL     1       2.293   6.717  20.305  0.00  0.00    +0.000 A 
ATOM      8  C   UNL     1       3.195   5.946  19.566  0.00  0.00    +0.000 A 
ATOM      9  C   UNL     1       3.605   6.359  18.291  0.00  0.00    +0.000 A 
ATOM     10  C   UNL     1       3.130   7.577  17.790  0.00  0.00    +0.000 A 
ATOM     11  C   UNL     1       2.254   8.363  18.538  0.00  0.00    +0.000 A 
BRANCH   6  13
ATOM     12  F   UNL     1       1.435   9.620  21.463  0.00  0.00    +0.000 F 
ATOM     13  C   UNL     1       0.836   8.767  20.587  0.00  0.00    +0.000 C 
ATOM     14  F   UNL     1      -0.019   8.009  21.328  0.00  0.00    +0.000 F 
ATOM     15  F   UNL     1       0.054   9.541  19.786  0.00  0.00    +0.000 F 
ENDBRANCH   6  13
ENDBRANCH   1   9
BRANCH   3  16
ATOM     16  C   UNL     1       6.115   4.551  14.495  0.00  0.00    +0.000 A 
ATOM     17  C   UNL     1       7.276   5.244  14.123  0.00  0.00    +0.000 A 
ATOM     18  C   UNL     1       7.842   5.051  12.860  0.00  0.00    +0.000 A 
ATOM     19  C   UNL     1       7.254   4.163  11.960  0.00  0.00    +0.000 A 
ATOM     20  C   UNL     1       6.104   3.465  12.321  0.00  0.00    +0.000 A 
ATOM     21  C   UNL     1       5.536   3.661  13.581  0.00  0.00    +0.000 A 
ENDBRANCH   3  16
BRANCH   5  22
ATOM     22  N   UNL     1       5.340   3.709  19.057  0.00  0.00    +0.000 N 
ATOM     23  H   UNL     1       5.524   4.231  19.906  0.00  0.00    +0.000 HD
BRANCH  22  24
ATOM     24  C   UNL     1       4.658   2.451  19.307  0.00  0.00    +0.000 C 
BRANCH  24  25
ATOM     25  C   UNL     1       3.199   2.652  19.627  0.00  0.00    +0.000 A 
ATOM     26  C   UNL     1       2.247   2.564  18.595  0.00  0.00    +0.000 A 
ATOM     27  C   UNL     1       0.888   2.673  18.862  0.00  0.00    +0.000 A 
ATOM     28  C   UNL     1       0.452   2.867  20.173  0.00  0.00    +0.000 A 
ATOM     29  C   UNL     1       1.375   2.943  21.212  0.00  0.00    +0.000 A 
ATOM     30  C   UNL     1       2.739   2.828  20.942  0.00  0.00    +0.000 A 
ENDBRANCH  24  25
ENDBRANCH  22  24
ENDBRANCH   5  22
TORSDOF 6
ENDMDL
MODEL 6
REMARK VINA RESULT:      -9.4      0.220      1.105
REMARK  Name = 
REMARK  6 active torsions:
REMARK  status: ('A' for Active; 'I' for Inactive)
REMARK    1  A    between atoms: C_2  and  C_5
REMARK    2  A    between atoms: C_8  and  C_9
REMARK    3  A    between atoms: C_11  and  C_12
REMARK    4  A    between atoms: C_19  and  N_20
REMARK    5  A    between atoms: N_20  and  C_21
REMARK    6  A    between atoms: C_21  and  C_22
REMARK                            x       y       z     vdW  Elec       q    Type
REMARK                         _______ _______ _______ _____ _____    ______ ____
ROOT
ATOM      1  C   UNL     1       4.283   5.346  17.528  0.00  0.00    +0.000 A 
ATOM      2  N   UNL     1       4.482   5.578  16.183  0.00  0.00    +0.000 NA
ATOM      3  C   UNL     1       5.422   4.718  15.850  0.00  0.00    +0.000 A 
ATOM      4  O   UNL     1       5.800   3.879  16.861  0.00  0.00    +0.000 OA
ATOM      5  C   UNL     1       5.064   4.278  17.942  0.00  0.00    +0.000 A 
ENDROOT
BRANCH   1   9
ATOM      6  C   UNL     1       1.850   7.899  19.923  0.00  0.00    +0.000 A 
ATOM      7  C   UNL     1       2.230   8.277  18.629  0.00  0.00    +0.000 A 
ATOM      8  C   UNL     1       2.977   7.411  17.828  0.00  0.00    +0.000 A 
ATOM      9  C   UNL     1       3.390   6.165  18.320  0.00  0.00    +0.000 A 
ATOM     10  C   UNL     1       3.003   5.786  19.611  0.00  0.00    +0.000 A 
ATOM     11  C   UNL     1       2.231   6.637  20.402  0.00  0.00    +0.000 A 
BRANCH   6  13
ATOM     12  F   UNL     1       1.694   9.193  21.940  0.00  0.00    +0.000 F 
ATOM     13  C   UNL     1       1.048   8.831  20.798  0.00  0.00    +0.000 C 
ATOM     14  F   UNL     1      -0.136   8.286  21.195  0.00  0.00    +0.000 F 
ATOM     15  F   UNL     1       0.732   9.992  20.162  0.00  0.00    +0.000 F 
ENDBRANCH   6  13
ENDBRANCH   1   9
BRANCH   3  16
ATOM     16  C   UNL     1       6.100   4.555  14.573  0.00  0.00    +0.000 A 
ATOM     17  C   UNL     1       7.258   5.280  14.257  0.00  0.00    +0.000 A 
ATOM     18  C   UNL     1       7.865   5.137  13.007  0.00  0.00    +0.000 A 
ATOM     19  C   UNL     1       7.322   4.267  12.063  0.00  0.00    +0.000 A 
ATOM     20  C   UNL     1       6.176   3.536  12.367  0.00  0.00    +0.000 A 
ATOM     21  C   UNL     1       5.567   3.683  13.614  0.00  0.00    +0.000 A 
ENDBRANCH   3  16
BRANCH   5  22
ATOM     22  N   UNL     1       5.277   3.628  19.109  0.00  0.00    +0.000 N 
ATOM     23  H   UNL     1       5.420   4.154  19.964  0.00  0.00    +0.000 HD
BRANCH  22  24
ATOM     24  C   UNL     1       4.658   2.334  19.343  0.00  0.00    +0.000 C 
BRANCH  24  25
ATOM     25  C   UNL     1       3.184   2.456  19.636  0.00  0.00    +0.000 A 
ATOM     26  C   UNL     1       2.761   2.735  20.947  0.00  0.00    +0.000 A 
ATOM     27  C   UNL     1       1.417   2.925  21.243  0.00  0.00    +0.000 A 
ATOM     28  C   UNL     1       0.466   2.845  20.225  0.00  0.00    +0.000 A 
ATOM     29  C   UNL     1       0.862   2.585  18.916  0.00  0.00    +0.000 A 
ATOM     30  C   UNL     1       2.213   2.399  18.622  0.00  0.00    +0.000 A 
ENDBRANCH  24  25
ENDBRANCH  22  24
ENDBRANCH   5  22
TORSDOF 6
ENDMDL
MODEL 7
REMARK VINA RESULT:      -9.3      0.152      1.470
REMARK  Name = 
REMARK  6 active torsions:
REMARK  status: ('A' for Active; 'I' for Inactive)
REMARK    1  A    between atoms: C_2  and  C_5
REMARK    2  A    between atoms: C_8  and  C_9
REMARK    3  A    between atoms: C_11  and  C_12
REMARK    4  A    between atoms: C_19  and  N_20
REMARK    5  A    between atoms: N_20  and  C_21
REMARK    6  A    between atoms: C_21  and  C_22
REMARK                            x       y       z     vdW  Elec       q    Type
REMARK                         _______ _______ _______ _____ _____    ______ ____
ROOT
ATOM      1  C   UNL     1       4.411   5.380  17.525  0.00  0.00    +0.000 A 
ATOM      2  N   UNL     1       4.571   5.636  16.178  0.00  0.00    +0.000 NA
ATOM      3  C   UNL     1       5.425   4.715  15.782  0.00  0.00    +0.000 A 
ATOM      4  O   UNL     1       5.777   3.819  16.753  0.00  0.00    +0.000 OA
ATOM      5  C   UNL     1       5.121   4.242  17.875  0.00  0.00    +0.000 A 
ENDROOT
BRANCH   1   9
ATOM      6  C   UNL     1       1.886   7.772  19.988  0.00  0.00    +0.000 A 
ATOM      7  C   UNL     1       2.439   6.580  20.473  0.00  0.00    +0.000 A 
ATOM      8  C   UNL     1       3.314   5.832  19.681  0.00  0.00    +0.000 A 
ATOM      9  C   UNL     1       3.620   6.242  18.376  0.00  0.00    +0.000 A 
ATOM     10  C   UNL     1       3.071   7.438  17.897  0.00  0.00    +0.000 A 
ATOM     11  C   UNL     1       2.222   8.203  18.696  0.00  0.00    +0.000 A 
BRANCH   6  13
ATOM     12  F   UNL     1       0.388   9.641  20.174  0.00  0.00    +0.000 F 
ATOM     13  C   UNL     1       0.936   8.584  20.835  0.00  0.00    +0.000 C 
ATOM     14  F   UNL     1       1.536   9.105  21.941  0.00  0.00    +0.000 F 
ATOM     15  F   UNL     1      -0.111   7.844  21.290  0.00  0.00    +0.000 F 
ENDBRANCH   6  13
ENDBRANCH   1   9
BRANCH   3  16
ATOM     16  C   UNL     1       6.034   4.538  14.472  0.00  0.00    +0.000 A 
ATOM     17  C   UNL     1       5.508   3.641  13.532  0.00  0.00    +0.000 A 
ATOM     18  C   UNL     1       6.137   3.457  12.298  0.00  0.00    +0.000 A 
ATOM     19  C   UNL     1       7.295   4.169  11.992  0.00  0.00    +0.000 A 
ATOM     20  C   UNL     1       7.825   5.068  12.915  0.00  0.00    +0.000 A 
ATOM     21  C   UNL     1       7.199   5.248  14.150  0.00  0.00    +0.000 A 
ENDBRANCH   3  16
BRANCH   5  22
ATOM     22  N   UNL     1       5.330   3.543  19.014  0.00  0.00    +0.000 N 
ATOM     23  H   UNL     1       5.568   4.029  19.871  0.00  0.00    +0.000 HD
BRANCH  22  24
ATOM     24  C   UNL     1       4.602   2.308  19.252  0.00  0.00    +0.000 C 
BRANCH  24  25
ATOM     25  C   UNL     1       3.152   2.561  19.579  0.00  0.00    +0.000 A 
ATOM     26  C   UNL     1       2.190   2.491  18.555  0.00  0.00    +0.000 A 
ATOM     27  C   UNL     1       0.838   2.647  18.830  0.00  0.00    +0.000 A 
ATOM     28  C   UNL     1       0.418   2.872  20.142  0.00  0.00    +0.000 A 
ATOM     29  C   UNL     1       1.350   2.930  21.174  0.00  0.00    +0.000 A 
ATOM     30  C   UNL     1       2.708   2.768  20.895  0.00  0.00    +0.000 A 
ENDBRANCH  24  25
ENDBRANCH  22  24
ENDBRANCH   5  22
TORSDOF 6
ENDMDL
MODEL 8
REMARK VINA RESULT:      -9.3      4.158      7.175
REMARK  Name = 
REMARK  6 active torsions:
REMARK  status: ('A' for Active; 'I' for Inactive)
REMARK    1  A    between atoms: C_2  and  C_5
REMARK    2  A    between atoms: C_8  and  C_9
REMARK    3  A    between atoms: C_11  and  C_12
REMARK    4  A    between atoms: C_19  and  N_20
REMARK    5  A    between atoms: N_20  and  C_21
REMARK    6  A    between atoms: C_21  and  C_22
REMARK                            x       y       z     vdW  Elec       q    Type
REMARK                         _______ _______ _______ _____ _____    ______ ____
ROOT
ATOM      1  C   UNL     1       2.733   7.574  18.197  0.00  0.00    +0.000 A 
ATOM      2  N   UNL     1       2.166   8.685  17.606  0.00  0.00    +0.000 NA
ATOM      3  C   UNL     1       1.335   9.138  18.521  0.00  0.00    +0.000 A 
ATOM      4  O   UNL     1       1.373   8.455  19.704  0.00  0.00    +0.000 OA
ATOM      5  C   UNL     1       2.276   7.449  19.499  0.00  0.00    +0.000 A 
ENDROOT
BRANCH   1   9
ATOM      6  C   UNL     1       5.274   5.064  15.870  0.00  0.00    +0.000 A 
ATOM      7  C   UNL     1       5.429   6.457  15.851  0.00  0.00    +0.000 A 
ATOM      8  C   UNL     1       4.632   7.269  16.661  0.00  0.00    +0.000 A 
ATOM      9  C   UNL     1       3.641   6.706  17.477  0.00  0.00    +0.000 A 
ATOM     10  C   UNL     1       3.493   5.314  17.499  0.00  0.00    +0.000 A 
ATOM     11  C   UNL     1       4.308   4.498  16.714  0.00  0.00    +0.000 A 
BRANCH   6  13
ATOM     12  F   UNL     1       5.699   4.122  13.702  0.00  0.00    +0.000 F 
ATOM     13  C   UNL     1       6.127   4.180  14.993  0.00  0.00    +0.000 C 
ATOM     14  F   UNL     1       6.165   2.890  15.432  0.00  0.00    +0.000 F 
ATOM     15  F   UNL     1       7.420   4.597  14.941  0.00  0.00    +0.000 F 
ENDBRANCH   6  13
ENDBRANCH   1   9
BRANCH   3  16
ATOM     16  C   UNL     1       0.397  10.248  18.433  0.00  0.00    +0.000 A 
ATOM     17  C   UNL     1       0.717  11.522  18.923  0.00  0.00    +0.000 A 
ATOM     18  C   UNL     1      -0.218  12.559  18.866  0.00  0.00    +0.000 A 
ATOM     19  C   UNL     1      -1.479  12.332  18.316  0.00  0.00    +0.000 A 
ATOM     20  C   UNL     1      -1.807  11.072  17.821  0.00  0.00    +0.000 A 
ATOM     21  C   UNL     1      -0.874  10.035  17.882  0.00  0.00    +0.000 A 
ENDBRANCH   3  16
BRANCH   5  22
ATOM     22  N   UNL     1       2.478   6.582  20.518  0.00  0.00    +0.000 N 
ATOM     23  H   UNL     1       3.022   6.865  21.325  0.00  0.00    +0.000 HD
BRANCH  22  24
ATOM     24  C   UNL     1       1.461   5.596  20.845  0.00  0.00    +0.000 C 
BRANCH  24  25
ATOM     25  C   UNL     1       1.766   4.248  20.242  0.00  0.00    +0.000 A 
ATOM     26  C   UNL     1       0.825   3.643  19.391  0.00  0.00    +0.000 A 
ATOM     27  C   UNL     1       1.099   2.435  18.761  0.00  0.00    +0.000 A 
ATOM     28  C   UNL     1       2.329   1.809  18.968  0.00  0.00    +0.000 A 
ATOM     29  C   UNL     1       3.282   2.397  19.795  0.00  0.00    +0.000 A 
ATOM     30  C   UNL     1       3.005   3.612  20.422  0.00  0.00    +0.000 A 
ENDBRANCH  24  25
ENDBRANCH  22  24
ENDBRANCH   5  22
TORSDOF 6
ENDMDL
MODEL 9
REMARK VINA RESULT:      -9.3      3.941      7.375
REMARK  Name = 
REMARK  6 active torsions:
REMARK  status: ('A' for Active; 'I' for Inactive)
REMARK    1  A    between atoms: C_2  and  C_5
REMARK    2  A    between atoms: C_8  and  C_9
REMARK    3  A    between atoms: C_11  and  C_12
REMARK    4  A    between atoms: C_19  and  N_20
REMARK    5  A    between atoms: N_20  and  C_21
REMARK    6  A    between atoms: C_21  and  C_22
REMARK                            x       y       z     vdW  Elec       q    Type
REMARK                         _______ _______ _______ _____ _____    ______ ____
ROOT
ATOM      1  C   UNL     1       2.643   7.090  19.594  0.00  0.00    +0.000 A 
ATOM      2  N   UNL     1       2.230   8.394  19.414  0.00  0.00    +0.000 NA
ATOM      3  C   UNL     1       1.215   8.520  20.243  0.00  0.00    +0.000 A 
ATOM      4  O   UNL     1       0.980   7.418  21.017  0.00  0.00    +0.000 OA
ATOM      5  C   UNL     1       1.902   6.497  20.604  0.00  0.00    +0.000 A 
ENDROOT
BRANCH   1   9
ATOM      6  C   UNL     1       5.555   5.184  17.132  0.00  0.00    +0.000 A 
ATOM      7  C   UNL     1       4.604   6.050  16.578  0.00  0.00    +0.000 A 
ATOM      8  C   UNL     1       3.690   6.717  17.398  0.00  0.00    +0.000 A 
ATOM      9  C   UNL     1       3.688   6.502  18.782  0.00  0.00    +0.000 A 
ATOM     10  C   UNL     1       4.644   5.641  19.334  0.00  0.00    +0.000 A 
ATOM     11  C   UNL     1       5.577   4.996  18.522  0.00  0.00    +0.000 A 
BRANCH   6  13
ATOM     12  F   UNL     1       7.689   4.109  16.898  0.00  0.00    +0.000 F 
ATOM     13  C   UNL     1       6.541   4.454  16.253  0.00  0.00    +0.000 C 
ATOM     14  F   UNL     1       6.926   5.192  15.174  0.00  0.00    +0.000 F 
ATOM     15  F   UNL     1       6.030   3.297  15.753  0.00  0.00    +0.000 F 
ENDBRANCH   6  13
ENDBRANCH   1   9
BRANCH   3  16
ATOM     16  C   UNL     1       0.326   9.657  20.432  0.00  0.00    +0.000 A 
ATOM     17  C   UNL     1       0.087  10.201  21.702  0.00  0.00    +0.000 A 
ATOM     18  C   UNL     1      -0.805  11.264  21.862  0.00  0.00    +0.000 A 
ATOM     19  C   UNL     1      -1.464  11.795  20.754  0.00  0.00    +0.000 A 
ATOM     20  C   UNL     1      -1.230  11.268  19.485  0.00  0.00    +0.000 A 
ATOM     21  C   UNL     1      -0.342  10.202  19.327  0.00  0.00    +0.000 A 
ENDBRANCH   3  16
BRANCH   5  22
ATOM     22  N   UNL     1       1.864   5.278  21.189  0.00  0.00    +0.000 N 
ATOM     23  H   UNL     1       1.890   5.200  22.200  0.00  0.00    +0.000 HD
BRANCH  22  24
ATOM     24  C   UNL     1       1.128   4.193  20.561  0.00  0.00    +0.000 C 
BRANCH  24  25
ATOM     25  C   UNL     1       1.953   3.478  19.522  0.00  0.00    +0.000 A 
ATOM     26  C   UNL     1       2.923   2.545  19.931  0.00  0.00    +0.000 A 
ATOM     27  C   UNL     1       3.653   1.814  19.002  0.00  0.00    +0.000 A 
ATOM     28  C   UNL     1       3.422   2.000  17.638  0.00  0.00    +0.000 A 
ATOM     29  C   UNL     1       2.457   2.907  17.210  0.00  0.00    +0.000 A 
ATOM     30  C   UNL     1       1.722   3.635  18.145  0.00  0.00    +0.000 A 
ENDBRANCH  24  25
ENDBRANCH  22  24
ENDBRANCH   5  22
TORSDOF 6
ENDMDL
