MODEL 1
REMARK VINA RESULT:      -7.5      0.000      0.000
REMARK  Name = 
REMARK  4 active torsions:
REMARK  status: ('A' for Active; 'I' for Inactive)
REMARK    1  A    between atoms: C_1  and  C_2
REMARK    2  A    between atoms: C_5  and  C_6
REMARK    3  A    between atoms: C_7  and  C_8
REMARK    4  A    between atoms: C_15  and  C_16
REMARK                            x       y       z     vdW  Elec       q    Type
REMARK                         _______ _______ _______ _____ _____    ______ ____
ROOT
ATOM      1  C   UNL     1       5.035   6.435  16.007  0.00  0.00    +0.000 C 
ATOM      2  C   UNL     1       4.443   5.969  17.286  0.00  0.00    +0.000 A 
ATOM      3  C   UNL     1       3.671   6.741  18.202  0.00  0.00    +0.000 A 
ATOM      4  C   UNL     1       3.188   5.875  19.156  0.00  0.00    +0.000 A 
ATOM      5  C   UNL     1       2.275   6.002  20.258  0.00  0.00    +0.000 A 
ATOM      6  N   UNL     1       1.896   4.996  20.990  0.00  0.00    +0.000 NA
ATOM      7  C   UNL     1       2.410   3.740  20.668  0.00  0.00    +0.000 A 
ATOM      8  C   UNL     1       1.885   2.571  21.450  0.00  0.00    +0.000 C 
ATOM      9  C   UNL     1       3.297   3.544  19.673  0.00  0.00    +0.000 A 
ATOM     10  N   UNL     1       3.687   4.624  18.902  0.00  0.00    +0.000 N 
ATOM     11  C   UNL     1       4.494   4.681  17.795  0.00  0.00    +0.000 A 
ENDROOT
BRANCH   5  12
ATOM     12  C   UNL     1       1.665   7.248  20.647  0.00  0.00    +0.000 C 
ATOM     13  C   UNL     1       1.107   8.246  21.018  0.00  0.00    +0.000 C 
BRANCH  13  14
ATOM     14  C   UNL     1       0.395   9.398  21.485  0.00  0.00    +0.000 A 
ATOM     15  C   UNL     1       0.408  10.584  20.746  0.00  0.00    +0.000 A 
ATOM     16  C   UNL     1      -0.267  11.711  21.222  0.00  0.00    +0.000 A 
ATOM     17  C   UNL     1      -0.953  11.655  22.434  0.00  0.00    +0.000 A 
ATOM     18  C   UNL     1      -0.967  10.472  23.173  0.00  0.00    +0.000 A 
ATOM     19  C   UNL     1      -0.293   9.344  22.699  0.00  0.00    +0.000 A 
ENDBRANCH  13  14
ENDBRANCH   5  12
TORSDOF 2
ENDMDL
MODEL 2
REMARK VINA RESULT:      -7.4      0.911      3.220
REMARK  Name = 
REMARK  4 active torsions:
REMARK  status: ('A' for Active; 'I' for Inactive)
REMARK    1  A    between atoms: C_1  and  C_2
REMARK    2  A    between atoms: C_5  and  C_6
REMARK    3  A    between atoms: C_7  and  C_8
REMARK    4  A    between atoms: C_15  and  C_16
REMARK                            x       y       z     vdW  Elec       q    Type
REMARK                         _______ _______ _______ _____ _____    ______ ____
ROOT
ATOM      1  C   UNL     1       1.853   2.443  21.733  0.00  0.00    +0.000 C 
ATOM      2  C   UNL     1       2.151   3.480  20.715  0.00  0.00    +0.000 A 
ATOM      3  C   UNL     1       1.740   4.845  20.740  0.00  0.00    +0.000 A 
ATOM      4  C   UNL     1       2.374   5.479  19.696  0.00  0.00    +0.000 A 
ATOM      5  C   UNL     1       2.471   6.844  19.260  0.00  0.00    +0.000 A 
ATOM      6  N   UNL     1       3.219   7.224  18.265  0.00  0.00    +0.000 NA
ATOM      7  C   UNL     1       3.957   6.240  17.608  0.00  0.00    +0.000 A 
ATOM      8  C   UNL     1       4.896   6.704  16.532  0.00  0.00    +0.000 C 
ATOM      9  C   UNL     1       3.893   4.935  17.934  0.00  0.00    +0.000 A 
ATOM     10  N   UNL     1       3.097   4.548  18.996  0.00  0.00    +0.000 N 
ATOM     11  C   UNL     1       2.926   3.319  19.578  0.00  0.00    +0.000 A 
ENDROOT
BRANCH   5  12
ATOM     12  C   UNL     1       1.776   7.934  19.895  0.00  0.00    +0.000 C 
ATOM     13  C   UNL     1       1.185   8.797  20.488  0.00  0.00    +0.000 C 
BRANCH  13  14
ATOM     14  C   UNL     1       0.460   9.780  21.237  0.00  0.00    +0.000 A 
ATOM     15  C   UNL     1       0.470  11.119  20.839  0.00  0.00    +0.000 A 
ATOM     16  C   UNL     1      -0.217  12.077  21.592  0.00  0.00    +0.000 A 
ATOM     17  C   UNL     1      -0.911  11.697  22.740  0.00  0.00    +0.000 A 
ATOM     18  C   UNL     1      -0.922  10.361  23.137  0.00  0.00    +0.000 A 
ATOM     19  C   UNL     1      -0.236   9.403  22.387  0.00  0.00    +0.000 A 
ENDBRANCH  13  14
ENDBRANCH   5  12
TORSDOF 2
ENDMDL
MODEL 3
REMARK VINA RESULT:      -7.4      5.135      7.329
REMARK  Name = 
REMARK  4 active torsions:
REMARK  status: ('A' for Active; 'I' for Inactive)
REMARK    1  A    between atoms: C_1  and  C_2
REMARK    2  A    between atoms: C_5  and  C_6
REMARK    3  A    between atoms: C_7  and  C_8
REMARK    4  A    between atoms: C_15  and  C_16
REMARK                            x       y       z     vdW  Elec       q    Type
REMARK                         _______ _______ _______ _____ _____    ______ ____
ROOT
ATOM      1  C   UNL     1       3.737   3.805  20.165  0.00  0.00    +0.000 C 
ATOM      2  C   UNL     1       4.404   4.291  18.932  0.00  0.00    +0.000 A 
ATOM      3  C   UNL     1       5.227   5.448  18.804  0.00  0.00    +0.000 A 
ATOM      4  C   UNL     1       5.768   5.424  17.539  0.00  0.00    +0.000 A 
ATOM      5  C   UNL     1       6.743   6.221  16.849  0.00  0.00    +0.000 A 
ATOM      6  N   UNL     1       7.168   5.948  15.650  0.00  0.00    +0.000 NA
ATOM      7  C   UNL     1       6.638   4.820  15.025  0.00  0.00    +0.000 A 
ATOM      8  C   UNL     1       7.212   4.455  13.686  0.00  0.00    +0.000 C 
ATOM      9  C   UNL     1       5.695   4.043  15.591  0.00  0.00    +0.000 A 
ATOM     10  N   UNL     1       5.257   4.344  16.868  0.00  0.00    +0.000 N 
ATOM     11  C   UNL     1       4.387   3.677  17.690  0.00  0.00    +0.000 A 
ENDROOT
BRANCH   5  12
ATOM     12  C   UNL     1       7.372   7.383  17.423  0.00  0.00    +0.000 C 
ATOM     13  C   UNL     1       7.884   8.391  17.833  0.00  0.00    +0.000 C 
BRANCH  13  14
ATOM     14  C   UNL     1       8.494   9.614  18.261  0.00  0.00    +0.000 A 
ATOM     15  C   UNL     1       9.238   9.657  19.443  0.00  0.00    +0.000 A 
ATOM     16  C   UNL     1       9.807  10.861  19.868  0.00  0.00    +0.000 A 
ATOM     17  C   UNL     1       9.632  12.021  19.114  0.00  0.00    +0.000 A 
ATOM     18  C   UNL     1       8.889  11.980  17.935  0.00  0.00    +0.000 A 
ATOM     19  C   UNL     1       8.320  10.777  17.509  0.00  0.00    +0.000 A 
ENDBRANCH  13  14
ENDBRANCH   5  12
TORSDOF 2
ENDMDL
MODEL 4
REMARK VINA RESULT:      -7.4      2.829      4.005
REMARK  Name = 
REMARK  4 active torsions:
REMARK  status: ('A' for Active; 'I' for Inactive)
REMARK    1  A    between atoms: C_1  and  C_2
REMARK    2  A    between atoms: C_5  and  C_6
REMARK    3  A    between atoms: C_7  and  C_8
REMARK    4  A    between atoms: C_15  and  C_16
REMARK                            x       y       z     vdW  Elec       q    Type
REMARK                         _______ _______ _______ _____ _____    ______ ____
ROOT
ATOM      1  C   UNL     1       1.242   2.349  18.682  0.00  0.00    +0.000 C 
ATOM      2  C   UNL     1       2.203   3.380  18.218  0.00  0.00    +0.000 A 
ATOM      3  C   UNL     1       1.958   4.778  18.085  0.00  0.00    +0.000 A 
ATOM      4  C   UNL     1       3.162   5.375  17.790  0.00  0.00    +0.000 A 
ATOM      5  C   UNL     1       3.601   6.736  17.653  0.00  0.00    +0.000 A 
ATOM      6  N   UNL     1       4.843   7.068  17.447  0.00  0.00    +0.000 NA
ATOM      7  C   UNL     1       5.775   6.034  17.364  0.00  0.00    +0.000 A 
ATOM      8  C   UNL     1       7.217   6.432  17.233  0.00  0.00    +0.000 C 
ATOM      9  C   UNL     1       5.438   4.733  17.447  0.00  0.00    +0.000 A 
ATOM     10  N   UNL     1       4.115   4.397  17.670  0.00  0.00    +0.000 N 
ATOM     11  C   UNL     1       3.530   3.175  17.878  0.00  0.00    +0.000 A 
ENDROOT
BRANCH   5  12
ATOM     12  C   UNL     1       2.721   7.871  17.758  0.00  0.00    +0.000 C 
ATOM     13  C   UNL     1       1.975   8.799  17.921  0.00  0.00    +0.000 C 
BRANCH  13  14
ATOM     14  C   UNL     1       1.066   9.878  18.172  0.00  0.00    +0.000 A 
ATOM     15  C   UNL     1       1.533  11.090  18.685  0.00  0.00    +0.000 A 
ATOM     16  C   UNL     1       0.636  12.128  18.954  0.00  0.00    +0.000 A 
ATOM     17  C   UNL     1      -0.726  11.955  18.710  0.00  0.00    +0.000 A 
ATOM     18  C   UNL     1      -1.193  10.746  18.197  0.00  0.00    +0.000 A 
ATOM     19  C   UNL     1      -0.299   9.707  17.929  0.00  0.00    +0.000 A 
ENDBRANCH  13  14
ENDBRANCH   5  12
TORSDOF 2
ENDMDL
MODEL 5
REMARK VINA RESULT:      -7.4      4.918      7.244
REMARK  Name = 
REMARK  4 active torsions:
REMARK  status: ('A' for Active; 'I' for Inactive)
REMARK    1  A    between atoms: C_1  and  C_2
REMARK    2  A    between atoms: C_5  and  C_6
REMARK    3  A    between atoms: C_7  and  C_8
REMARK    4  A    between atoms: C_15  and  C_16
REMARK                            x       y       z     vdW  Elec       q    Type
REMARK                         _______ _______ _______ _____ _____    ______ ____
ROOT
ATOM      1  C   UNL     1       3.568   4.120  20.224  0.00  0.00    +0.000 C 
ATOM      2  C   UNL     1       4.264   4.536  18.981  0.00  0.00    +0.000 A 
ATOM      3  C   UNL     1       5.144   5.646  18.825  0.00  0.00    +0.000 A 
ATOM      4  C   UNL     1       5.690   5.559  17.565  0.00  0.00    +0.000 A 
ATOM      5  C   UNL     1       6.707   6.286  16.858  0.00  0.00    +0.000 A 
ATOM      6  N   UNL     1       7.123   5.957  15.669  0.00  0.00    +0.000 NA
ATOM      7  C   UNL     1       6.540   4.838  15.075  0.00  0.00    +0.000 A 
ATOM      8  C   UNL     1       7.101   4.406  13.750  0.00  0.00    +0.000 C 
ATOM      9  C   UNL     1       5.557   4.126  15.657  0.00  0.00    +0.000 A 
ATOM     10  N   UNL     1       5.129   4.485  16.922  0.00  0.00    +0.000 N 
ATOM     11  C   UNL     1       4.222   3.887  17.758  0.00  0.00    +0.000 A 
ENDROOT
BRANCH   5  12
ATOM     12  C   UNL     1       7.390   7.431  17.401  0.00  0.00    +0.000 C 
ATOM     13  C   UNL     1       7.909   8.433  17.816  0.00  0.00    +0.000 C 
BRANCH  13  14
ATOM     14  C   UNL     1       8.493   9.661  18.266  0.00  0.00    +0.000 A 
ATOM     15  C   UNL     1       8.341  10.832  17.518  0.00  0.00    +0.000 A 
ATOM     16  C   UNL     1       8.938  12.020  17.950  0.00  0.00    +0.000 A 
ATOM     17  C   UNL     1       9.686  12.038  19.126  0.00  0.00    +0.000 A 
ATOM     18  C   UNL     1       9.837  10.872  19.874  0.00  0.00    +0.000 A 
ATOM     19  C   UNL     1       9.242   9.683  19.444  0.00  0.00    +0.000 A 
ENDBRANCH  13  14
ENDBRANCH   5  12
TORSDOF 2
ENDMDL
MODEL 6
REMARK VINA RESULT:      -7.4      2.834      4.068
REMARK  Name = 
REMARK  4 active torsions:
REMARK  status: ('A' for Active; 'I' for Inactive)
REMARK    1  A    between atoms: C_1  and  C_2
REMARK    2  A    between atoms: C_5  and  C_6
REMARK    3  A    between atoms: C_7  and  C_8
REMARK    4  A    between atoms: C_15  and  C_16
REMARK                            x       y       z     vdW  Elec       q    Type
REMARK                         _______ _______ _______ _____ _____    ______ ____
ROOT
ATOM      1  C   UNL     1       1.133   2.440  18.697  0.00  0.00    +0.000 C 
ATOM      2  C   UNL     1       2.128   3.432  18.223  0.00  0.00    +0.000 A 
ATOM      3  C   UNL     1       1.942   4.841  18.106  0.00  0.00    +0.000 A 
ATOM      4  C   UNL     1       3.165   5.388  17.792  0.00  0.00    +0.000 A 
ATOM      5  C   UNL     1       3.661   6.729  17.657  0.00  0.00    +0.000 A 
ATOM      6  N   UNL     1       4.912   7.008  17.430  0.00  0.00    +0.000 NA
ATOM      7  C   UNL     1       5.796   5.936  17.320  0.00  0.00    +0.000 A 
ATOM      8  C   UNL     1       7.252   6.272  17.164  0.00  0.00    +0.000 C 
ATOM      9  C   UNL     1       5.404   4.650  17.399  0.00  0.00    +0.000 A 
ATOM     10  N   UNL     1       4.072   4.370  17.645  0.00  0.00    +0.000 N 
ATOM     11  C   UNL     1       3.438   3.173  17.855  0.00  0.00    +0.000 A 
ENDROOT
BRANCH   5  12
ATOM     12  C   UNL     1       2.834   7.900  17.788  0.00  0.00    +0.000 C 
ATOM     13  C   UNL     1       2.120   8.851  17.969  0.00  0.00    +0.000 C 
BRANCH  13  14
ATOM     14  C   UNL     1       1.242   9.951  18.233  0.00  0.00    +0.000 A 
ATOM     15  C   UNL     1      -0.144   9.774  18.196  0.00  0.00    +0.000 A 
ATOM     16  C   UNL     1      -0.995  10.859  18.427  0.00  0.00    +0.000 A 
ATOM     17  C   UNL     1      -0.462  12.119  18.694  0.00  0.00    +0.000 A 
ATOM     18  C   UNL     1       0.920  12.298  18.732  0.00  0.00    +0.000 A 
ATOM     19  C   UNL     1       1.772  11.215  18.501  0.00  0.00    +0.000 A 
ENDBRANCH  13  14
ENDBRANCH   5  12
TORSDOF 2
ENDMDL
MODEL 7
REMARK VINA RESULT:      -7.4      0.885      3.391
REMARK  Name = 
REMARK  4 active torsions:
REMARK  status: ('A' for Active; 'I' for Inactive)
REMARK    1  A    between atoms: C_1  and  C_2
REMARK    2  A    between atoms: C_5  and  C_6
REMARK    3  A    between atoms: C_7  and  C_8
REMARK    4  A    between atoms: C_15  and  C_16
REMARK                            x       y       z     vdW  Elec       q    Type
REMARK                         _______ _______ _______ _____ _____    ______ ____
ROOT
ATOM      1  C   UNL     1       1.829   2.278  21.607  0.00  0.00    +0.000 C 
ATOM      2  C   UNL     1       2.125   3.358  20.634  0.00  0.00    +0.000 A 
ATOM      3  C   UNL     1       1.739   4.727  20.731  0.00  0.00    +0.000 A 
ATOM      4  C   UNL     1       2.364   5.400  19.707  0.00  0.00    +0.000 A 
ATOM      5  C   UNL     1       2.476   6.782  19.334  0.00  0.00    +0.000 A 
ATOM      6  N   UNL     1       3.212   7.197  18.344  0.00  0.00    +0.000 NA
ATOM      7  C   UNL     1       3.920   6.234  17.626  0.00  0.00    +0.000 A 
ATOM      8  C   UNL     1       4.847   6.733  16.555  0.00  0.00    +0.000 C 
ATOM      9  C   UNL     1       3.840   4.916  17.891  0.00  0.00    +0.000 A 
ATOM     10  N   UNL     1       3.058   4.491  18.949  0.00  0.00    +0.000 N 
ATOM     11  C   UNL     1       2.876   3.239  19.475  0.00  0.00    +0.000 A 
ENDROOT
BRANCH   5  12
ATOM     12  C   UNL     1       1.812   7.851  20.034  0.00  0.00    +0.000 C 
ATOM     13  C   UNL     1       1.192   8.700  20.618  0.00  0.00    +0.000 C 
BRANCH  13  14
ATOM     14  C   UNL     1       0.398   9.678  21.299  0.00  0.00    +0.000 A 
ATOM     15  C   UNL     1      -0.115   9.411  22.571  0.00  0.00    +0.000 A 
ATOM     16  C   UNL     1      -0.912  10.360  23.217  0.00  0.00    +0.000 A 
ATOM     17  C   UNL     1      -1.196  11.575  22.594  0.00  0.00    +0.000 A 
ATOM     18  C   UNL     1      -0.685  11.843  21.325  0.00  0.00    +0.000 A 
ATOM     19  C   UNL     1       0.112  10.896  20.678  0.00  0.00    +0.000 A 
ENDBRANCH  13  14
ENDBRANCH   5  12
TORSDOF 2
ENDMDL
MODEL 8
REMARK VINA RESULT:      -7.3      2.740      7.912
REMARK  Name = 
REMARK  4 active torsions:
REMARK  status: ('A' for Active; 'I' for Inactive)
REMARK    1  A    between atoms: C_1  and  C_2
REMARK    2  A    between atoms: C_5  and  C_6
REMARK    3  A    between atoms: C_7  and  C_8
REMARK    4  A    between atoms: C_15  and  C_16
REMARK                            x       y       z     vdW  Elec       q    Type
REMARK                         _______ _______ _______ _____ _____    ______ ____
ROOT
ATOM      1  C   UNL     1       2.108   9.675  18.254  0.00  0.00    +0.000 C 
ATOM      2  C   UNL     1       2.336   8.217  18.405  0.00  0.00    +0.000 A 
ATOM      3  C   UNL     1       3.091   7.375  17.537  0.00  0.00    +0.000 A 
ATOM      4  C   UNL     1       3.180   6.143  18.142  0.00  0.00    +0.000 A 
ATOM      5  C   UNL     1       3.885   4.927  17.846  0.00  0.00    +0.000 A 
ATOM      6  N   UNL     1       3.882   3.891  18.633  0.00  0.00    +0.000 NA
ATOM      7  C   UNL     1       3.154   3.990  19.819  0.00  0.00    +0.000 A 
ATOM      8  C   UNL     1       3.244   2.829  20.767  0.00  0.00    +0.000 C 
ATOM      9  C   UNL     1       2.439   5.081  20.151  0.00  0.00    +0.000 A 
ATOM     10  N   UNL     1       2.456   6.176  19.306  0.00  0.00    +0.000 N 
ATOM     11  C   UNL     1       1.896   7.419  19.448  0.00  0.00    +0.000 A 
ENDROOT
BRANCH   5  12
ATOM     12  C   UNL     1       4.690   4.741  16.667  0.00  0.00    +0.000 C 
ATOM     13  C   UNL     1       5.297   4.594  15.639  0.00  0.00    +0.000 C 
BRANCH  13  14
ATOM     14  C   UNL     1       5.962   4.412  14.383  0.00  0.00    +0.000 A 
ATOM     15  C   UNL     1       7.150   5.094  14.108  0.00  0.00    +0.000 A 
ATOM     16  C   UNL     1       7.778   4.933  12.870  0.00  0.00    +0.000 A 
ATOM     17  C   UNL     1       7.220   4.092  11.908  0.00  0.00    +0.000 A 
ATOM     18  C   UNL     1       6.035   3.410  12.181  0.00  0.00    +0.000 A 
ATOM     19  C   UNL     1       5.406   3.570  13.418  0.00  0.00    +0.000 A 
ENDBRANCH  13  14
ENDBRANCH   5  12
TORSDOF 2
ENDMDL
MODEL 9
REMARK VINA RESULT:      -7.2      0.241      1.129
REMARK  Name = 
REMARK  4 active torsions:
REMARK  status: ('A' for Active; 'I' for Inactive)
REMARK    1  A    between atoms: C_1  and  C_2
REMARK    2  A    between atoms: C_5  and  C_6
REMARK    3  A    between atoms: C_7  and  C_8
REMARK    4  A    between atoms: C_15  and  C_16
REMARK                            x       y       z     vdW  Elec       q    Type
REMARK                         _______ _______ _______ _____ _____    ______ ____
ROOT
ATOM      1  C   UNL     1       4.919   6.679  16.133  0.00  0.00    +0.000 C 
ATOM      2  C   UNL     1       4.318   6.114  17.366  0.00  0.00    +0.000 A 
ATOM      3  C   UNL     1       3.553   6.815  18.343  0.00  0.00    +0.000 A 
ATOM      4  C   UNL     1       3.057   5.878  19.220  0.00  0.00    +0.000 A 
ATOM      5  C   UNL     1       2.143   5.923  20.327  0.00  0.00    +0.000 A 
ATOM      6  N   UNL     1       1.749   4.863  20.971  0.00  0.00    +0.000 NA
ATOM      7  C   UNL     1       2.251   3.633  20.545  0.00  0.00    +0.000 A 
ATOM      8  C   UNL     1       1.709   2.409  21.226  0.00  0.00    +0.000 C 
ATOM      9  C   UNL     1       3.138   3.511  19.539  0.00  0.00    +0.000 A 
ATOM     10  N   UNL     1       3.542   4.647  18.862  0.00  0.00    +0.000 N 
ATOM     11  C   UNL     1       4.352   4.788  17.765  0.00  0.00    +0.000 A 
ENDROOT
BRANCH   5  12
ATOM     12  C   UNL     1       1.546   7.138  20.818  0.00  0.00    +0.000 C 
ATOM     13  C   UNL     1       1.031   8.172  21.153  0.00  0.00    +0.000 C 
BRANCH  13  14
ATOM     14  C   UNL     1       0.419   9.422  21.490  0.00  0.00    +0.000 A 
ATOM     15  C   UNL     1      -0.293   9.561  22.684  0.00  0.00    +0.000 A 
ATOM     16  C   UNL     1      -0.912  10.777  22.992  0.00  0.00    +0.000 A 
ATOM     17  C   UNL     1      -0.819  11.851  22.108  0.00  0.00    +0.000 A 
ATOM     18  C   UNL     1      -0.108  11.714  20.916  0.00  0.00    +0.000 A 
ATOM     19  C   UNL     1       0.510  10.500  20.607  0.00  0.00    +0.000 A 
ENDBRANCH  13  14
ENDBRANCH   5  12
TORSDOF 2
ENDMDL
