MODEL 1
REMARK VINA RESULT:      -6.9      0.000      0.000
REMARK  Name = 
REMARK  12 active torsions:
REMARK  status: ('A' for Active; 'I' for Inactive)
REMARK    1  A    between atoms: C_1  and  C_2
REMARK    2  A    between atoms: C_2  and  C_3
REMARK    3  A    between atoms: C_5  and  C_6
REMARK    4  A    between atoms: N_8  and  C_9
REMARK    5  A    between atoms: N_8  and  C_13
REMARK    6  A    between atoms: C_9  and  C_10
REMARK    7  A    between atoms: C_10  and  C_11
REMARK    8  A    between atoms: C_10  and  C_12
REMARK    9  A    between atoms: C_14  and  N_15
REMARK   10  A    between atoms: N_16  and  C_17
REMARK   11  A    between atoms: C_17  and  C_18
REMARK   12  A    between atoms: C_30  and  C_31
REMARK                            x       y       z     vdW  Elec       q    Type
REMARK                         _______ _______ _______ _____ _____    ______ ____
ROOT
ATOM      1  C   UNL     1       1.017  11.260  19.915  0.00  0.00    +0.000 A 
ATOM      2  C   UNL     1       1.403  10.285  19.060  0.00  0.00    +0.000 A 
ATOM      3  N   UNL     1       1.394   8.958  19.473  0.00  0.00    +0.000 N 
ATOM      4  C   UNL     1       1.140   8.589  20.791  0.00  0.00    +0.000 A 
ATOM      5  O   UNL     1       1.134   7.429  21.206  0.00  0.00    +0.000 OA
ATOM      6  N   UNL     1       0.858   9.594  21.658  0.00  0.00    +0.000 N 
ATOM      7  C   UNL     1       0.561  10.873  21.283  0.00  0.00    +0.000 A 
ATOM      8  O   UNL     1       0.002  11.650  22.052  0.00  0.00    +0.000 OA
ATOM      9  H   UNL     1       0.586   9.315  22.589  0.00  0.00    +0.000 HD
ENDROOT
BRANCH   1  12
ATOM     10  C   UNL     1      -0.123  13.175  18.855  0.00  0.00    +0.000 C 
ATOM     11  O   UNL     1      -0.044  14.337  18.453  0.00  0.00    +0.000 OA
ATOM     12  N   UNL     1       0.968  12.606  19.564  0.00  0.00    +0.000 N 
BRANCH  10  15
ATOM     13  C   UNL     1      -3.149  11.396  17.463  0.00  0.00    +0.000 A 
ATOM     14  C   UNL     1      -1.735  11.637  17.504  0.00  0.00    +0.000 A 
ATOM     15  C   UNL     1      -1.345  12.399  18.588  0.00  0.00    +0.000 A 
ATOM     16  S   UNL     1      -2.651  12.527  19.706  0.00  0.00    +0.000 S 
ATOM     17  C   UNL     1      -3.745  11.717  18.667  0.00  0.00    +0.000 A 
ATOM     18  C   UNL     1      -5.169  11.515  19.076  0.00  0.00    +0.000 C 
BRANCH  13  20
ATOM     19  C   UNL     1      -2.867  10.276  15.264  0.00  0.00    +0.000 C 
ATOM     20  C   UNL     1      -3.860  10.939  16.223  0.00  0.00    +0.000 C 
ENDBRANCH  13  20
ENDBRANCH  10  15
BRANCH  12  21
ATOM     21  C   UNL     1       2.280  13.306  19.491  0.00  0.00    +0.000 C 
BRANCH  21  22
ATOM     22  C   UNL     1       2.842  13.813  20.843  0.00  0.00    +0.000 C 
ATOM     23  C   UNL     1       4.131  14.613  20.681  0.00  0.00    +0.000 C 
ATOM     24  C   UNL     1       1.808  14.671  21.583  0.00  0.00    +0.000 C 
ENDBRANCH  21  22
ENDBRANCH  12  21
ENDBRANCH   1  12
BRANCH   2  25
ATOM     25  N   UNL     1       1.761  10.610  17.755  0.00  0.00    +0.000 N 
ATOM     26  H   UNL     1       2.123   9.805  17.244  0.00  0.00    +0.000 HD
ATOM     27  H   UNL     1       1.000  11.048  17.242  0.00  0.00    +0.000 HD
ENDBRANCH   2  25
BRANCH   3  28
ATOM     28  C   UNL     1       1.494   7.868  18.497  0.00  0.00    +0.000 C 
BRANCH  28  29
ATOM     29  C   UNL     1       2.846   7.195  18.397  0.00  0.00    +0.000 A 
ATOM     30  C   UNL     1       3.176   6.102  19.211  0.00  0.00    +0.000 A 
ATOM     31  C   UNL     1       4.359   5.388  19.000  0.00  0.00    +0.000 A 
ATOM     32  C   UNL     1       5.229   5.761  17.978  0.00  0.00    +0.000 A 
ATOM     33  C   UNL     1       4.929   6.861  17.179  0.00  0.00    +0.000 A 
ATOM     34  C   UNL     1       3.746   7.574  17.387  0.00  0.00    +0.000 A 
ENDBRANCH  28  29
ENDBRANCH   3  28
TORSDOF 8
ENDMDL
MODEL 2
REMARK VINA RESULT:      -6.6      4.206      6.292
REMARK  Name = 
REMARK  12 active torsions:
REMARK  status: ('A' for Active; 'I' for Inactive)
REMARK    1  A    between atoms: C_1  and  C_2
REMARK    2  A    between atoms: C_2  and  C_3
REMARK    3  A    between atoms: C_5  and  C_6
REMARK    4  A    between atoms: N_8  and  C_9
REMARK    5  A    between atoms: N_8  and  C_13
REMARK    6  A    between atoms: C_9  and  C_10
REMARK    7  A    between atoms: C_10  and  C_11
REMARK    8  A    between atoms: C_10  and  C_12
REMARK    9  A    between atoms: C_14  and  N_15
REMARK   10  A    between atoms: N_16  and  C_17
REMARK   11  A    between atoms: C_17  and  C_18
REMARK   12  A    between atoms: C_30  and  C_31
REMARK                            x       y       z     vdW  Elec       q    Type
REMARK                         _______ _______ _______ _____ _____    ______ ____
ROOT
ATOM      1  C   UNL     1      -3.507  14.082  22.606  0.00  0.00    +0.000 A 
ATOM      2  C   UNL     1      -2.659  14.146  21.553  0.00  0.00    +0.000 A 
ATOM      3  N   UNL     1      -1.615  13.236  21.448  0.00  0.00    +0.000 N 
ATOM      4  C   UNL     1      -1.305  12.335  22.464  0.00  0.00    +0.000 A 
ATOM      5  O   UNL     1      -0.383  11.520  22.422  0.00  0.00    +0.000 OA
ATOM      6  N   UNL     1      -2.106  12.360  23.559  0.00  0.00    +0.000 N 
ATOM      7  C   UNL     1      -3.308  13.005  23.620  0.00  0.00    +0.000 A 
ATOM      8  O   UNL     1      -4.134  12.736  24.488  0.00  0.00    +0.000 OA
ATOM      9  H   UNL     1      -1.933  11.646  24.252  0.00  0.00    +0.000 HD
ENDROOT
BRANCH   1  12
ATOM     10  C   UNL     1      -5.822  14.751  22.071  0.00  0.00    +0.000 C 
ATOM     11  O   UNL     1      -6.695  15.618  22.146  0.00  0.00    +0.000 OA
ATOM     12  N   UNL     1      -4.594  14.937  22.762  0.00  0.00    +0.000 N 
BRANCH  10  15
ATOM     13  C   UNL     1      -6.678  12.138  19.485  0.00  0.00    +0.000 A 
ATOM     14  C   UNL     1      -5.953  13.300  19.912  0.00  0.00    +0.000 A 
ATOM     15  C   UNL     1      -6.068  13.543  21.267  0.00  0.00    +0.000 A 
ATOM     16  S   UNL     1      -6.777  12.177  22.044  0.00  0.00    +0.000 S 
ATOM     17  C   UNL     1      -7.064  11.366  20.564  0.00  0.00    +0.000 A 
ATOM     18  C   UNL     1      -7.738  10.031  20.551  0.00  0.00    +0.000 C 
BRANCH  13  20
ATOM     19  C   UNL     1      -6.068  12.645  17.131  0.00  0.00    +0.000 C 
ATOM     20  C   UNL     1      -7.025  11.879  18.048  0.00  0.00    +0.000 C 
ENDBRANCH  13  20
ENDBRANCH  10  15
BRANCH  12  21
ATOM     21  C   UNL     1      -4.279  16.306  23.253  0.00  0.00    +0.000 C 
BRANCH  21  22
ATOM     22  C   UNL     1      -4.178  16.456  24.792  0.00  0.00    +0.000 C 
ATOM     23  C   UNL     1      -2.737  16.581  25.278  0.00  0.00    +0.000 C 
ATOM     24  C   UNL     1      -4.981  17.670  25.280  0.00  0.00    +0.000 C 
ENDBRANCH  21  22
ENDBRANCH  12  21
ENDBRANCH   1  12
BRANCH   2  25
ATOM     25  N   UNL     1      -2.867  15.092  20.553  0.00  0.00    +0.000 N 
ATOM     26  H   UNL     1      -2.692  14.713  19.622  0.00  0.00    +0.000 HD
ATOM     27  H   UNL     1      -3.792  15.512  20.602  0.00  0.00    +0.000 HD
ENDBRANCH   2  25
BRANCH   3  28
ATOM     28  C   UNL     1      -0.887  13.071  20.186  0.00  0.00    +0.000 C 
BRANCH  28  29
ATOM     29  C   UNL     1      -1.339  11.922  19.310  0.00  0.00    +0.000 A 
ATOM     30  C   UNL     1      -2.663  11.830  18.857  0.00  0.00    +0.000 A 
ATOM     31  C   UNL     1      -3.031  10.860  17.921  0.00  0.00    +0.000 A 
ATOM     32  C   UNL     1      -2.082   9.965  17.430  0.00  0.00    +0.000 A 
ATOM     33  C   UNL     1      -0.769  10.026  17.891  0.00  0.00    +0.000 A 
ATOM     34  C   UNL     1      -0.400  10.997  18.825  0.00  0.00    +0.000 A 
ENDBRANCH  28  29
ENDBRANCH   3  28
TORSDOF 8
ENDMDL
MODEL 3
REMARK VINA RESULT:      -6.5      4.475      6.799
REMARK  Name = 
REMARK  12 active torsions:
REMARK  status: ('A' for Active; 'I' for Inactive)
REMARK    1  A    between atoms: C_1  and  C_2
REMARK    2  A    between atoms: C_2  and  C_3
REMARK    3  A    between atoms: C_5  and  C_6
REMARK    4  A    between atoms: N_8  and  C_9
REMARK    5  A    between atoms: N_8  and  C_13
REMARK    6  A    between atoms: C_9  and  C_10
REMARK    7  A    between atoms: C_10  and  C_11
REMARK    8  A    between atoms: C_10  and  C_12
REMARK    9  A    between atoms: C_14  and  N_15
REMARK   10  A    between atoms: N_16  and  C_17
REMARK   11  A    between atoms: C_17  and  C_18
REMARK   12  A    between atoms: C_30  and  C_31
REMARK                            x       y       z     vdW  Elec       q    Type
REMARK                         _______ _______ _______ _____ _____    ______ ____
ROOT
ATOM      1  C   UNL     1      -4.232  14.172  22.267  0.00  0.00    +0.000 A 
ATOM      2  C   UNL     1      -3.319  14.251  21.271  0.00  0.00    +0.000 A 
ATOM      3  N   UNL     1      -2.417  13.213  21.075  0.00  0.00    +0.000 N 
ATOM      4  C   UNL     1      -2.309  12.141  21.957  0.00  0.00    +0.000 A 
ATOM      5  O   UNL     1      -1.518  11.206  21.832  0.00  0.00    +0.000 OA
ATOM      6  N   UNL     1      -3.165  12.136  23.010  0.00  0.00    +0.000 N 
ATOM      7  C   UNL     1      -4.259  12.945  23.117  0.00  0.00    +0.000 A 
ATOM      8  O   UNL     1      -5.169  12.689  23.901  0.00  0.00    +0.000 OA
ATOM      9  H   UNL     1      -3.144  11.313  23.595  0.00  0.00    +0.000 HD
ENDROOT
BRANCH   1  12
ATOM     10  C   UNL     1      -6.407  15.231  21.779  0.00  0.00    +0.000 C 
ATOM     11  O   UNL     1      -7.147  16.204  21.940  0.00  0.00    +0.000 OA
ATOM     12  N   UNL     1      -5.188  15.156  22.505  0.00  0.00    +0.000 N 
BRANCH  10  15
ATOM     13  C   UNL     1      -7.066  12.057  19.844  0.00  0.00    +0.000 A 
ATOM     14  C   UNL     1      -7.166  12.853  21.034  0.00  0.00    +0.000 A 
ATOM     15  C   UNL     1      -6.800  14.171  20.837  0.00  0.00    +0.000 A 
ATOM     16  S   UNL     1      -6.661  14.488  19.148  0.00  0.00    +0.000 S 
ATOM     17  C   UNL     1      -6.925  12.852  18.722  0.00  0.00    +0.000 A 
ATOM     18  C   UNL     1      -6.897  12.429  17.288  0.00  0.00    +0.000 C 
BRANCH  13  20
ATOM     19  C   UNL     1      -7.916  10.034  21.008  0.00  0.00    +0.000 C 
ATOM     20  C   UNL     1      -7.035  10.558  19.870  0.00  0.00    +0.000 C 
ENDBRANCH  13  20
ENDBRANCH  10  15
BRANCH  12  21
ATOM     21  C   UNL     1      -4.693  16.399  23.155  0.00  0.00    +0.000 C 
BRANCH  21  22
ATOM     22  C   UNL     1      -4.582  16.346  24.700  0.00  0.00    +0.000 C 
ATOM     23  C   UNL     1      -3.171  16.015  25.177  0.00  0.00    +0.000 C 
ATOM     24  C   UNL     1      -5.027  17.673  25.329  0.00  0.00    +0.000 C 
ENDBRANCH  21  22
ENDBRANCH  12  21
ENDBRANCH   1  12
BRANCH   2  25
ATOM     25  N   UNL     1      -3.320  15.349  20.416  0.00  0.00    +0.000 N 
ATOM     26  H   UNL     1      -3.166  16.225  20.915  0.00  0.00    +0.000 HD
ATOM     27  H   UNL     1      -2.653  15.248  19.655  0.00  0.00    +0.000 HD
ENDBRANCH   2  25
BRANCH   3  28
ATOM     28  C   UNL     1      -1.643  13.116  19.833  0.00  0.00    +0.000 C 
BRANCH  28  29
ATOM     29  C   UNL     1      -2.065  12.020  18.878  0.00  0.00    +0.000 A 
ATOM     30  C   UNL     1      -1.123  11.162  18.293  0.00  0.00    +0.000 A 
ATOM     31  C   UNL     1      -1.534  10.056  17.544  0.00  0.00    +0.000 A 
ATOM     32  C   UNL     1      -2.890   9.797  17.364  0.00  0.00    +0.000 A 
ATOM     33  C   UNL     1      -3.839  10.655  17.915  0.00  0.00    +0.000 A 
ATOM     34  C   UNL     1      -3.430  11.759  18.667  0.00  0.00    +0.000 A 
ENDBRANCH  28  29
ENDBRANCH   3  28
TORSDOF 8
ENDMDL
MODEL 4
REMARK VINA RESULT:      -6.4      0.443      1.039
REMARK  Name = 
REMARK  12 active torsions:
REMARK  status: ('A' for Active; 'I' for Inactive)
REMARK    1  A    between atoms: C_1  and  C_2
REMARK    2  A    between atoms: C_2  and  C_3
REMARK    3  A    between atoms: C_5  and  C_6
REMARK    4  A    between atoms: N_8  and  C_9
REMARK    5  A    between atoms: N_8  and  C_13
REMARK    6  A    between atoms: C_9  and  C_10
REMARK    7  A    between atoms: C_10  and  C_11
REMARK    8  A    between atoms: C_10  and  C_12
REMARK    9  A    between atoms: C_14  and  N_15
REMARK   10  A    between atoms: N_16  and  C_17
REMARK   11  A    between atoms: C_17  and  C_18
REMARK   12  A    between atoms: C_30  and  C_31
REMARK                            x       y       z     vdW  Elec       q    Type
REMARK                         _______ _______ _______ _____ _____    ______ ____
ROOT
ATOM      1  C   UNL     1       1.134  11.187  19.807  0.00  0.00    +0.000 A 
ATOM      2  C   UNL     1       1.447  10.191  18.946  0.00  0.00    +0.000 A 
ATOM      3  N   UNL     1       1.425   8.871  19.377  0.00  0.00    +0.000 N 
ATOM      4  C   UNL     1       1.231   8.525  20.712  0.00  0.00    +0.000 A 
ATOM      5  O   UNL     1       1.216   7.371  21.143  0.00  0.00    +0.000 OA
ATOM      6  N   UNL     1       1.023   9.549  21.578  0.00  0.00    +0.000 N 
ATOM      7  C   UNL     1       0.742  10.830  21.202  0.00  0.00    +0.000 A 
ATOM      8  O   UNL     1       0.246  11.633  21.988  0.00  0.00    +0.000 OA
ATOM      9  H   UNL     1       0.795   9.289  22.526  0.00  0.00    +0.000 HD
ENDROOT
BRANCH   1  12
ATOM     10  C   UNL     1      -0.018  13.124  18.800  0.00  0.00    +0.000 C 
ATOM     11  O   UNL     1       0.070  14.278  18.376  0.00  0.00    +0.000 OA
ATOM     12  N   UNL     1       1.103  12.530  19.439  0.00  0.00    +0.000 N 
BRANCH  10  15
ATOM     13  C   UNL     1      -3.157  11.376  17.641  0.00  0.00    +0.000 A 
ATOM     14  C   UNL     1      -1.734  11.555  17.624  0.00  0.00    +0.000 A 
ATOM     15  C   UNL     1      -1.279  12.385  18.631  0.00  0.00    +0.000 A 
ATOM     16  S   UNL     1      -2.544  12.661  19.770  0.00  0.00    +0.000 S 
ATOM     17  C   UNL     1      -3.702  11.819  18.831  0.00  0.00    +0.000 A 
ATOM     18  C   UNL     1      -5.120  11.715  19.293  0.00  0.00    +0.000 C 
BRANCH  13  20
ATOM     19  C   UNL     1      -2.994  10.702  15.256  0.00  0.00    +0.000 C 
ATOM     20  C   UNL     1      -3.924  10.852  16.463  0.00  0.00    +0.000 C 
ENDBRANCH  13  20
ENDBRANCH  10  15
BRANCH  12  21
ATOM     21  C   UNL     1       2.427  13.186  19.264  0.00  0.00    +0.000 C 
BRANCH  21  22
ATOM     22  C   UNL     1       2.720  14.365  20.226  0.00  0.00    +0.000 C 
ATOM     23  C   UNL     1       3.719  13.997  21.320  0.00  0.00    +0.000 C 
ATOM     24  C   UNL     1       3.243  15.585  19.458  0.00  0.00    +0.000 C 
ENDBRANCH  21  22
ENDBRANCH  12  21
ENDBRANCH   1  12
BRANCH   2  25
ATOM     25  N   UNL     1       1.743  10.489  17.619  0.00  0.00    +0.000 N 
ATOM     26  H   UNL     1       2.742  10.633  17.471  0.00  0.00    +0.000 HD
ATOM     27  H   UNL     1       1.382   9.790  16.974  0.00  0.00    +0.000 HD
ENDBRANCH   2  25
BRANCH   3  28
ATOM     28  C   UNL     1       1.441   7.766  18.413  0.00  0.00    +0.000 C 
BRANCH  28  29
ATOM     29  C   UNL     1       2.766   7.049  18.257  0.00  0.00    +0.000 A 
ATOM     30  C   UNL     1       3.750   7.524  17.379  0.00  0.00    +0.000 A 
ATOM     31  C   UNL     1       5.025   6.952  17.361  0.00  0.00    +0.000 A 
ATOM     32  C   UNL     1       5.331   5.894  18.214  0.00  0.00    +0.000 A 
ATOM     33  C   UNL     1       4.355   5.393  19.072  0.00  0.00    +0.000 A 
ATOM     34  C   UNL     1       3.081   5.965  19.094  0.00  0.00    +0.000 A 
ENDBRANCH  28  29
ENDBRANCH   3  28
TORSDOF 8
ENDMDL
MODEL 5
REMARK VINA RESULT:      -6.3      4.834      8.573
REMARK  Name = 
REMARK  12 active torsions:
REMARK  status: ('A' for Active; 'I' for Inactive)
REMARK    1  A    between atoms: C_1  and  C_2
REMARK    2  A    between atoms: C_2  and  C_3
REMARK    3  A    between atoms: C_5  and  C_6
REMARK    4  A    between atoms: N_8  and  C_9
REMARK    5  A    between atoms: N_8  and  C_13
REMARK    6  A    between atoms: C_9  and  C_10
REMARK    7  A    between atoms: C_10  and  C_11
REMARK    8  A    between atoms: C_10  and  C_12
REMARK    9  A    between atoms: C_14  and  N_15
REMARK   10  A    between atoms: N_16  and  C_17
REMARK   11  A    between atoms: C_17  and  C_18
REMARK   12  A    between atoms: C_30  and  C_31
REMARK                            x       y       z     vdW  Elec       q    Type
REMARK                         _______ _______ _______ _____ _____    ______ ____
ROOT
ATOM      1  C   UNL     1      -4.166  13.856  23.614  0.00  0.00    +0.000 A 
ATOM      2  C   UNL     1      -4.865  14.192  22.505  0.00  0.00    +0.000 A 
ATOM      3  N   UNL     1      -6.052  13.534  22.209  0.00  0.00    +0.000 N 
ATOM      4  C   UNL     1      -6.492  12.427  22.932  0.00  0.00    +0.000 A 
ATOM      5  O   UNL     1      -7.528  11.805  22.700  0.00  0.00    +0.000 OA
ATOM      6  N   UNL     1      -5.718  12.042  23.978  0.00  0.00    +0.000 N 
ATOM      7  C   UNL     1      -4.712  12.795  24.510  0.00  0.00    +0.000 A 
ATOM      8  O   UNL     1      -4.267  12.566  25.631  0.00  0.00    +0.000 OA
ATOM      9  H   UNL     1      -6.087  11.298  24.552  0.00  0.00    +0.000 HD
ENDROOT
BRANCH   1  12
ATOM     10  C   UNL     1      -1.701  13.959  23.707  0.00  0.00    +0.000 C 
ATOM     11  O   UNL     1      -0.703  14.498  24.189  0.00  0.00    +0.000 OA
ATOM     12  N   UNL     1      -2.987  14.493  23.993  0.00  0.00    +0.000 N 
BRANCH  10  15
ATOM     13  C   UNL     1      -0.906  10.645  22.084  0.00  0.00    +0.000 A 
ATOM     14  C   UNL     1      -1.478  11.426  23.143  0.00  0.00    +0.000 A 
ATOM     15  C   UNL     1      -1.542  12.774  22.849  0.00  0.00    +0.000 A 
ATOM     16  S   UNL     1      -1.213  13.019  21.175  0.00  0.00    +0.000 S 
ATOM     17  C   UNL     1      -0.837  11.370  20.910  0.00  0.00    +0.000 A 
ATOM     18  C   UNL     1      -0.410  10.899  19.557  0.00  0.00    +0.000 C 
BRANCH  13  20
ATOM     19  C   UNL     1       1.140   9.285  22.449  0.00  0.00    +0.000 C 
ATOM     20  C   UNL     1      -0.383   9.254  22.292  0.00  0.00    +0.000 C 
ENDBRANCH  13  20
ENDBRANCH  10  15
BRANCH  12  21
ATOM     21  C   UNL     1      -3.101  15.451  25.126  0.00  0.00    +0.000 C 
BRANCH  21  22
ATOM     22  C   UNL     1      -3.431  16.913  24.733  0.00  0.00    +0.000 C 
ATOM     23  C   UNL     1      -4.876  17.293  25.040  0.00  0.00    +0.000 C 
ATOM     24  C   UNL     1      -2.491  17.898  25.440  0.00  0.00    +0.000 C 
ENDBRANCH  21  22
ENDBRANCH  12  21
ENDBRANCH   1  12
BRANCH   2  25
ATOM     25  N   UNL     1      -4.418  15.230  21.692  0.00  0.00    +0.000 N 
ATOM     26  H   UNL     1      -3.925  15.948  22.222  0.00  0.00    +0.000 HD
ATOM     27  H   UNL     1      -3.846  14.898  20.919  0.00  0.00    +0.000 HD
ENDBRANCH   2  25
BRANCH   3  28
ATOM     28  C   UNL     1      -6.984  14.076  21.216  0.00  0.00    +0.000 C 
BRANCH  28  29
ATOM     29  C   UNL     1      -6.834  13.539  19.809  0.00  0.00    +0.000 A 
ATOM     30  C   UNL     1      -7.600  14.048  18.750  0.00  0.00    +0.000 A 
ATOM     31  C   UNL     1      -7.341  13.660  17.433  0.00  0.00    +0.000 A 
ATOM     32  C   UNL     1      -6.318  12.756  17.156  0.00  0.00    +0.000 A 
ATOM     33  C   UNL     1      -5.567  12.221  18.199  0.00  0.00    +0.000 A 
ATOM     34  C   UNL     1      -5.822  12.608  19.517  0.00  0.00    +0.000 A 
ENDBRANCH  28  29
ENDBRANCH   3  28
TORSDOF 8
ENDMDL
MODEL 6
REMARK VINA RESULT:      -6.3      4.161      5.905
REMARK  Name = 
REMARK  12 active torsions:
REMARK  status: ('A' for Active; 'I' for Inactive)
REMARK    1  A    between atoms: C_1  and  C_2
REMARK    2  A    between atoms: C_2  and  C_3
REMARK    3  A    between atoms: C_5  and  C_6
REMARK    4  A    between atoms: N_8  and  C_9
REMARK    5  A    between atoms: N_8  and  C_13
REMARK    6  A    between atoms: C_9  and  C_10
REMARK    7  A    between atoms: C_10  and  C_11
REMARK    8  A    between atoms: C_10  and  C_12
REMARK    9  A    between atoms: C_14  and  N_15
REMARK   10  A    between atoms: N_16  and  C_17
REMARK   11  A    between atoms: C_17  and  C_18
REMARK   12  A    between atoms: C_30  and  C_31
REMARK                            x       y       z     vdW  Elec       q    Type
REMARK                         _______ _______ _______ _____ _____    ______ ____
ROOT
ATOM      1  C   UNL     1      -3.093  13.612  22.505  0.00  0.00    +0.000 A 
ATOM      2  C   UNL     1      -2.351  13.618  21.373  0.00  0.00    +0.000 A 
ATOM      3  N   UNL     1      -1.533  12.535  21.075  0.00  0.00    +0.000 N 
ATOM      4  C   UNL     1      -1.325  11.488  21.969  0.00  0.00    +0.000 A 
ATOM      5  O   UNL     1      -0.601  10.516  21.755  0.00  0.00    +0.000 OA
ATOM      6  N   UNL     1      -1.999  11.555  23.145  0.00  0.00    +0.000 N 
ATOM      7  C   UNL     1      -3.029  12.415  23.395  0.00  0.00    +0.000 A 
ATOM      8  O   UNL     1      -3.809  12.225  24.324  0.00  0.00    +0.000 OA
ATOM      9  H   UNL     1      -1.915  10.752  23.751  0.00  0.00    +0.000 HD
ENDROOT
BRANCH   1  12
ATOM     10  C   UNL     1      -5.229  14.819  22.243  0.00  0.00    +0.000 C 
ATOM     11  O   UNL     1      -5.888  15.830  22.496  0.00  0.00    +0.000 OA
ATOM     12  N   UNL     1      -3.959  14.644  22.854  0.00  0.00    +0.000 N 
BRANCH  10  15
ATOM     13  C   UNL     1      -6.903  12.843  19.496  0.00  0.00    +0.000 A 
ATOM     14  C   UNL     1      -5.987  13.852  19.946  0.00  0.00    +0.000 A 
ATOM     15  C   UNL     1      -5.770  13.818  21.309  0.00  0.00    +0.000 A 
ATOM     16  S   UNL     1      -6.421  12.362  21.964  0.00  0.00    +0.000 S 
ATOM     17  C   UNL     1      -7.113  11.889  20.472  0.00  0.00    +0.000 A 
ATOM     18  C   UNL     1      -7.904  10.623  20.372  0.00  0.00    +0.000 C 
BRANCH  13  20
ATOM     19  C   UNL     1      -6.550  13.048  17.046  0.00  0.00    +0.000 C 
ATOM     20  C   UNL     1      -7.588  12.905  18.162  0.00  0.00    +0.000 C 
ENDBRANCH  13  20
ENDBRANCH  10  15
BRANCH  12  21
ATOM     21  C   UNL     1      -3.330  15.832  23.494  0.00  0.00    +0.000 C 
BRANCH  21  22
ATOM     22  C   UNL     1      -1.945  15.585  24.144  0.00  0.00    +0.000 C 
ATOM     23  C   UNL     1      -0.889  16.582  23.676  0.00  0.00    +0.000 C 
ATOM     24  C   UNL     1      -2.040  15.633  25.674  0.00  0.00    +0.000 C 
ENDBRANCH  21  22
ENDBRANCH  12  21
ENDBRANCH   1  12
BRANCH   2  25
ATOM     25  N   UNL     1      -2.448  14.688  20.487  0.00  0.00    +0.000 N 
ATOM     26  H   UNL     1      -2.387  14.388  19.514  0.00  0.00    +0.000 HD
ATOM     27  H   UNL     1      -3.288  15.242  20.640  0.00  0.00    +0.000 HD
ENDBRANCH   2  25
BRANCH   3  28
ATOM     28  C   UNL     1      -0.975  12.365  19.730  0.00  0.00    +0.000 C 
BRANCH  28  29
ATOM     29  C   UNL     1      -1.755  11.455  18.803  0.00  0.00    +0.000 A 
ATOM     30  C   UNL     1      -3.130  11.634  18.598  0.00  0.00    +0.000 A 
ATOM     31  C   UNL     1      -3.806  10.896  17.622  0.00  0.00    +0.000 A 
ATOM     32  C   UNL     1      -3.119   9.967  16.844  0.00  0.00    +0.000 A 
ATOM     33  C   UNL     1      -1.758   9.759  17.056  0.00  0.00    +0.000 A 
ATOM     34  C   UNL     1      -1.080  10.497  18.029  0.00  0.00    +0.000 A 
ENDBRANCH  28  29
ENDBRANCH   3  28
TORSDOF 8
ENDMDL
MODEL 7
REMARK VINA RESULT:      -6.2      3.945      7.636
REMARK  Name = 
REMARK  12 active torsions:
REMARK  status: ('A' for Active; 'I' for Inactive)
REMARK    1  A    between atoms: C_1  and  C_2
REMARK    2  A    between atoms: C_2  and  C_3
REMARK    3  A    between atoms: C_5  and  C_6
REMARK    4  A    between atoms: N_8  and  C_9
REMARK    5  A    between atoms: N_8  and  C_13
REMARK    6  A    between atoms: C_9  and  C_10
REMARK    7  A    between atoms: C_10  and  C_11
REMARK    8  A    between atoms: C_10  and  C_12
REMARK    9  A    between atoms: C_14  and  N_15
REMARK   10  A    between atoms: N_16  and  C_17
REMARK   11  A    between atoms: C_17  and  C_18
REMARK   12  A    between atoms: C_30  and  C_31
REMARK                            x       y       z     vdW  Elec       q    Type
REMARK                         _______ _______ _______ _____ _____    ______ ____
ROOT
ATOM      1  C   UNL     1      -1.523  12.108  19.680  0.00  0.00    +0.000 A 
ATOM      2  C   UNL     1      -2.871  12.224  19.718  0.00  0.00    +0.000 A 
ATOM      3  N   UNL     1      -3.630  11.848  18.616  0.00  0.00    +0.000 N 
ATOM      4  C   UNL     1      -3.053  11.487  17.400  0.00  0.00    +0.000 A 
ATOM      5  O   UNL     1      -3.683  11.160  16.395  0.00  0.00    +0.000 OA
ATOM      6  N   UNL     1      -1.697  11.480  17.353  0.00  0.00    +0.000 N 
ATOM      7  C   UNL     1      -0.888  11.547  18.451  0.00  0.00    +0.000 A 
ATOM      8  O   UNL     1       0.293  11.213  18.396  0.00  0.00    +0.000 OA
ATOM      9  H   UNL     1      -1.284  11.131  16.501  0.00  0.00    +0.000 HD
ENDROOT
BRANCH   1  12
ATOM     10  C   UNL     1      -0.172  13.736  20.949  0.00  0.00    +0.000 C 
ATOM     11  O   UNL     1       0.660  13.925  21.839  0.00  0.00    +0.000 OA
ATOM     12  N   UNL     1      -0.700  12.432  20.755  0.00  0.00    +0.000 N 
BRANCH  10  15
ATOM     13  C   UNL     1      -0.535  16.682  18.616  0.00  0.00    +0.000 A 
ATOM     14  C   UNL     1      -0.132  15.333  18.891  0.00  0.00    +0.000 A 
ATOM     15  C   UNL     1      -0.597  14.864  20.105  0.00  0.00    +0.000 A 
ATOM     16  S   UNL     1      -1.781  15.950  20.731  0.00  0.00    +0.000 S 
ATOM     17  C   UNL     1      -1.538  17.088  19.475  0.00  0.00    +0.000 A 
ATOM     18  C   UNL     1      -2.306  18.371  19.458  0.00  0.00    +0.000 C 
BRANCH  13  20
ATOM     19  C   UNL     1       1.649  17.540  17.802  0.00  0.00    +0.000 C 
ATOM     20  C   UNL     1       0.134  17.535  17.579  0.00  0.00    +0.000 C 
ENDBRANCH  13  20
ENDBRANCH  10  15
BRANCH  12  21
ATOM     21  C   UNL     1       0.017  11.294  21.391  0.00  0.00    +0.000 C 
BRANCH  21  22
ATOM     22  C   UNL     1      -0.820  10.448  22.383  0.00  0.00    +0.000 C 
ATOM     23  C   UNL     1       0.036   9.494  23.211  0.00  0.00    +0.000 C 
ATOM     24  C   UNL     1      -1.628  11.348  23.328  0.00  0.00    +0.000 C 
ENDBRANCH  21  22
ENDBRANCH  12  21
ENDBRANCH   1  12
BRANCH   2  25
ATOM     25  N   UNL     1      -3.496  12.672  20.878  0.00  0.00    +0.000 N 
ATOM     26  H   UNL     1      -4.277  13.297  20.677  0.00  0.00    +0.000 HD
ATOM     27  H   UNL     1      -3.793  11.907  21.478  0.00  0.00    +0.000 HD
ENDBRANCH   2  25
BRANCH   3  28
ATOM     28  C   UNL     1      -5.079  11.658  18.731  0.00  0.00    +0.000 C 
BRANCH  28  29
ATOM     29  C   UNL     1      -5.932  12.854  18.365  0.00  0.00    +0.000 A 
ATOM     30  C   UNL     1      -6.180  13.880  19.288  0.00  0.00    +0.000 A 
ATOM     31  C   UNL     1      -6.830  15.053  18.893  0.00  0.00    +0.000 A 
ATOM     32  C   UNL     1      -7.245  15.212  17.573  0.00  0.00    +0.000 A 
ATOM     33  C   UNL     1      -7.030  14.191  16.651  0.00  0.00    +0.000 A 
ATOM     34  C   UNL     1      -6.379  13.019  17.043  0.00  0.00    +0.000 A 
ENDBRANCH  28  29
ENDBRANCH   3  28
TORSDOF 8
ENDMDL
MODEL 8
REMARK VINA RESULT:      -6.2      4.091      5.768
REMARK  Name = 
REMARK  12 active torsions:
REMARK  status: ('A' for Active; 'I' for Inactive)
REMARK    1  A    between atoms: C_1  and  C_2
REMARK    2  A    between atoms: C_2  and  C_3
REMARK    3  A    between atoms: C_5  and  C_6
REMARK    4  A    between atoms: N_8  and  C_9
REMARK    5  A    between atoms: N_8  and  C_13
REMARK    6  A    between atoms: C_9  and  C_10
REMARK    7  A    between atoms: C_10  and  C_11
REMARK    8  A    between atoms: C_10  and  C_12
REMARK    9  A    between atoms: C_14  and  N_15
REMARK   10  A    between atoms: N_16  and  C_17
REMARK   11  A    between atoms: C_17  and  C_18
REMARK   12  A    between atoms: C_30  and  C_31
REMARK                            x       y       z     vdW  Elec       q    Type
REMARK                         _______ _______ _______ _____ _____    ______ ____
ROOT
ATOM      1  C   UNL     1      -2.517  13.588  22.184  0.00  0.00    +0.000 A 
ATOM      2  C   UNL     1      -1.883  13.563  20.989  0.00  0.00    +0.000 A 
ATOM      3  N   UNL     1      -1.176  12.430  20.604  0.00  0.00    +0.000 N 
ATOM      4  C   UNL     1      -0.964  11.355  21.463  0.00  0.00    +0.000 A 
ATOM      5  O   UNL     1      -0.335  10.338  21.172  0.00  0.00    +0.000 OA
ATOM      6  N   UNL     1      -1.521  11.448  22.697  0.00  0.00    +0.000 N 
ATOM      7  C   UNL     1      -2.459  12.374  23.050  0.00  0.00    +0.000 A 
ATOM      8  O   UNL     1      -3.163  12.223  24.045  0.00  0.00    +0.000 OA
ATOM      9  H   UNL     1      -1.441  10.629  23.283  0.00  0.00    +0.000 HD
ENDROOT
BRANCH   1  12
ATOM     10  C   UNL     1      -4.596  14.917  22.176  0.00  0.00    +0.000 C 
ATOM     11  O   UNL     1      -5.158  15.967  22.494  0.00  0.00    +0.000 OA
ATOM     12  N   UNL     1      -3.271  14.673  22.624  0.00  0.00    +0.000 N 
BRANCH  10  15
ATOM     13  C   UNL     1      -6.682  13.017  19.667  0.00  0.00    +0.000 A 
ATOM     14  C   UNL     1      -5.638  13.946  19.995  0.00  0.00    +0.000 A 
ATOM     15  C   UNL     1      -5.309  13.941  21.336  0.00  0.00    +0.000 A 
ATOM     16  S   UNL     1      -6.037  12.581  22.107  0.00  0.00    +0.000 S 
ATOM     17  C   UNL     1      -6.898  12.124  20.699  0.00  0.00    +0.000 A 
ATOM     18  C   UNL     1      -7.811  10.941  20.722  0.00  0.00    +0.000 C 
BRANCH  13  20
ATOM     19  C   UNL     1      -6.533  13.359  17.212  0.00  0.00    +0.000 C 
ATOM     20  C   UNL     1      -7.470  13.097  18.393  0.00  0.00    +0.000 C 
ENDBRANCH  13  20
ENDBRANCH  10  15
BRANCH  12  21
ATOM     21  C   UNL     1      -2.498  15.828  23.157  0.00  0.00    +0.000 C 
BRANCH  21  22
ATOM     22  C   UNL     1      -1.767  15.578  24.501  0.00  0.00    +0.000 C 
ATOM     23  C   UNL     1      -0.927  16.772  24.944  0.00  0.00    +0.000 C 
ATOM     24  C   UNL     1      -2.765  15.225  25.612  0.00  0.00    +0.000 C 
ENDBRANCH  21  22
ENDBRANCH  12  21
ENDBRANCH   1  12
BRANCH   2  25
ATOM     25  N   UNL     1      -1.982  14.652  20.128  0.00  0.00    +0.000 N 
ATOM     26  H   UNL     1      -1.136  15.222  20.130  0.00  0.00    +0.000 HD
ATOM     27  H   UNL     1      -2.227  14.377  19.180  0.00  0.00    +0.000 HD
ENDBRANCH   2  25
BRANCH   3  28
ATOM     28  C   UNL     1      -0.756  12.245  19.211  0.00  0.00    +0.000 C 
BRANCH  28  29
ATOM     29  C   UNL     1      -1.711  11.463  18.334  0.00  0.00    +0.000 A 
ATOM     30  C   UNL     1      -1.253  10.437  17.495  0.00  0.00    +0.000 A 
ATOM     31  C   UNL     1      -2.157   9.617  16.814  0.00  0.00    +0.000 A 
ATOM     32  C   UNL     1      -3.528   9.816  16.957  0.00  0.00    +0.000 A 
ATOM     33  C   UNL     1      -3.998  10.848  17.765  0.00  0.00    +0.000 A 
ATOM     34  C   UNL     1      -3.096  11.667  18.449  0.00  0.00    +0.000 A 
ENDBRANCH  28  29
ENDBRANCH   3  28
TORSDOF 8
ENDMDL
MODEL 9
REMARK VINA RESULT:      -6.1      3.844      5.956
REMARK  Name = 
REMARK  12 active torsions:
REMARK  status: ('A' for Active; 'I' for Inactive)
REMARK    1  A    between atoms: C_1  and  C_2
REMARK    2  A    between atoms: C_2  and  C_3
REMARK    3  A    between atoms: C_5  and  C_6
REMARK    4  A    between atoms: N_8  and  C_9
REMARK    5  A    between atoms: N_8  and  C_13
REMARK    6  A    between atoms: C_9  and  C_10
REMARK    7  A    between atoms: C_10  and  C_11
REMARK    8  A    between atoms: C_10  and  C_12
REMARK    9  A    between atoms: C_14  and  N_15
REMARK   10  A    between atoms: N_16  and  C_17
REMARK   11  A    between atoms: C_17  and  C_18
REMARK   12  A    between atoms: C_30  and  C_31
REMARK                            x       y       z     vdW  Elec       q    Type
REMARK                         _______ _______ _______ _____ _____    ______ ____
ROOT
ATOM      1  C   UNL     1      -3.699  13.811  22.120  0.00  0.00    +0.000 A 
ATOM      2  C   UNL     1      -2.523  14.013  21.481  0.00  0.00    +0.000 A 
ATOM      3  N   UNL     1      -1.425  13.217  21.783  0.00  0.00    +0.000 N 
ATOM      4  C   UNL     1      -1.433  12.300  22.831  0.00  0.00    +0.000 A 
ATOM      5  O   UNL     1      -0.482  11.584  23.143  0.00  0.00    +0.000 OA
ATOM      6  N   UNL     1      -2.592  12.189  23.528  0.00  0.00    +0.000 N 
ATOM      7  C   UNL     1      -3.788  12.707  23.121  0.00  0.00    +0.000 A 
ATOM      8  O   UNL     1      -4.849  12.314  23.597  0.00  0.00    +0.000 OA
ATOM      9  H   UNL     1      -2.622  11.460  24.226  0.00  0.00    +0.000 HD
ENDROOT
BRANCH   1  12
ATOM     10  C   UNL     1      -5.825  14.121  20.907  0.00  0.00    +0.000 C 
ATOM     11  O   UNL     1      -6.750  14.881  20.610  0.00  0.00    +0.000 OA
ATOM     12  N   UNL     1      -4.850  14.545  21.848  0.00  0.00    +0.000 N 
BRANCH  10  15
ATOM     13  C   UNL     1      -5.484  11.098  18.671  0.00  0.00    +0.000 A 
ATOM     14  C   UNL     1      -4.963  12.301  19.255  0.00  0.00    +0.000 A 
ATOM     15  C   UNL     1      -5.750  12.792  20.278  0.00  0.00    +0.000 A 
ATOM     16  S   UNL     1      -6.924  11.611  20.726  0.00  0.00    +0.000 S 
ATOM     17  C   UNL     1      -6.476  10.549  19.460  0.00  0.00    +0.000 A 
ATOM     18  C   UNL     1      -7.196   9.252  19.271  0.00  0.00    +0.000 C 
BRANCH  13  20
ATOM     19  C   UNL     1      -4.463  11.735  16.498  0.00  0.00    +0.000 C 
ATOM     20  C   UNL     1      -5.043  10.588  17.331  0.00  0.00    +0.000 C 
ENDBRANCH  13  20
ENDBRANCH  10  15
BRANCH  12  21
ATOM     21  C   UNL     1      -4.785  15.997  22.170  0.00  0.00    +0.000 C 
BRANCH  21  22
ATOM     22  C   UNL     1      -5.410  16.408  23.527  0.00  0.00    +0.000 C 
ATOM     23  C   UNL     1      -6.515  15.457  23.978  0.00  0.00    +0.000 C 
ATOM     24  C   UNL     1      -4.339  16.490  24.623  0.00  0.00    +0.000 C 
ENDBRANCH  21  22
ENDBRANCH  12  21
ENDBRANCH   1  12
BRANCH   2  25
ATOM     25  N   UNL     1      -2.432  14.985  20.489  0.00  0.00    +0.000 N 
ATOM     26  H   UNL     1      -1.548  15.492  20.526  0.00  0.00    +0.000 HD
ATOM     27  H   UNL     1      -2.588  14.605  19.558  0.00  0.00    +0.000 HD
ENDBRANCH   2  25
BRANCH   3  28
ATOM     28  C   UNL     1      -0.252  13.191  20.903  0.00  0.00    +0.000 C 
BRANCH  28  29
ATOM     29  C   UNL     1      -0.226  12.081  19.873  0.00  0.00    +0.000 A 
ATOM     30  C   UNL     1       0.877  11.224  19.757  0.00  0.00    +0.000 A 
ATOM     31  C   UNL     1       0.826  10.107  18.918  0.00  0.00    +0.000 A 
ATOM     32  C   UNL     1      -0.325   9.836  18.182  0.00  0.00    +0.000 A 
ATOM     33  C   UNL     1      -1.419  10.693  18.266  0.00  0.00    +0.000 A 
ATOM     34  C   UNL     1      -1.370  11.809  19.105  0.00  0.00    +0.000 A 
ENDBRANCH  28  29
ENDBRANCH   3  28
TORSDOF 8
ENDMDL
