MODEL 1
REMARK VINA RESULT:      -7.0      0.000      0.000
REMARK  Name = 
REMARK  4 active torsions:
REMARK  status: ('A' for Active; 'I' for Inactive)
REMARK    1  A    between atoms: C_1  and  C_2
REMARK    2  A    between atoms: C_2  and  C_3
REMARK    3  A    between atoms: C_2  and  O_4
REMARK    4  A    between atoms: C_2  and  C_5
REMARK                            x       y       z     vdW  Elec       q    Type
REMARK                         _______ _______ _______ _____ _____    ______ ____
ROOT
ATOM      1  C   UNL     1       5.601   4.711  18.271  0.00  0.00    +0.000 A 
ATOM      2  C   UNL     1       4.394   4.950  17.740  0.00  0.00    +0.000 A 
ATOM      3  C   UNL     1       3.254   4.159  18.164  0.00  0.00    +0.000 A 
ATOM      4  C   UNL     1       1.982   4.411  17.640  0.00  0.00    +0.000 A 
ATOM      5  C   UNL     1       0.886   3.657  18.063  0.00  0.00    +0.000 A 
ATOM      6  C   UNL     1       1.056   2.648  19.009  0.00  0.00    +0.000 A 
ATOM      7  C   UNL     1       2.324   2.389  19.534  0.00  0.00    +0.000 A 
ATOM      8  C   UNL     1       3.424   3.149  19.111  0.00  0.00    +0.000 A 
ATOM      9  C   UNL     1       4.769   2.880  19.674  0.00  0.00    +0.000 A 
ATOM     10  O   UNL     1       4.951   1.991  20.498  0.00  0.00    +0.000 OA
ATOM     11  O   UNL     1       5.789   3.677  19.232  0.00  0.00    +0.000 OA
ENDROOT
BRANCH   1  13
ATOM     12  C   UNL     1       7.705   5.754  19.183  0.00  0.00    +0.000 C 
ATOM     13  C   UNL     1       6.857   5.498  17.934  0.00  0.00    +0.000 C 
ATOM     14  C   UNL     1       6.495   6.813  17.238  0.00  0.00    +0.000 C 
BRANCH  13  15
ATOM     15  O   UNL     1       7.663   4.738  17.020  0.00  0.00    +0.000 OA
ATOM     16  H   UNL     1       7.523   5.105  16.133  0.00  0.00    +0.000 HD
ENDBRANCH  13  15
ENDBRANCH   1  13
TORSDOF 2
ENDMDL
MODEL 2
REMARK VINA RESULT:      -7.0      2.334      2.865
REMARK  Name = 
REMARK  4 active torsions:
REMARK  status: ('A' for Active; 'I' for Inactive)
REMARK    1  A    between atoms: C_1  and  C_2
REMARK    2  A    between atoms: C_2  and  C_3
REMARK    3  A    between atoms: C_2  and  O_4
REMARK    4  A    between atoms: C_2  and  C_5
REMARK                            x       y       z     vdW  Elec       q    Type
REMARK                         _______ _______ _______ _____ _____    ______ ____
ROOT
ATOM      1  C   UNL     1       4.474   5.148  16.888  0.00  0.00    +0.000 A 
ATOM      2  C   UNL     1       3.936   3.922  16.946  0.00  0.00    +0.000 A 
ATOM      3  C   UNL     1       2.888   3.643  17.910  0.00  0.00    +0.000 A 
ATOM      4  C   UNL     1       2.295   2.377  17.967  0.00  0.00    +0.000 A 
ATOM      5  C   UNL     1       1.277   2.119  18.886  0.00  0.00    +0.000 A 
ATOM      6  C   UNL     1       0.847   3.122  19.752  0.00  0.00    +0.000 A 
ATOM      7  C   UNL     1       1.436   4.387  19.702  0.00  0.00    +0.000 A 
ATOM      8  C   UNL     1       2.457   4.648  18.777  0.00  0.00    +0.000 A 
ATOM      9  C   UNL     1       3.077   5.993  18.717  0.00  0.00    +0.000 A 
ATOM     10  O   UNL     1       2.728   6.892  19.474  0.00  0.00    +0.000 OA
ATOM     11  O   UNL     1       4.049   6.178  17.773  0.00  0.00    +0.000 OA
ENDROOT
BRANCH   1  13
ATOM     12  C   UNL     1       5.685   4.547  14.763  0.00  0.00    +0.000 C 
ATOM     13  C   UNL     1       5.548   5.566  15.897  0.00  0.00    +0.000 C 
ATOM     14  C   UNL     1       6.886   5.773  16.612  0.00  0.00    +0.000 C 
BRANCH  13  15
ATOM     15  O   UNL     1       5.183   6.820  15.301  0.00  0.00    +0.000 OA
ATOM     16  H   UNL     1       4.773   7.364  15.994  0.00  0.00    +0.000 HD
ENDBRANCH  13  15
ENDBRANCH   1  13
TORSDOF 2
ENDMDL
MODEL 3
REMARK VINA RESULT:      -6.9      1.824      4.877
REMARK  Name = 
REMARK  4 active torsions:
REMARK  status: ('A' for Active; 'I' for Inactive)
REMARK    1  A    between atoms: C_1  and  C_2
REMARK    2  A    between atoms: C_2  and  C_3
REMARK    3  A    between atoms: C_2  and  O_4
REMARK    4  A    between atoms: C_2  and  C_5
REMARK                            x       y       z     vdW  Elec       q    Type
REMARK                         _______ _______ _______ _____ _____    ______ ____
ROOT
ATOM      1  C   UNL     1       3.613   3.508  18.659  0.00  0.00    +0.000 A 
ATOM      2  C   UNL     1       3.766   3.474  17.328  0.00  0.00    +0.000 A 
ATOM      3  C   UNL     1       4.959   4.041  16.728  0.00  0.00    +0.000 A 
ATOM      4  C   UNL     1       5.149   3.991  15.343  0.00  0.00    +0.000 A 
ATOM      5  C   UNL     1       6.307   4.524  14.773  0.00  0.00    +0.000 A 
ATOM      6  C   UNL     1       7.278   5.110  15.583  0.00  0.00    +0.000 A 
ATOM      7  C   UNL     1       7.093   5.165  16.966  0.00  0.00    +0.000 A 
ATOM      8  C   UNL     1       5.932   4.627  17.539  0.00  0.00    +0.000 A 
ATOM      9  C   UNL     1       5.739   4.678  19.008  0.00  0.00    +0.000 A 
ATOM     10  O   UNL     1       6.570   5.198  19.744  0.00  0.00    +0.000 OA
ATOM     11  O   UNL     1       4.594   4.112  19.495  0.00  0.00    +0.000 OA
ENDROOT
BRANCH   1  13
ATOM     12  C   UNL     1       1.168   3.765  19.207  0.00  0.00    +0.000 C 
ATOM     13  C   UNL     1       2.426   2.914  19.400  0.00  0.00    +0.000 C 
ATOM     14  C   UNL     1       2.752   2.747  20.887  0.00  0.00    +0.000 C 
BRANCH  13  15
ATOM     15  O   UNL     1       2.142   1.609  18.875  0.00  0.00    +0.000 OA
ATOM     16  H   UNL     1       1.368   1.264  19.350  0.00  0.00    +0.000 HD
ENDBRANCH  13  15
ENDBRANCH   1  13
TORSDOF 2
ENDMDL
MODEL 4
REMARK VINA RESULT:      -6.9      1.309      1.517
REMARK  Name = 
REMARK  4 active torsions:
REMARK  status: ('A' for Active; 'I' for Inactive)
REMARK    1  A    between atoms: C_1  and  C_2
REMARK    2  A    between atoms: C_2  and  C_3
REMARK    3  A    between atoms: C_2  and  O_4
REMARK    4  A    between atoms: C_2  and  C_5
REMARK                            x       y       z     vdW  Elec       q    Type
REMARK                         _______ _______ _______ _____ _____    ______ ____
ROOT
ATOM      1  C   UNL     1       5.189   4.221  18.316  0.00  0.00    +0.000 A 
ATOM      2  C   UNL     1       3.934   4.691  18.345  0.00  0.00    +0.000 A 
ATOM      3  C   UNL     1       2.979   4.130  19.282  0.00  0.00    +0.000 A 
ATOM      4  C   UNL     1       1.672   4.626  19.345  0.00  0.00    +0.000 A 
ATOM      5  C   UNL     1       0.762   4.094  20.259  0.00  0.00    +0.000 A 
ATOM      6  C   UNL     1       1.151   3.064  21.113  0.00  0.00    +0.000 A 
ATOM      7  C   UNL     1       2.453   2.562  21.053  0.00  0.00    +0.000 A 
ATOM      8  C   UNL     1       3.369   3.099  20.137  0.00  0.00    +0.000 A 
ATOM      9  C   UNL     1       4.754   2.573  20.080  0.00  0.00    +0.000 A 
ATOM     10  O   UNL     1       5.121   1.659  20.809  0.00  0.00    +0.000 OA
ATOM     11  O   UNL     1       5.596   3.162  19.177  0.00  0.00    +0.000 OA
ENDROOT
BRANCH   1  13
ATOM     12  C   UNL     1       6.374   6.281  17.481  0.00  0.00    +0.000 C 
ATOM     13  C   UNL     1       6.284   4.754  17.406  0.00  0.00    +0.000 C 
ATOM     14  C   UNL     1       6.057   4.288  15.965  0.00  0.00    +0.000 C 
BRANCH  13  15
ATOM     15  O   UNL     1       7.552   4.231  17.832  0.00  0.00    +0.000 OA
ATOM     16  H   UNL     1       8.130   4.198  17.052  0.00  0.00    +0.000 HD
ENDBRANCH  13  15
ENDBRANCH   1  13
TORSDOF 2
ENDMDL
MODEL 5
REMARK VINA RESULT:      -6.9      2.157      2.870
REMARK  Name = 
REMARK  4 active torsions:
REMARK  status: ('A' for Active; 'I' for Inactive)
REMARK    1  A    between atoms: C_1  and  C_2
REMARK    2  A    between atoms: C_2  and  C_3
REMARK    3  A    between atoms: C_2  and  O_4
REMARK    4  A    between atoms: C_2  and  C_5
REMARK                            x       y       z     vdW  Elec       q    Type
REMARK                         _______ _______ _______ _____ _____    ______ ____
ROOT
ATOM      1  C   UNL     1       4.560   4.122  17.660  0.00  0.00    +0.000 A 
ATOM      2  C   UNL     1       4.653   3.649  18.910  0.00  0.00    +0.000 A 
ATOM      3  C   UNL     1       3.445   3.373  19.665  0.00  0.00    +0.000 A 
ATOM      4  C   UNL     1       3.521   2.854  20.962  0.00  0.00    +0.000 A 
ATOM      5  C   UNL     1       2.356   2.575  21.677  0.00  0.00    +0.000 A 
ATOM      6  C   UNL     1       1.109   2.815  21.102  0.00  0.00    +0.000 A 
ATOM      7  C   UNL     1       1.026   3.337  19.809  0.00  0.00    +0.000 A 
ATOM      8  C   UNL     1       2.197   3.613  19.089  0.00  0.00    +0.000 A 
ATOM      9  C   UNL     1       2.109   4.158  17.713  0.00  0.00    +0.000 A 
ATOM     10  O   UNL     1       1.027   4.391  17.186  0.00  0.00    +0.000 OA
ATOM     11  O   UNL     1       3.293   4.380  17.065  0.00  0.00    +0.000 OA
ENDROOT
BRANCH   1  13
ATOM     12  C   UNL     1       7.015   4.681  17.586  0.00  0.00    +0.000 C 
ATOM     13  C   UNL     1       5.752   4.412  16.762  0.00  0.00    +0.000 C 
ATOM     14  C   UNL     1       5.447   5.585  15.827  0.00  0.00    +0.000 C 
BRANCH  13  15
ATOM     15  O   UNL     1       6.017   3.266  15.940  0.00  0.00    +0.000 OA
ATOM     16  H   UNL     1       6.933   2.991  16.108  0.00  0.00    +0.000 HD
ENDBRANCH  13  15
ENDBRANCH   1  13
TORSDOF 2
ENDMDL
MODEL 6
REMARK VINA RESULT:      -6.9      2.275      2.610
REMARK  Name = 
REMARK  4 active torsions:
REMARK  status: ('A' for Active; 'I' for Inactive)
REMARK    1  A    between atoms: C_1  and  C_2
REMARK    2  A    between atoms: C_2  and  C_3
REMARK    3  A    between atoms: C_2  and  O_4
REMARK    4  A    between atoms: C_2  and  C_5
REMARK                            x       y       z     vdW  Elec       q    Type
REMARK                         _______ _______ _______ _____ _____    ______ ____
ROOT
ATOM      1  C   UNL     1       4.609   4.911  16.857  0.00  0.00    +0.000 A 
ATOM      2  C   UNL     1       4.014   5.755  17.711  0.00  0.00    +0.000 A 
ATOM      3  C   UNL     1       3.104   5.238  18.716  0.00  0.00    +0.000 A 
ATOM      4  C   UNL     1       2.495   6.101  19.633  0.00  0.00    +0.000 A 
ATOM      5  C   UNL     1       1.633   5.595  20.608  0.00  0.00    +0.000 A 
ATOM      6  C   UNL     1       1.376   4.227  20.671  0.00  0.00    +0.000 A 
ATOM      7  C   UNL     1       1.979   3.360  19.757  0.00  0.00    +0.000 A 
ATOM      8  C   UNL     1       2.847   3.868  18.779  0.00  0.00    +0.000 A 
ATOM      9  C   UNL     1       3.494   2.947  17.814  0.00  0.00    +0.000 A 
ATOM     10  O   UNL     1       3.278   1.741  17.838  0.00  0.00    +0.000 OA
ATOM     11  O   UNL     1       4.346   3.512  16.906  0.00  0.00    +0.000 OA
ENDROOT
BRANCH   1  13
ATOM     12  C   UNL     1       5.572   4.379  14.591  0.00  0.00    +0.000 C 
ATOM     13  C   UNL     1       5.606   5.332  15.789  0.00  0.00    +0.000 C 
ATOM     14  C   UNL     1       7.016   5.422  16.379  0.00  0.00    +0.000 C 
BRANCH  13  15
ATOM     15  O   UNL     1       5.259   6.638  15.305  0.00  0.00    +0.000 OA
ATOM     16  H   UNL     1       4.582   7.000  15.900  0.00  0.00    +0.000 HD
ENDBRANCH  13  15
ENDBRANCH   1  13
TORSDOF 2
ENDMDL
MODEL 7
REMARK VINA RESULT:      -6.9      1.306      1.312
REMARK  Name = 
REMARK  4 active torsions:
REMARK  status: ('A' for Active; 'I' for Inactive)
REMARK    1  A    between atoms: C_1  and  C_2
REMARK    2  A    between atoms: C_2  and  C_3
REMARK    3  A    between atoms: C_2  and  O_4
REMARK    4  A    between atoms: C_2  and  C_5
REMARK                            x       y       z     vdW  Elec       q    Type
REMARK                         _______ _______ _______ _____ _____    ______ ____
ROOT
ATOM      1  C   UNL     1       5.593   4.803  18.752  0.00  0.00    +0.000 A 
ATOM      2  C   UNL     1       4.454   5.483  18.942  0.00  0.00    +0.000 A 
ATOM      3  C   UNL     1       3.333   4.837  19.598  0.00  0.00    +0.000 A 
ATOM      4  C   UNL     1       2.146   5.539  19.830  0.00  0.00    +0.000 A 
ATOM      5  C   UNL     1       1.076   4.917  20.475  0.00  0.00    +0.000 A 
ATOM      6  C   UNL     1       1.186   3.592  20.891  0.00  0.00    +0.000 A 
ATOM      7  C   UNL     1       2.368   2.884  20.660  0.00  0.00    +0.000 A 
ATOM      8  C   UNL     1       3.444   3.510  20.014  0.00  0.00    +0.000 A 
ATOM      9  C   UNL     1       4.701   2.761  19.777  0.00  0.00    +0.000 A 
ATOM     10  O   UNL     1       4.823   1.591  20.120  0.00  0.00    +0.000 OA
ATOM     11  O   UNL     1       5.715   3.445  19.164  0.00  0.00    +0.000 OA
ENDROOT
BRANCH   1  13
ATOM     12  C   UNL     1       7.826   5.890  19.172  0.00  0.00    +0.000 C 
ATOM     13  C   UNL     1       6.843   5.385  18.112  0.00  0.00    +0.000 C 
ATOM     14  C   UNL     1       6.473   6.502  17.132  0.00  0.00    +0.000 C 
BRANCH  13  15
ATOM     15  O   UNL     1       7.514   4.362  17.363  0.00  0.00    +0.000 OA
ATOM     16  H   UNL     1       8.117   3.902  17.970  0.00  0.00    +0.000 HD
ENDBRANCH  13  15
ENDBRANCH   1  13
TORSDOF 2
ENDMDL
MODEL 8
REMARK VINA RESULT:      -6.9      1.996      4.699
REMARK  Name = 
REMARK  4 active torsions:
REMARK  status: ('A' for Active; 'I' for Inactive)
REMARK    1  A    between atoms: C_1  and  C_2
REMARK    2  A    between atoms: C_2  and  C_3
REMARK    3  A    between atoms: C_2  and  O_4
REMARK    4  A    between atoms: C_2  and  C_5
REMARK                            x       y       z     vdW  Elec       q    Type
REMARK                         _______ _______ _______ _____ _____    ______ ____
ROOT
ATOM      1  C   UNL     1       3.695   4.353  19.350  0.00  0.00    +0.000 A 
ATOM      2  C   UNL     1       3.657   4.122  18.030  0.00  0.00    +0.000 A 
ATOM      3  C   UNL     1       4.851   4.328  17.231  0.00  0.00    +0.000 A 
ATOM      4  C   UNL     1       4.838   4.067  15.857  0.00  0.00    +0.000 A 
ATOM      5  C   UNL     1       5.993   4.251  15.095  0.00  0.00    +0.000 A 
ATOM      6  C   UNL     1       7.165   4.699  15.702  0.00  0.00    +0.000 A 
ATOM      7  C   UNL     1       7.184   4.965  17.073  0.00  0.00    +0.000 A 
ATOM      8  C   UNL     1       6.024   4.776  17.839  0.00  0.00    +0.000 A 
ATOM      9  C   UNL     1       6.046   5.049  19.296  0.00  0.00    +0.000 A 
ATOM     10  O   UNL     1       7.058   5.456  19.855  0.00  0.00    +0.000 OA
ATOM     11  O   UNL     1       4.884   4.819  19.980  0.00  0.00    +0.000 OA
ENDROOT
BRANCH   1  13
ATOM     12  C   UNL     1       2.737   2.904  21.174  0.00  0.00    +0.000 C 
ATOM     13  C   UNL     1       2.522   4.137  20.292  0.00  0.00    +0.000 C 
ATOM     14  C   UNL     1       1.214   4.025  19.503  0.00  0.00    +0.000 C 
BRANCH  13  15
ATOM     15  O   UNL     1       2.399   5.269  21.166  0.00  0.00    +0.000 OA
ATOM     16  H   UNL     1       3.029   5.146  21.894  0.00  0.00    +0.000 HD
ENDBRANCH  13  15
ENDBRANCH   1  13
TORSDOF 2
ENDMDL
MODEL 9
REMARK VINA RESULT:      -6.9      2.021      2.747
REMARK  Name = 
REMARK  4 active torsions:
REMARK  status: ('A' for Active; 'I' for Inactive)
REMARK    1  A    between atoms: C_1  and  C_2
REMARK    2  A    between atoms: C_2  and  C_3
REMARK    3  A    between atoms: C_2  and  O_4
REMARK    4  A    between atoms: C_2  and  C_5
REMARK                            x       y       z     vdW  Elec       q    Type
REMARK                         _______ _______ _______ _____ _____    ______ ____
ROOT
ATOM      1  C   UNL     1       5.450   4.908  18.229  0.00  0.00    +0.000 A 
ATOM      2  C   UNL     1       5.059   3.823  18.911  0.00  0.00    +0.000 A 
ATOM      3  C   UNL     1       3.775   3.824  19.587  0.00  0.00    +0.000 A 
ATOM      4  C   UNL     1       3.338   2.692  20.282  0.00  0.00    +0.000 A 
ATOM      5  C   UNL     1       2.095   2.692  20.917  0.00  0.00    +0.000 A 
ATOM      6  C   UNL     1       1.284   3.824  20.862  0.00  0.00    +0.000 A 
ATOM      7  C   UNL     1       1.716   4.960  20.172  0.00  0.00    +0.000 A 
ATOM      8  C   UNL     1       2.963   4.957  19.532  0.00  0.00    +0.000 A 
ATOM      9  C   UNL     1       3.418   6.159  18.792  0.00  0.00    +0.000 A 
ATOM     10  O   UNL     1       2.732   7.173  18.737  0.00  0.00    +0.000 OA
ATOM     11  O   UNL     1       4.635   6.074  18.173  0.00  0.00    +0.000 OA
ENDROOT
BRANCH   1  13
ATOM     12  C   UNL     1       7.254   6.455  17.394  0.00  0.00    +0.000 C 
ATOM     13  C   UNL     1       6.754   5.009  17.453  0.00  0.00    +0.000 C 
ATOM     14  C   UNL     1       6.586   4.430  16.045  0.00  0.00    +0.000 C 
BRANCH  13  15
ATOM     15  O   UNL     1       7.763   4.235  18.117  0.00  0.00    +0.000 OA
ATOM     16  H   UNL     1       8.109   4.772  18.849  0.00  0.00    +0.000 HD
ENDBRANCH  13  15
ENDBRANCH   1  13
TORSDOF 2
ENDMDL
