MODEL 1
REMARK VINA RESULT:      -7.4      0.000      0.000
REMARK  Name = 
REMARK  7 active torsions:
REMARK  status: ('A' for Active; 'I' for Inactive)
REMARK    1  A    between atoms: C_1  and  C_2
REMARK    2  A    between atoms: C_3  and  N_4
REMARK    3  A    between atoms: C_7  and  C_8
REMARK    4  A    between atoms: C_9  and  N_10
REMARK    5  A    between atoms: C_18  and  C_19
REMARK    6  A    between atoms: C_19  and  O_21
REMARK    7  A    between atoms: C_23  and  C_24
REMARK                            x       y       z     vdW  Elec       q    Type
REMARK                         _______ _______ _______ _____ _____    ______ ____
ROOT
ATOM      1  C   UNL     1       1.228   6.523  21.256  0.00  0.00    +0.000 C 
ATOM      2  C   UNL     1       1.675   7.217  19.997  0.00  0.00    +0.000 A 
ATOM      3  C   UNL     1       2.356   6.475  19.086  0.00  0.00    +0.000 A 
ATOM      4  C   UNL     1       2.950   7.180  17.967  0.00  0.00    +0.000 A 
ATOM      5  F   UNL     1       3.709   6.494  17.081  0.00  0.00    +0.000 F 
ATOM      6  C   UNL     1       2.783   8.490  17.812  0.00  0.00    +0.000 A 
ATOM      7  N   UNL     1       2.027   9.290  18.654  0.00  0.00    +0.000 N 
ATOM      8  C   UNL     1       1.896  10.639  18.325  0.00  0.00    +0.000 A 
ATOM      9  O   UNL     1       2.426  11.180  17.349  0.00  0.00    +0.000 OA
ATOM     10  C   UNL     1       1.058  11.468  19.207  0.00  0.00    +0.000 A 
ATOM     11  C   UNL     1       0.498  10.886  20.275  0.00  0.00    +0.000 A 
ATOM     12  C   UNL     1       0.646   9.470  20.594  0.00  0.00    +0.000 A 
ATOM     13  C   UNL     1       1.424   8.683  19.787  0.00  0.00    +0.000 A 
ENDROOT
BRANCH   3  14
ATOM     14  N   UNL     1       2.490   5.076  19.176  0.00  0.00    +0.000 N 
ATOM     15  C   UNL     1       3.812   4.480  19.436  0.00  0.00    +0.000 C 
ATOM     16  C   UNL     1       3.633   3.097  20.064  0.00  0.00    +0.000 C 
ATOM     17  C   UNL     1       2.784   2.162  19.184  0.00  0.00    +0.000 C 
ATOM     18  C   UNL     1       3.552   1.736  17.926  0.00  0.00    +0.000 C 
ATOM     19  C   UNL     1       1.437   2.826  18.818  0.00  0.00    +0.000 C 
ATOM     20  C   UNL     1       1.656   4.256  18.252  0.00  0.00    +0.000 C 
BRANCH  19  21
ATOM     21  N   UNL     1       0.556   2.876  20.003  0.00  0.00    +0.000 NA
ATOM     22  H   UNL     1       1.109   3.248  20.775  0.00  0.00    +0.000 HD
ATOM     23  H   UNL     1       0.290   1.934  20.283  0.00  0.00    +0.000 HD
ENDBRANCH  19  21
ENDBRANCH   3  14
BRANCH  12  24
ATOM     24  C   UNL     1      -0.068   9.070  21.843  0.00  0.00    +0.000 C 
ATOM     25  C   UNL     1       0.376   9.410  23.248  0.00  0.00    +0.000 C 
ATOM     26  C   UNL     1      -0.767  10.152  22.641  0.00  0.00    +0.000 C 
ENDBRANCH  12  24
BRANCH  10  27
ATOM     27  C   UNL     1       0.798  12.908  18.968  0.00  0.00    +0.000 C 
ATOM     28  O   UNL     1       1.209  13.794  19.706  0.00  0.00    +0.000 OA
BRANCH  27  29
ATOM     29  O   UNL     1       0.065  13.186  17.870  0.00  0.00    +0.000 OA
ATOM     30  H   UNL     1       0.038  12.457  17.203  0.00  0.00    +0.000 HD
ENDBRANCH  27  29
ENDBRANCH  10  27
TORSDOF 5
ENDMDL
MODEL 2
REMARK VINA RESULT:      -7.2      3.785      7.801
REMARK  Name = 
REMARK  7 active torsions:
REMARK  status: ('A' for Active; 'I' for Inactive)
REMARK    1  A    between atoms: C_1  and  C_2
REMARK    2  A    between atoms: C_3  and  N_4
REMARK    3  A    between atoms: C_7  and  C_8
REMARK    4  A    between atoms: C_9  and  N_10
REMARK    5  A    between atoms: C_18  and  C_19
REMARK    6  A    between atoms: C_19  and  O_21
REMARK    7  A    between atoms: C_23  and  C_24
REMARK                            x       y       z     vdW  Elec       q    Type
REMARK                         _______ _______ _______ _____ _____    ______ ____
ROOT
ATOM      1  C   UNL     1       2.751   8.954  17.905  0.00  0.00    +0.000 C 
ATOM      2  C   UNL     1       2.242   7.984  18.937  0.00  0.00    +0.000 A 
ATOM      3  C   UNL     1       1.335   8.450  19.834  0.00  0.00    +0.000 A 
ATOM      4  C   UNL     1       0.987   7.577  20.939  0.00  0.00    +0.000 A 
ATOM      5  F   UNL     1       0.154   8.032  21.903  0.00  0.00    +0.000 F 
ATOM      6  C   UNL     1       1.493   6.351  21.034  0.00  0.00    +0.000 A 
ATOM      7  N   UNL     1       2.352   5.783  20.107  0.00  0.00    +0.000 N 
ATOM      8  C   UNL     1       2.750   4.462  20.313  0.00  0.00    +0.000 A 
ATOM      9  O   UNL     1       2.412   3.768  21.277  0.00  0.00    +0.000 OA
ATOM     10  C   UNL     1       3.631   3.859  19.299  0.00  0.00    +0.000 A 
ATOM     11  C   UNL     1       4.012   4.616  18.264  0.00  0.00    +0.000 A 
ATOM     12  C   UNL     1       3.577   5.996  18.067  0.00  0.00    +0.000 A 
ATOM     13  C   UNL     1       2.759   6.575  19.001  0.00  0.00    +0.000 A 
ENDROOT
BRANCH   3  14
ATOM     14  N   UNL     1       0.720   9.711  19.726  0.00  0.00    +0.000 N 
ATOM     15  C   UNL     1       1.270  10.862  20.464  0.00  0.00    +0.000 C 
ATOM     16  C   UNL     1       0.858  12.160  19.767  0.00  0.00    +0.000 C 
ATOM     17  C   UNL     1      -0.670  12.287  19.631  0.00  0.00    +0.000 C 
ATOM     18  C   UNL     1      -1.329  12.548  20.991  0.00  0.00    +0.000 C 
ATOM     19  C   UNL     1      -1.268  11.034  18.951  0.00  0.00    +0.000 C 
ATOM     20  C   UNL     1      -0.767   9.735  19.642  0.00  0.00    +0.000 C 
BRANCH  19  21
ATOM     21  N   UNL     1      -0.918  11.017  17.517  0.00  0.00    +0.000 NA
ATOM     22  H   UNL     1      -1.415  11.790  17.075  0.00  0.00    +0.000 HD
ATOM     23  H   UNL     1      -1.276  10.171  17.078  0.00  0.00    +0.000 HD
ENDBRANCH  19  21
ENDBRANCH   3  14
BRANCH  12  24
ATOM     24  C   UNL     1       4.150   6.625  16.842  0.00  0.00    +0.000 C 
ATOM     25  C   UNL     1       5.609   6.965  16.637  0.00  0.00    +0.000 C 
ATOM     26  C   UNL     1       5.031   5.775  15.950  0.00  0.00    +0.000 C 
ENDBRANCH  12  24
BRANCH  10  27
ATOM     27  C   UNL     1       4.109   2.457  19.365  0.00  0.00    +0.000 C 
ATOM     28  O   UNL     1       3.634   1.556  18.686  0.00  0.00    +0.000 OA
BRANCH  27  29
ATOM     29  O   UNL     1       5.112   2.231  20.239  0.00  0.00    +0.000 OA
ATOM     30  H   UNL     1       5.673   3.022  20.429  0.00  0.00    +0.000 HD
ENDBRANCH  27  29
ENDBRANCH  10  27
TORSDOF 5
ENDMDL
MODEL 3
REMARK VINA RESULT:      -7.2      3.256      7.108
REMARK  Name = 
REMARK  7 active torsions:
REMARK  status: ('A' for Active; 'I' for Inactive)
REMARK    1  A    between atoms: C_1  and  C_2
REMARK    2  A    between atoms: C_3  and  N_4
REMARK    3  A    between atoms: C_7  and  C_8
REMARK    4  A    between atoms: C_9  and  N_10
REMARK    5  A    between atoms: C_18  and  C_19
REMARK    6  A    between atoms: C_19  and  O_21
REMARK    7  A    between atoms: C_23  and  C_24
REMARK                            x       y       z     vdW  Elec       q    Type
REMARK                         _______ _______ _______ _____ _____    ______ ____
ROOT
ATOM      1  C   UNL     1       0.537   7.460  20.890  0.00  0.00    +0.000 C 
ATOM      2  C   UNL     1       1.484   7.863  19.792  0.00  0.00    +0.000 A 
ATOM      3  C   UNL     1       1.362   9.122  19.297  0.00  0.00    +0.000 A 
ATOM      4  C   UNL     1       2.140   9.448  18.117  0.00  0.00    +0.000 A 
ATOM      5  F   UNL     1       1.985  10.662  17.538  0.00  0.00    +0.000 F 
ATOM      6  C   UNL     1       2.979   8.569  17.580  0.00  0.00    +0.000 A 
ATOM      7  N   UNL     1       3.217   7.301  18.088  0.00  0.00    +0.000 N 
ATOM      8  C   UNL     1       4.174   6.513  17.449  0.00  0.00    +0.000 A 
ATOM      9  O   UNL     1       4.809   6.853  16.445  0.00  0.00    +0.000 OA
ATOM     10  C   UNL     1       4.444   5.184  18.022  0.00  0.00    +0.000 A 
ATOM     11  C   UNL     1       3.744   4.808  19.098  0.00  0.00    +0.000 A 
ATOM     12  C   UNL     1       2.751   5.654  19.754  0.00  0.00    +0.000 A 
ATOM     13  C   UNL     1       2.483   6.892  19.232  0.00  0.00    +0.000 A 
ENDROOT
BRANCH   3  14
ATOM     14  N   UNL     1       0.541  10.105  19.881  0.00  0.00    +0.000 N 
ATOM     15  C   UNL     1      -0.608  10.644  19.132  0.00  0.00    +0.000 C 
ATOM     16  C   UNL     1      -1.643  11.197  20.112  0.00  0.00    +0.000 C 
ATOM     17  C   UNL     1      -1.051  12.274  21.039  0.00  0.00    +0.000 C 
ATOM     18  C   UNL     1      -0.762  13.569  20.270  0.00  0.00    +0.000 C 
ATOM     19  C   UNL     1       0.218  11.750  21.750  0.00  0.00    +0.000 C 
ATOM     20  C   UNL     1       1.212  11.131  20.728  0.00  0.00    +0.000 C 
BRANCH  19  21
ATOM     21  N   UNL     1      -0.148  10.752  22.775  0.00  0.00    +0.000 NA
ATOM     22  H   UNL     1      -0.746  10.060  22.323  0.00  0.00    +0.000 HD
ATOM     23  H   UNL     1      -0.721  11.184  23.497  0.00  0.00    +0.000 HD
ENDBRANCH  19  21
ENDBRANCH   3  14
BRANCH  12  24
ATOM     24  C   UNL     1       2.102   4.999  20.927  0.00  0.00    +0.000 C 
ATOM     25  C   UNL     1       1.101   3.868  20.851  0.00  0.00    +0.000 C 
ATOM     26  C   UNL     1       2.504   3.577  21.262  0.00  0.00    +0.000 C 
ENDBRANCH  12  24
BRANCH  10  27
ATOM     27  C   UNL     1       5.456   4.250  17.472  0.00  0.00    +0.000 C 
ATOM     28  O   UNL     1       5.316   3.664  16.407  0.00  0.00    +0.000 OA
BRANCH  27  29
ATOM     29  O   UNL     1       6.556   4.079  18.235  0.00  0.00    +0.000 OA
ATOM     30  H   UNL     1       6.403   3.555  19.058  0.00  0.00    +0.000 HD
ENDBRANCH  27  29
ENDBRANCH  10  27
TORSDOF 5
ENDMDL
MODEL 4
REMARK VINA RESULT:      -7.1      2.534      3.985
REMARK  Name = 
REMARK  7 active torsions:
REMARK  status: ('A' for Active; 'I' for Inactive)
REMARK    1  A    between atoms: C_1  and  C_2
REMARK    2  A    between atoms: C_3  and  N_4
REMARK    3  A    between atoms: C_7  and  C_8
REMARK    4  A    between atoms: C_9  and  N_10
REMARK    5  A    between atoms: C_18  and  C_19
REMARK    6  A    between atoms: C_19  and  O_21
REMARK    7  A    between atoms: C_23  and  C_24
REMARK                            x       y       z     vdW  Elec       q    Type
REMARK                         _______ _______ _______ _____ _____    ______ ____
ROOT
ATOM      1  C   UNL     1       2.149   8.792  17.716  0.00  0.00    +0.000 C 
ATOM      2  C   UNL     1       1.784   8.441  19.134  0.00  0.00    +0.000 A 
ATOM      3  C   UNL     1       2.068   7.182  19.556  0.00  0.00    +0.000 A 
ATOM      4  C   UNL     1       1.550   6.785  20.851  0.00  0.00    +0.000 A 
ATOM      5  F   UNL     1       1.735   5.513  21.274  0.00  0.00    +0.000 F 
ATOM      6  C   UNL     1       0.874   7.638  21.614  0.00  0.00    +0.000 A 
ATOM      7  N   UNL     1       0.627   8.961  21.282  0.00  0.00    +0.000 N 
ATOM      8  C   UNL     1      -0.044   9.751  22.215  0.00  0.00    +0.000 A 
ATOM      9  O   UNL     1      -0.458   9.351  23.308  0.00  0.00    +0.000 OA
ATOM     10  C   UNL     1      -0.266  11.164  21.865  0.00  0.00    +0.000 A 
ATOM     11  C   UNL     1       0.166  11.594  20.674  0.00  0.00    +0.000 A 
ATOM     12  C   UNL     1       0.873  10.748  19.716  0.00  0.00    +0.000 A 
ATOM     13  C   UNL     1       1.084   9.429  20.022  0.00  0.00    +0.000 A 
ENDROOT
BRANCH   3  14
ATOM     14  N   UNL     1       2.844   6.275  18.811  0.00  0.00    +0.000 N 
ATOM     15  C   UNL     1       2.216   5.076  18.228  0.00  0.00    +0.000 C 
ATOM     16  C   UNL     1       3.041   4.597  17.032  0.00  0.00    +0.000 C 
ATOM     17  C   UNL     1       4.504   4.308  17.413  0.00  0.00    +0.000 C 
ATOM     18  C   UNL     1       4.613   3.045  18.276  0.00  0.00    +0.000 C 
ATOM     19  C   UNL     1       5.139   5.526  18.121  0.00  0.00    +0.000 C 
ATOM     20  C   UNL     1       4.236   6.028  19.282  0.00  0.00    +0.000 C 
BRANCH  19  21
ATOM     21  N   UNL     1       5.373   6.615  17.150  0.00  0.00    +0.000 NA
ATOM     22  H   UNL     1       5.124   6.256  16.229  0.00  0.00    +0.000 HD
ATOM     23  H   UNL     1       6.366   6.834  17.102  0.00  0.00    +0.000 HD
ENDBRANCH  19  21
ENDBRANCH   3  14
BRANCH  12  24
ATOM     24  C   UNL     1       1.239  11.462  18.458  0.00  0.00    +0.000 C 
ATOM     25  C   UNL     1       1.055  12.942  18.210  0.00  0.00    +0.000 C 
ATOM     26  C   UNL     1       2.419  12.411  18.495  0.00  0.00    +0.000 C 
ENDBRANCH  12  24
BRANCH  10  27
ATOM     27  C   UNL     1      -0.933  12.132  22.768  0.00  0.00    +0.000 C 
ATOM     28  O   UNL     1      -0.407  13.173  23.140  0.00  0.00    +0.000 OA
BRANCH  27  29
ATOM     29  O   UNL     1      -2.175  11.786  23.167  0.00  0.00    +0.000 OA
ATOM     30  H   UNL     1      -2.527  12.325  23.917  0.00  0.00    +0.000 HD
ENDBRANCH  27  29
ENDBRANCH  10  27
TORSDOF 5
ENDMDL
MODEL 5
REMARK VINA RESULT:      -7.1      0.968      1.044
REMARK  Name = 
REMARK  7 active torsions:
REMARK  status: ('A' for Active; 'I' for Inactive)
REMARK    1  A    between atoms: C_1  and  C_2
REMARK    2  A    between atoms: C_3  and  N_4
REMARK    3  A    between atoms: C_7  and  C_8
REMARK    4  A    between atoms: C_9  and  N_10
REMARK    5  A    between atoms: C_18  and  C_19
REMARK    6  A    between atoms: C_19  and  O_21
REMARK    7  A    between atoms: C_23  and  C_24
REMARK                            x       y       z     vdW  Elec       q    Type
REMARK                         _______ _______ _______ _____ _____    ______ ____
ROOT
ATOM      1  C   UNL     1       1.190   7.066  21.220  0.00  0.00    +0.000 C 
ATOM      2  C   UNL     1       1.498   7.935  20.030  0.00  0.00    +0.000 A 
ATOM      3  C   UNL     1       2.231   7.381  19.030  0.00  0.00    +0.000 A 
ATOM      4  C   UNL     1       2.688   8.266  17.975  0.00  0.00    +0.000 A 
ATOM      5  F   UNL     1       3.493   7.776  17.004  0.00  0.00    +0.000 F 
ATOM      6  C   UNL     1       2.353   9.552  17.962  0.00  0.00    +0.000 A 
ATOM      7  N   UNL     1       1.536  10.160  18.903  0.00  0.00    +0.000 N 
ATOM      8  C   UNL     1       1.224  11.507  18.720  0.00  0.00    +0.000 A 
ATOM      9  O   UNL     1       1.644  12.207  17.793  0.00  0.00    +0.000 OA
ATOM     10  C   UNL     1       0.323  12.129  19.705  0.00  0.00    +0.000 A 
ATOM     11  C   UNL     1      -0.118  11.375  20.720  0.00  0.00    +0.000 A 
ATOM     12  C   UNL     1       0.218   9.964  20.885  0.00  0.00    +0.000 A 
ATOM     13  C   UNL     1       1.058   9.369  19.981  0.00  0.00    +0.000 A 
ENDROOT
BRANCH   3  14
ATOM     14  N   UNL     1       2.542   6.010  18.969  0.00  0.00    +0.000 N 
ATOM     15  C   UNL     1       3.931   5.561  19.177  0.00  0.00    +0.000 C 
ATOM     16  C   UNL     1       3.932   4.107  19.650  0.00  0.00    +0.000 C 
ATOM     17  C   UNL     1       3.206   3.173  18.665  0.00  0.00    +0.000 C 
ATOM     18  C   UNL     1       4.018   2.987  17.377  0.00  0.00    +0.000 C 
ATOM     19  C   UNL     1       1.784   3.696  18.359  0.00  0.00    +0.000 C 
ATOM     20  C   UNL     1       1.817   5.196  17.953  0.00  0.00    +0.000 C 
BRANCH  19  21
ATOM     21  N   UNL     1       0.908   3.504  19.532  0.00  0.00    +0.000 NA
ATOM     22  H   UNL     1       0.346   2.671  19.358  0.00  0.00    +0.000 HD
ATOM     23  H   UNL     1       0.245   4.274  19.605  0.00  0.00    +0.000 HD
ENDBRANCH  19  21
ENDBRANCH   3  14
BRANCH  12  24
ATOM     24  C   UNL     1      -0.391   9.353  22.103  0.00  0.00    +0.000 C 
ATOM     25  C   UNL     1       0.181   9.436  23.500  0.00  0.00    +0.000 C 
ATOM     26  C   UNL     1      -0.995  10.279  23.139  0.00  0.00    +0.000 C 
ENDBRANCH  12  24
BRANCH  10  27
ATOM     27  C   UNL     1      -0.124  13.540  19.623  0.00  0.00    +0.000 C 
ATOM     28  O   UNL     1       0.050  14.350  20.525  0.00  0.00    +0.000 OA
BRANCH  27  29
ATOM     29  O   UNL     1      -0.750  13.881  18.478  0.00  0.00    +0.000 OA
ATOM     30  H   UNL     1      -0.140  14.088  17.727  0.00  0.00    +0.000 HD
ENDBRANCH  27  29
ENDBRANCH  10  27
TORSDOF 5
ENDMDL
MODEL 6
REMARK VINA RESULT:      -7.1      3.262      7.040
REMARK  Name = 
REMARK  7 active torsions:
REMARK  status: ('A' for Active; 'I' for Inactive)
REMARK    1  A    between atoms: C_1  and  C_2
REMARK    2  A    between atoms: C_3  and  N_4
REMARK    3  A    between atoms: C_7  and  C_8
REMARK    4  A    between atoms: C_9  and  N_10
REMARK    5  A    between atoms: C_18  and  C_19
REMARK    6  A    between atoms: C_19  and  O_21
REMARK    7  A    between atoms: C_23  and  C_24
REMARK                            x       y       z     vdW  Elec       q    Type
REMARK                         _______ _______ _______ _____ _____    ______ ____
ROOT
ATOM      1  C   UNL     1       1.493   6.159  20.543  0.00  0.00    +0.000 C 
ATOM      2  C   UNL     1       2.297   6.834  19.465  0.00  0.00    +0.000 A 
ATOM      3  C   UNL     1       1.972   8.117  19.157  0.00  0.00    +0.000 A 
ATOM      4  C   UNL     1       2.615   8.703  17.997  0.00  0.00    +0.000 A 
ATOM      5  F   UNL     1       2.258   9.947  17.602  0.00  0.00    +0.000 F 
ATOM      6  C   UNL     1       3.526   8.031  17.300  0.00  0.00    +0.000 A 
ATOM      7  N   UNL     1       3.968   6.754  17.613  0.00  0.00    +0.000 N 
ATOM      8  C   UNL     1       4.975   6.202  16.822  0.00  0.00    +0.000 A 
ATOM      9  O   UNL     1       5.487   6.759  15.845  0.00  0.00    +0.000 OA
ATOM     10  C   UNL     1       5.462   4.862  17.190  0.00  0.00    +0.000 A 
ATOM     11  C   UNL     1       4.895   4.251  18.237  0.00  0.00    +0.000 A 
ATOM     12  C   UNL     1       3.845   4.853  19.054  0.00  0.00    +0.000 A 
ATOM     13  C   UNL     1       3.377   6.098  18.725  0.00  0.00    +0.000 A 
ENDROOT
BRANCH   3  14
ATOM     14  N   UNL     1       1.070   8.887  19.914  0.00  0.00    +0.000 N 
ATOM     15  C   UNL     1       0.328   9.989  19.276  0.00  0.00    +0.000 C 
ATOM     16  C   UNL     1      -0.954  10.265  20.063  0.00  0.00    +0.000 C 
ATOM     17  C   UNL     1      -0.671  10.591  21.540  0.00  0.00    +0.000 C 
ATOM     18  C   UNL     1      -0.019  11.971  21.689  0.00  0.00    +0.000 C 
ATOM     19  C   UNL     1       0.196   9.489  22.190  0.00  0.00    +0.000 C 
ATOM     20  C   UNL     1       1.451   9.186  21.324  0.00  0.00    +0.000 C 
BRANCH  19  21
ATOM     21  N   UNL     1      -0.600   8.260  22.381  0.00  0.00    +0.000 NA
ATOM     22  H   UNL     1      -0.848   7.914  21.455  0.00  0.00    +0.000 HD
ATOM     23  H   UNL     1      -1.482   8.482  22.839  0.00  0.00    +0.000 HD
ENDBRANCH  19  21
ENDBRANCH   3  14
BRANCH  12  24
ATOM     24  C   UNL     1       3.374   3.964  20.156  0.00  0.00    +0.000 C 
ATOM     25  C   UNL     1       2.460   2.771  19.984  0.00  0.00    +0.000 C 
ATOM     26  C   UNL     1       3.917   2.551  20.212  0.00  0.00    +0.000 C 
ENDBRANCH  12  24
BRANCH  10  27
ATOM     27  C   UNL     1       6.549   4.163  16.465  0.00  0.00    +0.000 C 
ATOM     28  O   UNL     1       7.735   4.421  16.626  0.00  0.00    +0.000 OA
BRANCH  27  29
ATOM     29  O   UNL     1       6.144   3.212  15.596  0.00  0.00    +0.000 OA
ATOM     30  H   UNL     1       5.530   2.542  15.985  0.00  0.00    +0.000 HD
ENDBRANCH  27  29
ENDBRANCH  10  27
TORSDOF 5
ENDMDL
MODEL 7
REMARK VINA RESULT:      -7.0      3.799      7.851
REMARK  Name = 
REMARK  7 active torsions:
REMARK  status: ('A' for Active; 'I' for Inactive)
REMARK    1  A    between atoms: C_1  and  C_2
REMARK    2  A    between atoms: C_3  and  N_4
REMARK    3  A    between atoms: C_7  and  C_8
REMARK    4  A    between atoms: C_9  and  N_10
REMARK    5  A    between atoms: C_18  and  C_19
REMARK    6  A    between atoms: C_19  and  O_21
REMARK    7  A    between atoms: C_23  and  C_24
REMARK                            x       y       z     vdW  Elec       q    Type
REMARK                         _______ _______ _______ _____ _____    ______ ____
ROOT
ATOM      1  C   UNL     1       2.835   8.837  17.853  0.00  0.00    +0.000 C 
ATOM      2  C   UNL     1       2.295   7.867  18.870  0.00  0.00    +0.000 A 
ATOM      3  C   UNL     1       1.356   8.332  19.734  0.00  0.00    +0.000 A 
ATOM      4  C   UNL     1       0.975   7.460  20.829  0.00  0.00    +0.000 A 
ATOM      5  F   UNL     1       0.108   7.914  21.763  0.00  0.00    +0.000 F 
ATOM      6  C   UNL     1       1.482   6.237  20.945  0.00  0.00    +0.000 A 
ATOM      7  N   UNL     1       2.374   5.670  20.048  0.00  0.00    +0.000 N 
ATOM      8  C   UNL     1       2.770   4.351  20.271  0.00  0.00    +0.000 A 
ATOM      9  O   UNL     1       2.403   3.658  21.225  0.00  0.00    +0.000 OA
ATOM     10  C   UNL     1       3.688   3.749  19.289  0.00  0.00    +0.000 A 
ATOM     11  C   UNL     1       4.101   4.506  18.265  0.00  0.00    +0.000 A 
ATOM     12  C   UNL     1       3.666   5.883  18.050  0.00  0.00    +0.000 A 
ATOM     13  C   UNL     1       2.815   6.461  18.955  0.00  0.00    +0.000 A 
ENDROOT
BRANCH   3  14
ATOM     14  N   UNL     1       0.741   9.591  19.602  0.00  0.00    +0.000 N 
ATOM     15  C   UNL     1       0.230  10.025  18.290  0.00  0.00    +0.000 C 
ATOM     16  C   UNL     1      -0.868  11.071  18.491  0.00  0.00    +0.000 C 
ATOM     17  C   UNL     1      -0.378  12.282  19.306  0.00  0.00    +0.000 C 
ATOM     18  C   UNL     1       0.599  13.140  18.492  0.00  0.00    +0.000 C 
ATOM     19  C   UNL     1       0.257  11.825  20.640  0.00  0.00    +0.000 C 
ATOM     20  C   UNL     1       1.314  10.711  20.400  0.00  0.00    +0.000 C 
BRANCH  19  21
ATOM     21  N   UNL     1      -0.790  11.345  21.564  0.00  0.00    +0.000 NA
ATOM     22  H   UNL     1      -0.874  12.034  22.310  0.00  0.00    +0.000 HD
ATOM     23  H   UNL     1      -0.491  10.483  22.015  0.00  0.00    +0.000 HD
ENDBRANCH  19  21
ENDBRANCH   3  14
BRANCH  12  24
ATOM     24  C   UNL     1       4.278   6.512  16.843  0.00  0.00    +0.000 C 
ATOM     25  C   UNL     1       5.753   6.784  16.655  0.00  0.00    +0.000 C 
ATOM     26  C   UNL     1       5.123   5.640  15.937  0.00  0.00    +0.000 C 
ENDBRANCH  12  24
BRANCH  10  27
ATOM     27  C   UNL     1       4.168   2.349  19.375  0.00  0.00    +0.000 C 
ATOM     28  O   UNL     1       3.737   1.449  18.667  0.00  0.00    +0.000 OA
BRANCH  27  29
ATOM     29  O   UNL     1       5.123   2.124  20.302  0.00  0.00    +0.000 OA
ATOM     30  H   UNL     1       5.337   1.169  20.441  0.00  0.00    +0.000 HD
ENDBRANCH  27  29
ENDBRANCH  10  27
TORSDOF 5
ENDMDL
MODEL 8
REMARK VINA RESULT:      -6.8      5.840      9.455
REMARK  Name = 
REMARK  7 active torsions:
REMARK  status: ('A' for Active; 'I' for Inactive)
REMARK    1  A    between atoms: C_1  and  C_2
REMARK    2  A    between atoms: C_3  and  N_4
REMARK    3  A    between atoms: C_7  and  C_8
REMARK    4  A    between atoms: C_9  and  N_10
REMARK    5  A    between atoms: C_18  and  C_19
REMARK    6  A    between atoms: C_19  and  O_21
REMARK    7  A    between atoms: C_23  and  C_24
REMARK                            x       y       z     vdW  Elec       q    Type
REMARK                         _______ _______ _______ _____ _____    ______ ____
ROOT
ATOM      1  C   UNL     1      -1.299  11.786  21.436  0.00  0.00    +0.000 C 
ATOM      2  C   UNL     1      -2.454  12.197  20.564  0.00  0.00    +0.000 A 
ATOM      3  C   UNL     1      -3.366  13.049  21.100  0.00  0.00    +0.000 A 
ATOM      4  C   UNL     1      -4.573  13.296  20.333  0.00  0.00    +0.000 A 
ATOM      5  F   UNL     1      -5.547  14.069  20.866  0.00  0.00    +0.000 F 
ATOM      6  C   UNL     1      -4.749  12.754  19.133  0.00  0.00    +0.000 A 
ATOM      7  N   UNL     1      -3.821  11.949  18.490  0.00  0.00    +0.000 N 
ATOM      8  C   UNL     1      -4.123  11.506  17.204  0.00  0.00    +0.000 A 
ATOM      9  O   UNL     1      -5.173  11.756  16.602  0.00  0.00    +0.000 OA
ATOM     10  C   UNL     1      -3.111  10.684  16.519  0.00  0.00    +0.000 A 
ATOM     11  C   UNL     1      -1.982  10.396  17.178  0.00  0.00    +0.000 A 
ATOM     12  C   UNL     1      -1.685  10.879  18.523  0.00  0.00    +0.000 A 
ATOM     13  C   UNL     1      -2.617  11.642  19.178  0.00  0.00    +0.000 A 
ENDROOT
BRANCH   3  14
ATOM     14  N   UNL     1      -3.182  13.700  22.334  0.00  0.00    +0.000 N 
ATOM     15  C   UNL     1      -4.142  13.482  23.431  0.00  0.00    +0.000 C 
ATOM     16  C   UNL     1      -3.461  13.771  24.769  0.00  0.00    +0.000 C 
ATOM     17  C   UNL     1      -2.884  15.196  24.834  0.00  0.00    +0.000 C 
ATOM     18  C   UNL     1      -4.001  16.244  24.923  0.00  0.00    +0.000 C 
ATOM     19  C   UNL     1      -1.957  15.469  23.627  0.00  0.00    +0.000 C 
ATOM     20  C   UNL     1      -2.658  15.094  22.291  0.00  0.00    +0.000 C 
BRANCH  19  21
ATOM     21  N   UNL     1      -0.697  14.712  23.772  0.00  0.00    +0.000 NA
ATOM     22  H   UNL     1      -0.945  13.727  23.867  0.00  0.00    +0.000 HD
ATOM     23  H   UNL     1      -0.233  14.966  24.642  0.00  0.00    +0.000 HD
ENDBRANCH  19  21
ENDBRANCH   3  14
BRANCH  12  24
ATOM     24  C   UNL     1      -0.366  10.410  19.039  0.00  0.00    +0.000 C 
ATOM     25  C   UNL     1       0.717   9.764  18.205  0.00  0.00    +0.000 C 
ATOM     26  C   UNL     1       0.873  11.184  18.635  0.00  0.00    +0.000 C 
ENDBRANCH  12  24
BRANCH  10  27
ATOM     27  C   UNL     1      -3.278  10.169  15.139  0.00  0.00    +0.000 C 
ATOM     28  O   UNL     1      -2.343  10.022  14.363  0.00  0.00    +0.000 OA
BRANCH  27  29
ATOM     29  O   UNL     1      -4.545   9.872  14.784  0.00  0.00    +0.000 OA
ATOM     30  H   UNL     1      -4.900  10.422  14.044  0.00  0.00    +0.000 HD
ENDBRANCH  27  29
ENDBRANCH  10  27
TORSDOF 5
ENDMDL
MODEL 9
REMARK VINA RESULT:      -6.7      3.273      7.069
REMARK  Name = 
REMARK  7 active torsions:
REMARK  status: ('A' for Active; 'I' for Inactive)
REMARK    1  A    between atoms: C_1  and  C_2
REMARK    2  A    between atoms: C_3  and  N_4
REMARK    3  A    between atoms: C_7  and  C_8
REMARK    4  A    between atoms: C_9  and  N_10
REMARK    5  A    between atoms: C_18  and  C_19
REMARK    6  A    between atoms: C_19  and  O_21
REMARK    7  A    between atoms: C_23  and  C_24
REMARK                            x       y       z     vdW  Elec       q    Type
REMARK                         _______ _______ _______ _____ _____    ______ ____
ROOT
ATOM      1  C   UNL     1       0.491   7.667  20.887  0.00  0.00    +0.000 C 
ATOM      2  C   UNL     1       1.457   8.015  19.787  0.00  0.00    +0.000 A 
ATOM      3  C   UNL     1       1.400   9.276  19.285  0.00  0.00    +0.000 A 
ATOM      4  C   UNL     1       2.194   9.556  18.103  0.00  0.00    +0.000 A 
ATOM      5  F   UNL     1       2.102  10.773  17.518  0.00  0.00    +0.000 F 
ATOM      6  C   UNL     1       2.987   8.631  17.572  0.00  0.00    +0.000 A 
ATOM      7  N   UNL     1       3.160   7.355  18.086  0.00  0.00    +0.000 N 
ATOM      8  C   UNL     1       4.075   6.517  17.451  0.00  0.00    +0.000 A 
ATOM      9  O   UNL     1       4.727   6.818  16.446  0.00  0.00    +0.000 OA
ATOM     10  C   UNL     1       4.277   5.179  18.032  0.00  0.00    +0.000 A 
ATOM     11  C   UNL     1       3.558   4.844  19.110  0.00  0.00    +0.000 A 
ATOM     12  C   UNL     1       2.610   5.744  19.761  0.00  0.00    +0.000 A 
ATOM     13  C   UNL     1       2.406   6.991  19.233  0.00  0.00    +0.000 A 
ENDROOT
BRANCH   3  14
ATOM     14  N   UNL     1       0.631  10.303  19.864  0.00  0.00    +0.000 N 
ATOM     15  C   UNL     1       1.012  10.857  21.175  0.00  0.00    +0.000 C 
ATOM     16  C   UNL     1       0.452  12.273  21.314  0.00  0.00    +0.000 C 
ATOM     17  C   UNL     1      -1.077  12.315  21.135  0.00  0.00    +0.000 C 
ATOM     18  C   UNL     1      -1.793  11.676  22.331  0.00  0.00    +0.000 C 
ATOM     19  C   UNL     1      -1.493  11.640  19.808  0.00  0.00    +0.000 C 
ATOM     20  C   UNL     1      -0.845  10.234  19.671  0.00  0.00    +0.000 C 
BRANCH  19  21
ATOM     21  N   UNL     1      -1.112  12.491  18.662  0.00  0.00    +0.000 NA
ATOM     22  H   UNL     1      -0.463  11.952  18.088  0.00  0.00    +0.000 HD
ATOM     23  H   UNL     1      -0.587  13.301  18.986  0.00  0.00    +0.000 HD
ENDBRANCH  19  21
ENDBRANCH   3  14
BRANCH  12  24
ATOM     24  C   UNL     1       1.928   5.129  20.937  0.00  0.00    +0.000 C 
ATOM     25  C   UNL     1       1.168   3.822  20.921  0.00  0.00    +0.000 C 
ATOM     26  C   UNL     1       2.528   3.871  21.531  0.00  0.00    +0.000 C 
ENDBRANCH  12  24
BRANCH  10  27
ATOM     27  C   UNL     1       5.239   4.191  17.488  0.00  0.00    +0.000 C 
ATOM     28  O   UNL     1       5.062   3.595  16.434  0.00  0.00    +0.000 OA
BRANCH  27  29
ATOM     29  O   UNL     1       6.339   3.982  18.241  0.00  0.00    +0.000 OA
ATOM     30  H   UNL     1       6.358   3.106  18.698  0.00  0.00    +0.000 HD
ENDBRANCH  27  29
ENDBRANCH  10  27
TORSDOF 5
ENDMDL
