MODEL 1
REMARK VINA RESULT:      -7.1      0.000      0.000
REMARK  Name = 
REMARK  5 active torsions:
REMARK  status: ('A' for Active; 'I' for Inactive)
REMARK    1  A    between atoms: C_1  and  C_2
REMARK    2  A    between atoms: C_2  and  C_3
REMARK    3  A    between atoms: C_3  and  C_4
REMARK    4  A    between atoms: C_4  and  C_5
REMARK    5  A    between atoms: C_12  and  C_14
REMARK                            x       y       z     vdW  Elec       q    Type
REMARK                         _______ _______ _______ _____ _____    ______ ____
ROOT
ATOM      1  C   UNL     1       2.969   6.710  18.759  0.00  0.00    +0.000 A 
ATOM      2  C   UNL     1       2.810   7.622  17.710  0.00  0.00    +0.000 A 
ATOM      3  C   UNL     1       2.044   8.787  17.868  0.00  0.00    +0.000 A 
ATOM      4  C   UNL     1       1.409   9.045  19.099  0.00  0.00    +0.000 A 
ATOM      5  N   UNL     1       0.603  10.138  19.402  0.00  0.00    +0.000 NA
ATOM      6  C   UNL     1       0.229  10.073  20.659  0.00  0.00    +0.000 A 
ATOM      7  N   UNL     1      -0.561  11.043  21.229  0.00  0.00    +0.000 N 
ATOM      8  C   UNL     1      -0.809  11.199  22.575  0.00  0.00    +0.000 C 
ATOM      9  O   UNL     1      -0.328  10.494  23.460  0.00  0.00    +0.000 OA
ATOM     10  S   UNL     1       0.731   8.689  21.514  0.00  0.00    +0.000 S 
ATOM     11  C   UNL     1       1.583   8.131  20.136  0.00  0.00    +0.000 A 
ATOM     12  C   UNL     1       2.349   6.963  19.992  0.00  0.00    +0.000 A 
ATOM     13  H   UNL     1      -0.890  11.746  20.585  0.00  0.00    +0.000 HD
ENDROOT
BRANCH   8  14
ATOM     14  C   UNL     1      -1.680  12.313  22.938  0.00  0.00    +0.000 A 
ATOM     15  C   UNL     1      -3.054  12.236  23.101  0.00  0.00    +0.000 A 
ATOM     16  C   UNL     1      -3.624  13.485  23.436  0.00  0.00    +0.000 A 
ATOM     17 BR   UNL     1      -5.474  13.689  23.720  0.00  0.00    +0.000 Br
ATOM     18  C   UNL     1      -2.696  14.492  23.522  0.00  0.00    +0.000 A 
ATOM     19  S   UNL     1      -1.115  13.908  23.205  0.00  0.00    +0.000 S 
ENDBRANCH   8  14
BRANCH   1  20
ATOM     20  C   UNL     1       3.770   5.440  18.574  0.00  0.00    +0.000 C 
BRANCH  20  21
ATOM     21  C   UNL     1       3.218   4.547  17.461  0.00  0.00    +0.000 C 
BRANCH  21  23
ATOM     22  C   UNL     1       1.840   2.610  18.277  0.00  0.00    +0.000 C 
ATOM     23  C   UNL     1       1.810   4.050  17.788  0.00  0.00    +0.000 C 
ENDBRANCH  21  23
ENDBRANCH  20  21
ENDBRANCH   1  20
TORSDOF 4
ENDMDL
MODEL 2
REMARK VINA RESULT:      -6.9      1.221      1.348
REMARK  Name = 
REMARK  5 active torsions:
REMARK  status: ('A' for Active; 'I' for Inactive)
REMARK    1  A    between atoms: C_1  and  C_2
REMARK    2  A    between atoms: C_2  and  C_3
REMARK    3  A    between atoms: C_3  and  C_4
REMARK    4  A    between atoms: C_4  and  C_5
REMARK    5  A    between atoms: C_12  and  C_14
REMARK                            x       y       z     vdW  Elec       q    Type
REMARK                         _______ _______ _______ _____ _____    ______ ____
ROOT
ATOM      1  C   UNL     1       2.878   6.658  18.823  0.00  0.00    +0.000 A 
ATOM      2  C   UNL     1       2.849   7.617  17.805  0.00  0.00    +0.000 A 
ATOM      3  C   UNL     1       2.169   8.833  17.970  0.00  0.00    +0.000 A 
ATOM      4  C   UNL     1       1.490   9.097  19.176  0.00  0.00    +0.000 A 
ATOM      5  N   UNL     1       0.756  10.239  19.480  0.00  0.00    +0.000 NA
ATOM      6  C   UNL     1       0.311  10.160  20.713  0.00  0.00    +0.000 A 
ATOM      7  N   UNL     1      -0.431  11.168  21.280  0.00  0.00    +0.000 N 
ATOM      8  C   UNL     1      -0.740  11.295  22.617  0.00  0.00    +0.000 C 
ATOM      9  O   UNL     1      -0.364  10.523  23.496  0.00  0.00    +0.000 OA
ATOM     10  S   UNL     1       0.655   8.710  21.536  0.00  0.00    +0.000 S 
ATOM     11  C   UNL     1       1.534   8.135  20.183  0.00  0.00    +0.000 A 
ATOM     12  C   UNL     1       2.214   6.915  20.032  0.00  0.00    +0.000 A 
ATOM     13  H   UNL     1      -0.669  11.919  20.648  0.00  0.00    +0.000 HD
ENDROOT
BRANCH   8  14
ATOM     14  C   UNL     1      -1.540  12.462  22.978  0.00  0.00    +0.000 A 
ATOM     15  C   UNL     1      -1.084  13.771  22.996  0.00  0.00    +0.000 A 
ATOM     16  C   UNL     1      -2.086  14.680  23.405  0.00  0.00    +0.000 A 
ATOM     17 BR   UNL     1      -1.759  16.531  23.526  0.00  0.00    +0.000 Br
ATOM     18  C   UNL     1      -3.279  14.069  23.695  0.00  0.00    +0.000 A 
ATOM     19  S   UNL     1      -3.183  12.373  23.455  0.00  0.00    +0.000 S 
ENDBRANCH   8  14
BRANCH   1  20
ATOM     20  C   UNL     1       3.587   5.335  18.629  0.00  0.00    +0.000 C 
BRANCH  20  21
ATOM     21  C   UNL     1       2.995   4.508  17.485  0.00  0.00    +0.000 C 
BRANCH  21  23
ATOM     22  C   UNL     1       1.387   2.838  18.455  0.00  0.00    +0.000 C 
ATOM     23  C   UNL     1       1.526   4.172  17.738  0.00  0.00    +0.000 C 
ENDBRANCH  21  23
ENDBRANCH  20  21
ENDBRANCH   1  20
TORSDOF 4
ENDMDL
MODEL 3
REMARK VINA RESULT:      -6.9      3.126      4.541
REMARK  Name = 
REMARK  5 active torsions:
REMARK  status: ('A' for Active; 'I' for Inactive)
REMARK    1  A    between atoms: C_1  and  C_2
REMARK    2  A    between atoms: C_2  and  C_3
REMARK    3  A    between atoms: C_3  and  C_4
REMARK    4  A    between atoms: C_4  and  C_5
REMARK    5  A    between atoms: C_12  and  C_14
REMARK                            x       y       z     vdW  Elec       q    Type
REMARK                         _______ _______ _______ _____ _____    ______ ____
ROOT
ATOM      1  C   UNL     1       5.353   5.007  16.294  0.00  0.00    +0.000 A 
ATOM      2  C   UNL     1       5.116   4.079  17.315  0.00  0.00    +0.000 A 
ATOM      3  C   UNL     1       4.318   4.404  18.423  0.00  0.00    +0.000 A 
ATOM      4  C   UNL     1       3.750   5.689  18.523  0.00  0.00    +0.000 A 
ATOM      5  N   UNL     1       2.960   6.166  19.564  0.00  0.00    +0.000 NA
ATOM      6  C   UNL     1       2.565   7.388  19.291  0.00  0.00    +0.000 A 
ATOM      7  N   UNL     1       1.751   8.093  20.146  0.00  0.00    +0.000 N 
ATOM      8  C   UNL     1       1.093   9.268  19.856  0.00  0.00    +0.000 C 
ATOM      9  O   UNL     1       1.128   9.836  18.767  0.00  0.00    +0.000 OA
ATOM     10  S   UNL     1       3.173   8.062  17.851  0.00  0.00    +0.000 S 
ATOM     11  C   UNL     1       3.989   6.599  17.495  0.00  0.00    +0.000 A 
ATOM     12  C   UNL     1       4.783   6.286  16.380  0.00  0.00    +0.000 A 
ATOM     13  H   UNL     1       1.561   7.627  21.021  0.00  0.00    +0.000 HD
ENDROOT
BRANCH   8  14
ATOM     14  C   UNL     1       0.279   9.825  20.932  0.00  0.00    +0.000 A 
ATOM     15  C   UNL     1      -0.585  10.902  20.808  0.00  0.00    +0.000 A 
ATOM     16  C   UNL     1      -1.222  11.220  22.028  0.00  0.00    +0.000 A 
ATOM     17 BR   UNL     1      -2.452  12.640  22.166  0.00  0.00    +0.000 Br
ATOM     18  C   UNL     1      -0.845  10.399  23.060  0.00  0.00    +0.000 A 
ATOM     19  S   UNL     1       0.286   9.221  22.535  0.00  0.00    +0.000 S 
ENDBRANCH   8  14
BRANCH   1  20
ATOM     20  C   UNL     1       6.239   4.662  15.118  0.00  0.00    +0.000 C 
BRANCH  20  21
ATOM     21  C   UNL     1       5.578   3.685  14.143  0.00  0.00    +0.000 C 
BRANCH  21  23
ATOM     22  C   UNL     1       5.467   2.928  11.749  0.00  0.00    +0.000 C 
ATOM     23  C   UNL     1       6.282   3.686  12.786  0.00  0.00    +0.000 C 
ENDBRANCH  21  23
ENDBRANCH  20  21
ENDBRANCH   1  20
TORSDOF 4
ENDMDL
MODEL 4
REMARK VINA RESULT:      -6.9      0.692      1.014
REMARK  Name = 
REMARK  5 active torsions:
REMARK  status: ('A' for Active; 'I' for Inactive)
REMARK    1  A    between atoms: C_1  and  C_2
REMARK    2  A    between atoms: C_2  and  C_3
REMARK    3  A    between atoms: C_3  and  C_4
REMARK    4  A    between atoms: C_4  and  C_5
REMARK    5  A    between atoms: C_12  and  C_14
REMARK                            x       y       z     vdW  Elec       q    Type
REMARK                         _______ _______ _______ _____ _____    ______ ____
ROOT
ATOM      1  C   UNL     1       2.775   7.136  18.605  0.00  0.00    +0.000 A 
ATOM      2  C   UNL     1       2.566   8.073  17.587  0.00  0.00    +0.000 A 
ATOM      3  C   UNL     1       1.778   9.214  17.799  0.00  0.00    +0.000 A 
ATOM      4  C   UNL     1       1.171   9.423  19.053  0.00  0.00    +0.000 A 
ATOM      5  N   UNL     1       0.348  10.486  19.408  0.00  0.00    +0.000 NA
ATOM      6  C   UNL     1       0.011  10.378  20.673  0.00  0.00    +0.000 A 
ATOM      7  N   UNL     1      -0.785  11.312  21.292  0.00  0.00    +0.000 N 
ATOM      8  C   UNL     1      -1.000  11.424  22.648  0.00  0.00    +0.000 C 
ATOM      9  O   UNL     1      -0.478  10.707  23.498  0.00  0.00    +0.000 OA
ATOM     10  S   UNL     1       0.569   8.983  21.474  0.00  0.00    +0.000 S 
ATOM     11  C   UNL     1       1.394   8.484  20.058  0.00  0.00    +0.000 A 
ATOM     12  C   UNL     1       2.184   7.340  19.861  0.00  0.00    +0.000 A 
ATOM     13  H   UNL     1      -1.149  12.025  20.676  0.00  0.00    +0.000 HD
ENDROOT
BRANCH   8  14
ATOM     14  C   UNL     1      -1.886  12.507  23.065  0.00  0.00    +0.000 A 
ATOM     15  C   UNL     1      -3.270  12.436  23.113  0.00  0.00    +0.000 A 
ATOM     16  C   UNL     1      -3.852  13.650  23.541  0.00  0.00    +0.000 A 
ATOM     17 BR   UNL     1      -5.717  13.855  23.704  0.00  0.00    +0.000 Br
ATOM     18  C   UNL     1      -2.925  14.625  23.810  0.00  0.00    +0.000 A 
ATOM     19  S   UNL     1      -1.329  14.052  23.552  0.00  0.00    +0.000 S 
ENDBRANCH   8  14
BRANCH   1  20
ATOM     20  C   UNL     1       3.600   5.892  18.361  0.00  0.00    +0.000 C 
BRANCH  20  21
ATOM     21  C   UNL     1       2.804   4.773  17.686  0.00  0.00    +0.000 C 
BRANCH  21  23
ATOM     22  C   UNL     1       4.857   4.172  16.367  0.00  0.00    +0.000 C 
ATOM     23  C   UNL     1       3.716   3.639  17.219  0.00  0.00    +0.000 C 
ENDBRANCH  21  23
ENDBRANCH  20  21
ENDBRANCH   1  20
TORSDOF 4
ENDMDL
MODEL 5
REMARK VINA RESULT:      -6.9      4.447      9.323
REMARK  Name = 
REMARK  5 active torsions:
REMARK  status: ('A' for Active; 'I' for Inactive)
REMARK    1  A    between atoms: C_1  and  C_2
REMARK    2  A    between atoms: C_2  and  C_3
REMARK    3  A    between atoms: C_3  and  C_4
REMARK    4  A    between atoms: C_4  and  C_5
REMARK    5  A    between atoms: C_12  and  C_14
REMARK                            x       y       z     vdW  Elec       q    Type
REMARK                         _______ _______ _______ _____ _____    ______ ____
ROOT
ATOM      1  C   UNL     1      -1.450  11.833  21.941  0.00  0.00    +0.000 A 
ATOM      2  C   UNL     1      -1.159  11.101  23.097  0.00  0.00    +0.000 A 
ATOM      3  C   UNL     1      -0.334   9.967  23.052  0.00  0.00    +0.000 A 
ATOM      4  C   UNL     1       0.207   9.543  21.823  0.00  0.00    +0.000 A 
ATOM      5  N   UNL     1       1.019   8.433  21.614  0.00  0.00    +0.000 NA
ATOM      6  C   UNL     1       1.377   8.382  20.351  0.00  0.00    +0.000 A 
ATOM      7  N   UNL     1       2.201   7.392  19.873  0.00  0.00    +0.000 N 
ATOM      8  C   UNL     1       2.822   7.377  18.643  0.00  0.00    +0.000 C 
ATOM      9  O   UNL     1       2.740   8.276  17.809  0.00  0.00    +0.000 OA
ATOM     10  S   UNL     1       0.708   9.577  19.340  0.00  0.00    +0.000 S 
ATOM     11  C   UNL     1      -0.085  10.288  20.681  0.00  0.00    +0.000 A 
ATOM     12  C   UNL     1      -0.907  11.426  20.713  0.00  0.00    +0.000 A 
ATOM     13  H   UNL     1       2.430   6.676  20.547  0.00  0.00    +0.000 HD
ENDROOT
BRANCH   8  14
ATOM     14  C   UNL     1       3.658   6.212  18.365  0.00  0.00    +0.000 A 
ATOM     15  C   UNL     1       4.446   6.042  17.238  0.00  0.00    +0.000 A 
ATOM     16  C   UNL     1       5.128   4.805  17.244  0.00  0.00    +0.000 A 
ATOM     17 BR   UNL     1       6.274   4.295  15.839  0.00  0.00    +0.000 Br
ATOM     18  C   UNL     1       4.857   4.048  18.356  0.00  0.00    +0.000 A 
ATOM     19  S   UNL     1       3.774   4.859  19.410  0.00  0.00    +0.000 S 
ENDBRANCH   8  14
BRANCH   1  20
ATOM     20  C   UNL     1      -2.365  13.037  21.990  0.00  0.00    +0.000 C 
BRANCH  20  21
ATOM     21  C   UNL     1      -3.811  12.669  22.329  0.00  0.00    +0.000 C 
BRANCH  21  23
ATOM     22  C   UNL     1      -4.435  12.372  24.745  0.00  0.00    +0.000 C 
ATOM     23  C   UNL     1      -4.282  13.367  23.605  0.00  0.00    +0.000 C 
ENDBRANCH  21  23
ENDBRANCH  20  21
ENDBRANCH   1  20
TORSDOF 4
ENDMDL
MODEL 6
REMARK VINA RESULT:      -6.8      2.529      3.902
REMARK  Name = 
REMARK  5 active torsions:
REMARK  status: ('A' for Active; 'I' for Inactive)
REMARK    1  A    between atoms: C_1  and  C_2
REMARK    2  A    between atoms: C_2  and  C_3
REMARK    3  A    between atoms: C_3  and  C_4
REMARK    4  A    between atoms: C_4  and  C_5
REMARK    5  A    between atoms: C_12  and  C_14
REMARK                            x       y       z     vdW  Elec       q    Type
REMARK                         _______ _______ _______ _____ _____    ______ ____
ROOT
ATOM      1  C   UNL     1       4.581   4.731  17.229  0.00  0.00    +0.000 A 
ATOM      2  C   UNL     1       4.229   3.926  18.319  0.00  0.00    +0.000 A 
ATOM      3  C   UNL     1       3.415   4.414  19.352  0.00  0.00    +0.000 A 
ATOM      4  C   UNL     1       2.948   5.742  19.306  0.00  0.00    +0.000 A 
ATOM      5  N   UNL     1       2.157   6.375  20.259  0.00  0.00    +0.000 NA
ATOM      6  C   UNL     1       1.872   7.592  19.856  0.00  0.00    +0.000 A 
ATOM      7  N   UNL     1       1.083   8.435  20.602  0.00  0.00    +0.000 N 
ATOM      8  C   UNL     1       0.533   9.623  20.173  0.00  0.00    +0.000 C 
ATOM      9  O   UNL     1       0.657  10.080  19.039  0.00  0.00    +0.000 OA
ATOM     10  S   UNL     1       2.590   8.077  18.390  0.00  0.00    +0.000 S 
ATOM     11  C   UNL     1       3.301   6.529  18.211  0.00  0.00    +0.000 A 
ATOM     12  C   UNL     1       4.112   6.052  17.169  0.00  0.00    +0.000 A 
ATOM     13  H   UNL     1       0.821   8.071  21.506  0.00  0.00    +0.000 HD
ENDROOT
BRANCH   8  14
ATOM     14  C   UNL     1      -0.278  10.341  21.152  0.00  0.00    +0.000 A 
ATOM     15  C   UNL     1      -1.027  11.478  20.893  0.00  0.00    +0.000 A 
ATOM     16  C   UNL     1      -1.692  11.953  22.045  0.00  0.00    +0.000 A 
ATOM     17 BR   UNL     1      -2.785  13.487  22.000  0.00  0.00    +0.000 Br
ATOM     18  C   UNL     1      -1.448  11.191  23.159  0.00  0.00    +0.000 A 
ATOM     19  S   UNL     1      -0.410   9.875  22.796  0.00  0.00    +0.000 S 
ENDBRANCH   8  14
BRANCH   1  20
ATOM     20  C   UNL     1       5.485   4.209  16.134  0.00  0.00    +0.000 C 
BRANCH  20  21
ATOM     21  C   UNL     1       6.897   4.794  16.200  0.00  0.00    +0.000 C 
BRANCH  21  23
ATOM     22  C   UNL     1       7.737   6.075  18.192  0.00  0.00    +0.000 C 
ATOM     23  C   UNL     1       7.480   4.694  17.610  0.00  0.00    +0.000 C 
ENDBRANCH  21  23
ENDBRANCH  20  21
ENDBRANCH   1  20
TORSDOF 4
ENDMDL
MODEL 7
REMARK VINA RESULT:      -6.8      1.344      1.606
REMARK  Name = 
REMARK  5 active torsions:
REMARK  status: ('A' for Active; 'I' for Inactive)
REMARK    1  A    between atoms: C_1  and  C_2
REMARK    2  A    between atoms: C_2  and  C_3
REMARK    3  A    between atoms: C_3  and  C_4
REMARK    4  A    between atoms: C_4  and  C_5
REMARK    5  A    between atoms: C_12  and  C_14
REMARK                            x       y       z     vdW  Elec       q    Type
REMARK                         _______ _______ _______ _____ _____    ______ ____
ROOT
ATOM      1  C   UNL     1       2.716   7.149  18.500  0.00  0.00    +0.000 A 
ATOM      2  C   UNL     1       2.604   8.162  17.541  0.00  0.00    +0.000 A 
ATOM      3  C   UNL     1       1.891   9.341  17.808  0.00  0.00    +0.000 A 
ATOM      4  C   UNL     1       1.264   9.511  19.057  0.00  0.00    +0.000 A 
ATOM      5  N   UNL     1       0.507  10.607  19.461  0.00  0.00    +0.000 NA
ATOM      6  C   UNL     1       0.126  10.442  20.707  0.00  0.00    +0.000 A 
ATOM      7  N   UNL     1      -0.621  11.389  21.366  0.00  0.00    +0.000 N 
ATOM      8  C   UNL     1      -0.868  11.429  22.721  0.00  0.00    +0.000 C 
ATOM      9  O   UNL     1      -0.423  10.624  23.535  0.00  0.00    +0.000 OA
ATOM     10  S   UNL     1       0.560   8.962  21.428  0.00  0.00    +0.000 S 
ATOM     11  C   UNL     1       1.391   8.496  20.004  0.00  0.00    +0.000 A 
ATOM     12  C   UNL     1       2.104   7.314  19.751  0.00  0.00    +0.000 A 
ATOM     13  H   UNL     1      -0.915  12.164  20.790  0.00  0.00    +0.000 HD
ENDROOT
BRANCH   8  14
ATOM     14  C   UNL     1      -1.688  12.544  23.186  0.00  0.00    +0.000 A 
ATOM     15  C   UNL     1      -1.230  13.829  23.429  0.00  0.00    +0.000 A 
ATOM     16  C   UNL     1      -2.257  14.684  23.888  0.00  0.00    +0.000 A 
ATOM     17 BR   UNL     1      -1.933  16.493  24.301  0.00  0.00    +0.000 Br
ATOM     18  C   UNL     1      -3.471  14.056  23.995  0.00  0.00    +0.000 A 
ATOM     19  S   UNL     1      -3.364  12.412  23.519  0.00  0.00    +0.000 S 
ENDBRANCH   8  14
BRANCH   1  20
ATOM     20  C   UNL     1       3.459   5.867  18.196  0.00  0.00    +0.000 C 
BRANCH  20  21
ATOM     21  C   UNL     1       2.525   4.672  17.993  0.00  0.00    +0.000 C 
BRANCH  21  23
ATOM     22  C   UNL     1       4.597   3.977  16.754  0.00  0.00    +0.000 C 
ATOM     23  C   UNL     1       3.200   3.563  17.187  0.00  0.00    +0.000 C 
ENDBRANCH  21  23
ENDBRANCH  20  21
ENDBRANCH   1  20
TORSDOF 4
ENDMDL
MODEL 8
REMARK VINA RESULT:      -6.8      3.487      4.940
REMARK  Name = 
REMARK  5 active torsions:
REMARK  status: ('A' for Active; 'I' for Inactive)
REMARK    1  A    between atoms: C_1  and  C_2
REMARK    2  A    between atoms: C_2  and  C_3
REMARK    3  A    between atoms: C_3  and  C_4
REMARK    4  A    between atoms: C_4  and  C_5
REMARK    5  A    between atoms: C_12  and  C_14
REMARK                            x       y       z     vdW  Elec       q    Type
REMARK                         _______ _______ _______ _____ _____    ______ ____
ROOT
ATOM      1  C   UNL     1       5.285   4.294  16.138  0.00  0.00    +0.000 A 
ATOM      2  C   UNL     1       4.469   3.489  16.940  0.00  0.00    +0.000 A 
ATOM      3  C   UNL     1       3.490   4.048  17.775  0.00  0.00    +0.000 A 
ATOM      4  C   UNL     1       3.327   5.446  17.822  0.00  0.00    +0.000 A 
ATOM      5  N   UNL     1       2.421   6.148  18.612  0.00  0.00    +0.000 NA
ATOM      6  C   UNL     1       2.516   7.432  18.353  0.00  0.00    +0.000 A 
ATOM      7  N   UNL     1       1.716   8.357  18.981  0.00  0.00    +0.000 N 
ATOM      8  C   UNL     1       1.566   9.678  18.620  0.00  0.00    +0.000 C 
ATOM      9  O   UNL     1       2.116  10.204  17.655  0.00  0.00    +0.000 OA
ATOM     10  S   UNL     1       3.726   7.880  17.243  0.00  0.00    +0.000 S 
ATOM     11  C   UNL     1       4.142   6.234  17.012  0.00  0.00    +0.000 A 
ATOM     12  C   UNL     1       5.123   5.687  16.170  0.00  0.00    +0.000 A 
ATOM     13  H   UNL     1       1.125   7.976  19.705  0.00  0.00    +0.000 HD
ENDROOT
BRANCH   8  14
ATOM     14  C   UNL     1       0.650  10.464  19.443  0.00  0.00    +0.000 A 
ATOM     15  C   UNL     1       0.330  10.196  20.764  0.00  0.00    +0.000 A 
ATOM     16  C   UNL     1      -0.597  11.124  21.288  0.00  0.00    +0.000 A 
ATOM     17 BR   UNL     1      -1.220  11.013  23.062  0.00  0.00    +0.000 Br
ATOM     18  C   UNL     1      -0.976  12.077  20.377  0.00  0.00    +0.000 A 
ATOM     19  S   UNL     1      -0.184  11.848  18.873  0.00  0.00    +0.000 S 
ENDBRANCH   8  14
BRANCH   1  20
ATOM     20  C   UNL     1       6.360   3.687  15.263  0.00  0.00    +0.000 C 
BRANCH  20  21
ATOM     21  C   UNL     1       6.650   4.522  14.014  0.00  0.00    +0.000 C 
BRANCH  21  23
ATOM     22  C   UNL     1       4.957   3.511  12.456  0.00  0.00    +0.000 C 
ATOM     23  C   UNL     1       6.438   3.710  12.736  0.00  0.00    +0.000 C 
ENDBRANCH  21  23
ENDBRANCH  20  21
ENDBRANCH   1  20
TORSDOF 4
ENDMDL
MODEL 9
REMARK VINA RESULT:      -6.7      1.176      1.836
REMARK  Name = 
REMARK  5 active torsions:
REMARK  status: ('A' for Active; 'I' for Inactive)
REMARK    1  A    between atoms: C_1  and  C_2
REMARK    2  A    between atoms: C_2  and  C_3
REMARK    3  A    between atoms: C_3  and  C_4
REMARK    4  A    between atoms: C_4  and  C_5
REMARK    5  A    between atoms: C_12  and  C_14
REMARK                            x       y       z     vdW  Elec       q    Type
REMARK                         _______ _______ _______ _____ _____    ______ ____
ROOT
ATOM      1  C   UNL     1       3.275   6.365  18.675  0.00  0.00    +0.000 A 
ATOM      2  C   UNL     1       3.184   7.294  17.633  0.00  0.00    +0.000 A 
ATOM      3  C   UNL     1       2.451   8.482  17.780  0.00  0.00    +0.000 A 
ATOM      4  C   UNL     1       1.783   8.747  18.991  0.00  0.00    +0.000 A 
ATOM      5  N   UNL     1       1.003   9.863  19.280  0.00  0.00    +0.000 NA
ATOM      6  C   UNL     1       0.585   9.796  20.523  0.00  0.00    +0.000 A 
ATOM      7  N   UNL     1      -0.192  10.785  21.078  0.00  0.00    +0.000 N 
ATOM      8  C   UNL     1      -0.481  10.934  22.416  0.00  0.00    +0.000 C 
ATOM      9  O   UNL     1      -0.054  10.204  23.308  0.00  0.00    +0.000 OA
ATOM     10  S   UNL     1       1.011   8.386  21.377  0.00  0.00    +0.000 S 
ATOM     11  C   UNL     1       1.890   7.815  20.022  0.00  0.00    +0.000 A 
ATOM     12  C   UNL     1       2.623   6.625  19.889  0.00  0.00    +0.000 A 
ATOM     13  H   UNL     1      -0.475  11.506  20.431  0.00  0.00    +0.000 HD
ENDROOT
BRANCH   8  14
ATOM     14  C   UNL     1      -1.327  12.073  22.763  0.00  0.00    +0.000 A 
ATOM     15  C   UNL     1      -2.664  11.999  23.119  0.00  0.00    +0.000 A 
ATOM     16  C   UNL     1      -3.218  13.271  23.382  0.00  0.00    +0.000 A 
ATOM     17 BR   UNL     1      -5.020  13.485  23.888  0.00  0.00    +0.000 Br
ATOM     18  C   UNL     1      -2.316  14.292  23.225  0.00  0.00    +0.000 A 
ATOM     19  S   UNL     1      -0.776  13.695  22.766  0.00  0.00    +0.000 S 
ENDBRANCH   8  14
BRANCH   1  20
ATOM     20  C   UNL     1       4.040   5.072  18.501  0.00  0.00    +0.000 C 
BRANCH  20  21
ATOM     21  C   UNL     1       5.450   5.131  19.094  0.00  0.00    +0.000 C 
BRANCH  21  23
ATOM     22  C   UNL     1       7.535   4.744  17.747  0.00  0.00    +0.000 C 
ATOM     23  C   UNL     1       6.447   5.742  18.111  0.00  0.00    +0.000 C 
ENDBRANCH  21  23
ENDBRANCH  20  21
ENDBRANCH   1  20
TORSDOF 4
ENDMDL
