MODEL 1
REMARK VINA RESULT:      -8.9      0.000      0.000
REMARK  Name = 
REMARK  8 active torsions:
REMARK  status: ('A' for Active; 'I' for Inactive)
REMARK    1  A    between atoms: C_1  and  C_2
REMARK    2  A    between atoms: C_2  and  O_3
REMARK    3  A    between atoms: C_2  and  C_4
REMARK    4  A    between atoms: C_6  and  C_7
REMARK    5  A    between atoms: C_11  and  C_12
REMARK    6  A    between atoms: C_12  and  O_13
REMARK    7  A    between atoms: C_15  and  C_16
REMARK    8  A    between atoms: C_22  and  C_24
REMARK                            x       y       z     vdW  Elec       q    Type
REMARK                         _______ _______ _______ _____ _____    ______ ____
ROOT
ATOM      1  C   UNL     1       5.982   4.043  13.880  0.00  0.00    +0.000 A 
ATOM      2  N   UNL     1       4.918   3.968  14.651  0.00  0.00    +0.000 NA
ATOM      3  C   UNL     1       5.131   4.666  15.833  0.00  0.00    +0.000 A 
ATOM      4  C   UNL     1       6.385   5.269  15.952  0.00  0.00    +0.000 A 
ATOM      5  S   UNL     1       7.274   4.973  14.498  0.00  0.00    +0.000 S 
ENDROOT
BRANCH   4   6
ATOM      6  C   UNL     1       7.025   6.029  17.044  0.00  0.00    +0.000 A 
ATOM      7  C   UNL     1       7.581   5.381  18.150  0.00  0.00    +0.000 A 
ATOM      8  C   UNL     1       8.240   6.141  19.096  0.00  0.00    +0.000 A 
ATOM      9  N   UNL     1       8.412   7.471  18.992  0.00  0.00    +0.000 NA
ATOM     10  C   UNL     1       7.881   8.104  17.935  0.00  0.00    +0.000 A 
ATOM     11  N   UNL     1       8.068   9.485  17.763  0.00  0.00    +0.000 N 
ATOM     12  C   UNL     1       8.948  10.247  18.508  0.00  0.00    +0.000 C 
ATOM     13  O   UNL     1       9.769   9.831  19.318  0.00  0.00    +0.000 OA
ATOM     14  C   UNL     1       7.137   7.426  16.976  0.00  0.00    +0.000 A 
ATOM     15  H   UNL     1       7.511   9.928  17.051  0.00  0.00    +0.000 HD
BRANCH  12  16
ATOM     16  C   UNL     1       8.876  11.723  18.304  0.00  0.00    +0.000 A 
ATOM     17  C   UNL     1       9.816  12.510  18.984  0.00  0.00    +0.000 A 
ATOM     18  C   UNL     1       9.801  13.900  18.869  0.00  0.00    +0.000 A 
ATOM     19  C   UNL     1       8.846  14.515  18.061  0.00  0.00    +0.000 A 
ATOM     20  C   UNL     1       7.922  13.743  17.358  0.00  0.00    +0.000 A 
ATOM     21  C   UNL     1       7.937  12.348  17.473  0.00  0.00    +0.000 A 
ENDBRANCH  12  16
ENDBRANCH   4   6
BRANCH   3  22
ATOM     22  C   UNL     1       4.082   4.666  16.851  0.00  0.00    +0.000 A 
ATOM     23  C   UNL     1       3.658   5.884  17.400  0.00  0.00    +0.000 A 
ATOM     24  C   UNL     1       2.611   5.922  18.323  0.00  0.00    +0.000 A 
ATOM     25  C   UNL     1       1.967   4.743  18.694  0.00  0.00    +0.000 A 
ATOM     26  C   UNL     1       2.377   3.512  18.164  0.00  0.00    +0.000 A 
ATOM     27  C   UNL     1       3.464   3.482  17.278  0.00  0.00    +0.000 A 
BRANCH  26  28
ATOM     28  C   UNL     1       1.650   2.244  18.524  0.00  0.00    +0.000 C 
BRANCH  28  29
ATOM     29  O   UNL     1       1.214   2.293  19.872  0.00  0.00    +0.000 OA
ATOM     30  H   UNL     1       0.496   2.948  19.911  0.00  0.00    +0.000 HD
ENDBRANCH  28  29
ENDBRANCH  26  28
ENDBRANCH   3  22
BRANCH   1  32
ATOM     31  C   UNL     1       4.794   3.404  11.790  0.00  0.00    +0.000 C 
ATOM     32  C   UNL     1       6.105   3.341  12.559  0.00  0.00    +0.000 C 
BRANCH  32  33
ATOM     33  O   UNL     1       7.114   4.015  11.800  0.00  0.00    +0.000 OA
ATOM     34  H   UNL     1       7.722   4.409  12.453  0.00  0.00    +0.000 HD
ENDBRANCH  32  33
ENDBRANCH   1  32
TORSDOF 7
ENDMDL
MODEL 2
REMARK VINA RESULT:      -8.8      0.875      1.458
REMARK  Name = 
REMARK  8 active torsions:
REMARK  status: ('A' for Active; 'I' for Inactive)
REMARK    1  A    between atoms: C_1  and  C_2
REMARK    2  A    between atoms: C_2  and  O_3
REMARK    3  A    between atoms: C_2  and  C_4
REMARK    4  A    between atoms: C_6  and  C_7
REMARK    5  A    between atoms: C_11  and  C_12
REMARK    6  A    between atoms: C_12  and  O_13
REMARK    7  A    between atoms: C_15  and  C_16
REMARK    8  A    between atoms: C_22  and  C_24
REMARK                            x       y       z     vdW  Elec       q    Type
REMARK                         _______ _______ _______ _____ _____    ______ ____
ROOT
ATOM      1  C   UNL     1       5.996   4.035  13.848  0.00  0.00    +0.000 A 
ATOM      2  N   UNL     1       4.973   3.865  14.657  0.00  0.00    +0.000 NA
ATOM      3  C   UNL     1       5.182   4.551  15.847  0.00  0.00    +0.000 A 
ATOM      4  C   UNL     1       6.393   5.242  15.932  0.00  0.00    +0.000 A 
ATOM      5  S   UNL     1       7.242   5.043  14.438  0.00  0.00    +0.000 S 
ENDROOT
BRANCH   4   6
ATOM      6  C   UNL     1       7.019   6.023  17.017  0.00  0.00    +0.000 A 
ATOM      7  C   UNL     1       7.522   5.401  18.163  0.00  0.00    +0.000 A 
ATOM      8  C   UNL     1       8.172   6.176  19.102  0.00  0.00    +0.000 A 
ATOM      9  N   UNL     1       8.386   7.496  18.957  0.00  0.00    +0.000 NA
ATOM     10  C   UNL     1       7.907   8.105  17.862  0.00  0.00    +0.000 A 
ATOM     11  N   UNL     1       8.138   9.473  17.647  0.00  0.00    +0.000 N 
ATOM     12  C   UNL     1       9.015  10.237  18.393  0.00  0.00    +0.000 C 
ATOM     13  O   UNL     1       9.798   9.828  19.244  0.00  0.00    +0.000 OA
ATOM     14  C   UNL     1       7.174   7.413  16.904  0.00  0.00    +0.000 A 
ATOM     15  H   UNL     1       7.617   9.905  16.902  0.00  0.00    +0.000 HD
BRANCH  12  16
ATOM     16  C   UNL     1       8.993  11.706  18.135  0.00  0.00    +0.000 A 
ATOM     17  C   UNL     1      10.173  12.419  18.387  0.00  0.00    +0.000 A 
ATOM     18  C   UNL     1      10.228  13.799  18.198  0.00  0.00    +0.000 A 
ATOM     19  C   UNL     1       9.099  14.479  17.743  0.00  0.00    +0.000 A 
ATOM     20  C   UNL     1       7.927  13.778  17.462  0.00  0.00    +0.000 A 
ATOM     21  C   UNL     1       7.871  12.393  17.652  0.00  0.00    +0.000 A 
ENDBRANCH  12  16
ENDBRANCH   4   6
BRANCH   3  22
ATOM     22  C   UNL     1       4.178   4.452  16.904  0.00  0.00    +0.000 A 
ATOM     23  C   UNL     1       3.742   3.186  17.320  0.00  0.00    +0.000 A 
ATOM     24  C   UNL     1       2.835   3.057  18.373  0.00  0.00    +0.000 A 
ATOM     25  C   UNL     1       2.366   4.193  19.032  0.00  0.00    +0.000 A 
ATOM     26  C   UNL     1       2.782   5.470  18.630  0.00  0.00    +0.000 A 
ATOM     27  C   UNL     1       3.653   5.588  17.537  0.00  0.00    +0.000 A 
BRANCH  26  28
ATOM     28  C   UNL     1       2.318   6.694  19.373  0.00  0.00    +0.000 C 
BRANCH  28  29
ATOM     29  O   UNL     1       2.140   6.397  20.747  0.00  0.00    +0.000 OA
ATOM     30  H   UNL     1       1.181   6.333  20.899  0.00  0.00    +0.000 HD
ENDBRANCH  28  29
ENDBRANCH  26  28
ENDBRANCH   3  22
BRANCH   1  32
ATOM     31  C   UNL     1       4.806   3.465  11.740  0.00  0.00    +0.000 C 
ATOM     32  C   UNL     1       6.117   3.372  12.506  0.00  0.00    +0.000 C 
BRANCH  32  33
ATOM     33  O   UNL     1       7.129   4.065  11.768  0.00  0.00    +0.000 OA
ATOM     34  H   UNL     1       6.883   3.976  10.828  0.00  0.00    +0.000 HD
ENDBRANCH  32  33
ENDBRANCH   1  32
TORSDOF 7
ENDMDL
MODEL 3
REMARK VINA RESULT:      -8.6      2.956      6.475
REMARK  Name = 
REMARK  8 active torsions:
REMARK  status: ('A' for Active; 'I' for Inactive)
REMARK    1  A    between atoms: C_1  and  C_2
REMARK    2  A    between atoms: C_2  and  O_3
REMARK    3  A    between atoms: C_2  and  C_4
REMARK    4  A    between atoms: C_6  and  C_7
REMARK    5  A    between atoms: C_11  and  C_12
REMARK    6  A    between atoms: C_12  and  O_13
REMARK    7  A    between atoms: C_15  and  C_16
REMARK    8  A    between atoms: C_22  and  C_24
REMARK                            x       y       z     vdW  Elec       q    Type
REMARK                         _______ _______ _______ _____ _____    ______ ____
ROOT
ATOM      1  C   UNL     1       6.763   4.389  13.981  0.00  0.00    +0.000 A 
ATOM      2  N   UNL     1       7.445   5.064  14.881  0.00  0.00    +0.000 NA
ATOM      3  C   UNL     1       6.690   5.221  16.037  0.00  0.00    +0.000 A 
ATOM      4  C   UNL     1       5.413   4.658  15.996  0.00  0.00    +0.000 A 
ATOM      5  S   UNL     1       5.209   3.875  14.467  0.00  0.00    +0.000 S 
ENDROOT
BRANCH   4   6
ATOM      6  C   UNL     1       4.295   4.655  16.960  0.00  0.00    +0.000 A 
ATOM      7  C   UNL     1       3.743   3.459  17.428  0.00  0.00    +0.000 A 
ATOM      8  C   UNL     1       2.757   3.521  18.392  0.00  0.00    +0.000 A 
ATOM      9  N   UNL     1       2.325   4.671  18.939  0.00  0.00    +0.000 NA
ATOM     10  C   UNL     1       2.847   5.826  18.498  0.00  0.00    +0.000 A 
ATOM     11  N   UNL     1       2.455   7.049  19.066  0.00  0.00    +0.000 N 
ATOM     12  C   UNL     1       1.698   7.162  20.217  0.00  0.00    +0.000 C 
ATOM     13  O   UNL     1       1.370   6.249  20.968  0.00  0.00    +0.000 OA
ATOM     14  C   UNL     1       3.788   5.857  17.475  0.00  0.00    +0.000 A 
ATOM     15  H   UNL     1       2.751   7.882  18.585  0.00  0.00    +0.000 HD
BRANCH  12  16
ATOM     16  C   UNL     1       1.231   8.535  20.565  0.00  0.00    +0.000 A 
ATOM     17  C   UNL     1       0.871   8.770  21.899  0.00  0.00    +0.000 A 
ATOM     18  C   UNL     1       0.399  10.019  22.302  0.00  0.00    +0.000 A 
ATOM     19  C   UNL     1       0.290  11.050  21.370  0.00  0.00    +0.000 A 
ATOM     20  C   UNL     1       0.670  10.837  20.045  0.00  0.00    +0.000 A 
ATOM     21  C   UNL     1       1.145   9.585  19.640  0.00  0.00    +0.000 A 
ENDBRANCH  12  16
ENDBRANCH   4   6
BRANCH   3  22
ATOM     22  C   UNL     1       7.252   5.988  17.147  0.00  0.00    +0.000 A 
ATOM     23  C   UNL     1       7.624   5.321  18.323  0.00  0.00    +0.000 A 
ATOM     24  C   UNL     1       8.226   6.015  19.374  0.00  0.00    +0.000 A 
ATOM     25  C   UNL     1       8.477   7.381  19.253  0.00  0.00    +0.000 A 
ATOM     26  C   UNL     1       8.109   8.071  18.090  0.00  0.00    +0.000 A 
ATOM     27  C   UNL     1       7.457   7.372  17.063  0.00  0.00    +0.000 A 
BRANCH  26  28
ATOM     28  C   UNL     1       8.426   9.534  17.936  0.00  0.00    +0.000 C 
BRANCH  28  29
ATOM     29  O   UNL     1       8.935  10.057  19.152  0.00  0.00    +0.000 OA
ATOM     30  H   UNL     1       9.747  10.543  18.930  0.00  0.00    +0.000 HD
ENDBRANCH  28  29
ENDBRANCH  26  28
ENDBRANCH   3  22
BRANCH   1  32
ATOM     31  C   UNL     1       6.218   3.362  11.782  0.00  0.00    +0.000 C 
ATOM     32  C   UNL     1       7.267   4.105  12.595  0.00  0.00    +0.000 C 
BRANCH  32  33
ATOM     33  O   UNL     1       7.534   5.360  11.962  0.00  0.00    +0.000 OA
ATOM     34  H   UNL     1       8.057   5.153  11.165  0.00  0.00    +0.000 HD
ENDBRANCH  32  33
ENDBRANCH   1  32
TORSDOF 7
ENDMDL
MODEL 4
REMARK VINA RESULT:      -8.1      5.304      8.005
REMARK  Name = 
REMARK  8 active torsions:
REMARK  status: ('A' for Active; 'I' for Inactive)
REMARK    1  A    between atoms: C_1  and  C_2
REMARK    2  A    between atoms: C_2  and  O_3
REMARK    3  A    between atoms: C_2  and  C_4
REMARK    4  A    between atoms: C_6  and  C_7
REMARK    5  A    between atoms: C_11  and  C_12
REMARK    6  A    between atoms: C_12  and  O_13
REMARK    7  A    between atoms: C_15  and  C_16
REMARK    8  A    between atoms: C_22  and  C_24
REMARK                            x       y       z     vdW  Elec       q    Type
REMARK                         _______ _______ _______ _____ _____    ______ ____
ROOT
ATOM      1  C   UNL     1       2.718   3.565  20.004  0.00  0.00    +0.000 A 
ATOM      2  N   UNL     1       3.809   3.749  19.292  0.00  0.00    +0.000 NA
ATOM      3  C   UNL     1       3.881   5.067  18.856  0.00  0.00    +0.000 A 
ATOM      4  C   UNL     1       2.816   5.883  19.244  0.00  0.00    +0.000 A 
ATOM      5  S   UNL     1       1.740   4.948  20.225  0.00  0.00    +0.000 S 
ENDROOT
BRANCH   4   6
ATOM      6  C   UNL     1       2.480   7.289  18.947  0.00  0.00    +0.000 A 
ATOM      7  C   UNL     1       2.950   7.920  17.793  0.00  0.00    +0.000 A 
ATOM      8  C   UNL     1       2.532   9.209  17.529  0.00  0.00    +0.000 A 
ATOM      9  N   UNL     1       1.660   9.880  18.303  0.00  0.00    +0.000 NA
ATOM     10  C   UNL     1       1.202   9.285  19.415  0.00  0.00    +0.000 A 
ATOM     11  N   UNL     1       0.262   9.930  20.234  0.00  0.00    +0.000 N 
ATOM     12  C   UNL     1      -0.409  11.086  19.881  0.00  0.00    +0.000 C 
ATOM     13  O   UNL     1      -0.387  11.638  18.786  0.00  0.00    +0.000 OA
ATOM     14  C   UNL     1       1.632   8.019  19.795  0.00  0.00    +0.000 A 
ATOM     15  H   UNL     1       0.085   9.511  21.132  0.00  0.00    +0.000 HD
BRANCH  12  16
ATOM     16  C   UNL     1      -1.233  11.721  20.950  0.00  0.00    +0.000 A 
ATOM     17  C   UNL     1      -2.324  12.500  20.541  0.00  0.00    +0.000 A 
ATOM     18  C   UNL     1      -3.128  13.150  21.476  0.00  0.00    +0.000 A 
ATOM     19  C   UNL     1      -2.851  13.018  22.836  0.00  0.00    +0.000 A 
ATOM     20  C   UNL     1      -1.785  12.225  23.258  0.00  0.00    +0.000 A 
ATOM     21  C   UNL     1      -0.978  11.571  22.320  0.00  0.00    +0.000 A 
ENDBRANCH  12  16
ENDBRANCH   4   6
BRANCH   3  22
ATOM     22  C   UNL     1       4.999   5.467  18.005  0.00  0.00    +0.000 A 
ATOM     23  C   UNL     1       6.051   6.211  18.559  0.00  0.00    +0.000 A 
ATOM     24  C   UNL     1       7.165   6.549  17.788  0.00  0.00    +0.000 A 
ATOM     25  C   UNL     1       7.246   6.134  16.460  0.00  0.00    +0.000 A 
ATOM     26  C   UNL     1       6.204   5.395  15.882  0.00  0.00    +0.000 A 
ATOM     27  C   UNL     1       5.067   5.107  16.652  0.00  0.00    +0.000 A 
BRANCH  26  28
ATOM     28  C   UNL     1       6.312   4.901  14.465  0.00  0.00    +0.000 C 
BRANCH  28  29
ATOM     29  O   UNL     1       6.278   3.484  14.434  0.00  0.00    +0.000 OA
ATOM     30  H   UNL     1       7.140   3.176  14.762  0.00  0.00    +0.000 HD
ENDBRANCH  28  29
ENDBRANCH  26  28
ENDBRANCH   3  22
BRANCH   1  32
ATOM     31  C   UNL     1       1.388   2.420  21.767  0.00  0.00    +0.000 C 
ATOM     32  C   UNL     1       2.305   2.236  20.568  0.00  0.00    +0.000 C 
BRANCH  32  33
ATOM     33  O   UNL     1       1.589   1.533  19.547  0.00  0.00    +0.000 OA
ATOM     34  H   UNL     1       1.429   0.637  19.900  0.00  0.00    +0.000 HD
ENDBRANCH  32  33
ENDBRANCH   1  32
TORSDOF 7
ENDMDL
MODEL 5
REMARK VINA RESULT:      -8.0      5.375      8.174
REMARK  Name = 
REMARK  8 active torsions:
REMARK  status: ('A' for Active; 'I' for Inactive)
REMARK    1  A    between atoms: C_1  and  C_2
REMARK    2  A    between atoms: C_2  and  O_3
REMARK    3  A    between atoms: C_2  and  C_4
REMARK    4  A    between atoms: C_6  and  C_7
REMARK    5  A    between atoms: C_11  and  C_12
REMARK    6  A    between atoms: C_12  and  O_13
REMARK    7  A    between atoms: C_15  and  C_16
REMARK    8  A    between atoms: C_22  and  C_24
REMARK                            x       y       z     vdW  Elec       q    Type
REMARK                         _______ _______ _______ _____ _____    ______ ____
ROOT
ATOM      1  C   UNL     1       2.650   3.706  20.076  0.00  0.00    +0.000 A 
ATOM      2  N   UNL     1       3.692   3.868  19.289  0.00  0.00    +0.000 NA
ATOM      3  C   UNL     1       3.748   5.179  18.831  0.00  0.00    +0.000 A 
ATOM      4  C   UNL     1       2.720   6.012  19.279  0.00  0.00    +0.000 A 
ATOM      5  S   UNL     1       1.704   5.103  20.344  0.00  0.00    +0.000 S 
ENDROOT
BRANCH   4   6
ATOM      6  C   UNL     1       2.380   7.418  18.986  0.00  0.00    +0.000 A 
ATOM      7  C   UNL     1       2.867   8.061  17.845  0.00  0.00    +0.000 A 
ATOM      8  C   UNL     1       2.444   9.349  17.583  0.00  0.00    +0.000 A 
ATOM      9  N   UNL     1       1.554  10.008  18.345  0.00  0.00    +0.000 NA
ATOM     10  C   UNL     1       1.080   9.402  19.444  0.00  0.00    +0.000 A 
ATOM     11  N   UNL     1       0.120  10.034  20.250  0.00  0.00    +0.000 N 
ATOM     12  C   UNL     1      -0.553  11.188  19.893  0.00  0.00    +0.000 C 
ATOM     13  O   UNL     1      -0.515  11.748  18.803  0.00  0.00    +0.000 OA
ATOM     14  C   UNL     1       1.512   8.135  19.823  0.00  0.00    +0.000 A 
ATOM     15  H   UNL     1      -0.070   9.607  21.142  0.00  0.00    +0.000 HD
BRANCH  12  16
ATOM     16  C   UNL     1      -1.400  11.810  20.952  0.00  0.00    +0.000 A 
ATOM     17  C   UNL     1      -0.967  11.678  22.278  0.00  0.00    +0.000 A 
ATOM     18  C   UNL     1      -1.715  12.207  23.330  0.00  0.00    +0.000 A 
ATOM     19  C   UNL     1      -2.905  12.882  23.060  0.00  0.00    +0.000 A 
ATOM     20  C   UNL     1      -3.333  13.043  21.743  0.00  0.00    +0.000 A 
ATOM     21  C   UNL     1      -2.582  12.514  20.687  0.00  0.00    +0.000 A 
ENDBRANCH  12  16
ENDBRANCH   4   6
BRANCH   3  22
ATOM     22  C   UNL     1       4.810   5.555  17.900  0.00  0.00    +0.000 A 
ATOM     23  C   UNL     1       4.771   5.075  16.583  0.00  0.00    +0.000 A 
ATOM     24  C   UNL     1       5.733   5.472  15.654  0.00  0.00    +0.000 A 
ATOM     25  C   UNL     1       6.736   6.365  16.027  0.00  0.00    +0.000 A 
ATOM     26  C   UNL     1       6.800   6.854  17.339  0.00  0.00    +0.000 A 
ATOM     27  C   UNL     1       5.858   6.407  18.277  0.00  0.00    +0.000 A 
BRANCH  26  28
ATOM     28  C   UNL     1       7.850   7.858  17.730  0.00  0.00    +0.000 C 
BRANCH  28  29
ATOM     29  O   UNL     1       8.548   7.415  18.882  0.00  0.00    +0.000 OA
ATOM     30  H   UNL     1       8.857   6.513  18.694  0.00  0.00    +0.000 HD
ENDBRANCH  28  29
ENDBRANCH  26  28
ENDBRANCH   3  22
BRANCH   1  32
ATOM     31  C   UNL     1       1.379   2.599  21.906  0.00  0.00    +0.000 C 
ATOM     32  C   UNL     1       2.263   2.390  20.686  0.00  0.00    +0.000 C 
BRANCH  32  33
ATOM     33  O   UNL     1       1.522   1.656  19.704  0.00  0.00    +0.000 OA
ATOM     34  H   UNL     1       1.674   0.713  19.903  0.00  0.00    +0.000 HD
ENDBRANCH  32  33
ENDBRANCH   1  32
TORSDOF 7
ENDMDL
MODEL 6
REMARK VINA RESULT:      -7.9      7.097      9.877
REMARK  Name = 
REMARK  8 active torsions:
REMARK  status: ('A' for Active; 'I' for Inactive)
REMARK    1  A    between atoms: C_1  and  C_2
REMARK    2  A    between atoms: C_2  and  O_3
REMARK    3  A    between atoms: C_2  and  C_4
REMARK    4  A    between atoms: C_6  and  C_7
REMARK    5  A    between atoms: C_11  and  C_12
REMARK    6  A    between atoms: C_12  and  O_13
REMARK    7  A    between atoms: C_15  and  C_16
REMARK    8  A    between atoms: C_22  and  C_24
REMARK                            x       y       z     vdW  Elec       q    Type
REMARK                         _______ _______ _______ _____ _____    ______ ____
ROOT
ATOM      1  C   UNL     1      -2.837  11.305  17.443  0.00  0.00    +0.000 A 
ATOM      2  N   UNL     1      -2.709  12.082  18.497  0.00  0.00    +0.000 NA
ATOM      3  C   UNL     1      -1.685  11.619  19.314  0.00  0.00    +0.000 A 
ATOM      4  C   UNL     1      -1.038  10.465  18.864  0.00  0.00    +0.000 A 
ATOM      5  S   UNL     1      -1.729  10.009  17.345  0.00  0.00    +0.000 S 
ENDROOT
BRANCH   4   6
ATOM      6  C   UNL     1       0.031   9.631  19.447  0.00  0.00    +0.000 A 
ATOM      7  C   UNL     1       0.092   9.388  20.822  0.00  0.00    +0.000 A 
ATOM      8  C   UNL     1       1.065   8.531  21.297  0.00  0.00    +0.000 A 
ATOM      9  N   UNL     1       1.935   7.882  20.502  0.00  0.00    +0.000 NA
ATOM     10  C   UNL     1       1.886   8.108  19.180  0.00  0.00    +0.000 A 
ATOM     11  N   UNL     1       2.747   7.424  18.307  0.00  0.00    +0.000 N 
ATOM     12  C   UNL     1       3.538   6.354  18.679  0.00  0.00    +0.000 C 
ATOM     13  O   UNL     1       3.516   5.770  19.757  0.00  0.00    +0.000 OA
ATOM     14  C   UNL     1       0.988   9.014  18.628  0.00  0.00    +0.000 A 
ATOM     15  H   UNL     1       2.779   7.756  17.357  0.00  0.00    +0.000 HD
BRANCH  12  16
ATOM     16  C   UNL     1       4.517   5.874  17.661  0.00  0.00    +0.000 A 
ATOM     17  C   UNL     1       4.234   4.660  17.021  0.00  0.00    +0.000 A 
ATOM     18  C   UNL     1       5.112   4.128  16.077  0.00  0.00    +0.000 A 
ATOM     19  C   UNL     1       6.281   4.815  15.758  0.00  0.00    +0.000 A 
ATOM     20  C   UNL     1       6.562   6.038  16.367  0.00  0.00    +0.000 A 
ATOM     21  C   UNL     1       5.682   6.572  17.314  0.00  0.00    +0.000 A 
ENDBRANCH  12  16
ENDBRANCH   4   6
BRANCH   3  22
ATOM     22  C   UNL     1      -1.412  12.319  20.568  0.00  0.00    +0.000 A 
ATOM     23  C   UNL     1      -0.221  13.046  20.702  0.00  0.00    +0.000 A 
ATOM     24  C   UNL     1       0.036  13.780  21.861  0.00  0.00    +0.000 A 
ATOM     25  C   UNL     1      -0.902  13.808  22.892  0.00  0.00    +0.000 A 
ATOM     26  C   UNL     1      -2.097  13.083  22.783  0.00  0.00    +0.000 A 
ATOM     27  C   UNL     1      -2.320  12.307  21.636  0.00  0.00    +0.000 A 
BRANCH  26  28
ATOM     28  C   UNL     1      -3.134  13.151  23.871  0.00  0.00    +0.000 C 
BRANCH  28  29
ATOM     29  O   UNL     1      -3.814  11.912  23.981  0.00  0.00    +0.000 OA
ATOM     30  H   UNL     1      -3.320  11.272  23.442  0.00  0.00    +0.000 HD
ENDBRANCH  28  29
ENDBRANCH  26  28
ENDBRANCH   3  22
BRANCH   1  32
ATOM     31  C   UNL     1      -3.644  10.576  15.206  0.00  0.00    +0.000 C 
ATOM     32  C   UNL     1      -3.897  11.489  16.396  0.00  0.00    +0.000 C 
BRANCH  32  33
ATOM     33  O   UNL     1      -5.155  11.140  16.983  0.00  0.00    +0.000 OA
ATOM     34  H   UNL     1      -4.956  10.469  17.663  0.00  0.00    +0.000 HD
ENDBRANCH  32  33
ENDBRANCH   1  32
TORSDOF 7
ENDMDL
MODEL 7
REMARK VINA RESULT:      -7.9      6.050      9.524
REMARK  Name = 
REMARK  8 active torsions:
REMARK  status: ('A' for Active; 'I' for Inactive)
REMARK    1  A    between atoms: C_1  and  C_2
REMARK    2  A    between atoms: C_2  and  O_3
REMARK    3  A    between atoms: C_2  and  C_4
REMARK    4  A    between atoms: C_6  and  C_7
REMARK    5  A    between atoms: C_11  and  C_12
REMARK    6  A    between atoms: C_12  and  O_13
REMARK    7  A    between atoms: C_15  and  C_16
REMARK    8  A    between atoms: C_22  and  C_24
REMARK                            x       y       z     vdW  Elec       q    Type
REMARK                         _______ _______ _______ _____ _____    ______ ____
ROOT
ATOM      1  C   UNL     1      -2.331  11.259  17.226  0.00  0.00    +0.000 A 
ATOM      2  N   UNL     1      -1.645  12.249  17.754  0.00  0.00    +0.000 NA
ATOM      3  C   UNL     1      -0.560  11.755  18.469  0.00  0.00    +0.000 A 
ATOM      4  C   UNL     1      -0.439  10.364  18.482  0.00  0.00    +0.000 A 
ATOM      5  S   UNL     1      -1.710   9.695  17.517  0.00  0.00    +0.000 S 
ENDROOT
BRANCH   4   6
ATOM      6  C   UNL     1       0.507   9.453  19.157  0.00  0.00    +0.000 A 
ATOM      7  C   UNL     1       0.403   9.183  20.524  0.00  0.00    +0.000 A 
ATOM      8  C   UNL     1       1.264   8.258  21.081  0.00  0.00    +0.000 A 
ATOM      9  N   UNL     1       2.174   7.569  20.369  0.00  0.00    +0.000 NA
ATOM     10  C   UNL     1       2.284   7.821  19.056  0.00  0.00    +0.000 A 
ATOM     11  N   UNL     1       3.192   7.100  18.264  0.00  0.00    +0.000 N 
ATOM     12  C   UNL     1       3.871   5.975  18.694  0.00  0.00    +0.000 C 
ATOM     13  O   UNL     1       3.696   5.374  19.749  0.00  0.00    +0.000 OA
ATOM     14  C   UNL     1       1.509   8.792  18.432  0.00  0.00    +0.000 A 
ATOM     15  H   UNL     1       3.349   7.446  17.332  0.00  0.00    +0.000 HD
BRANCH  12  16
ATOM     16  C   UNL     1       4.925   5.453  17.777  0.00  0.00    +0.000 A 
ATOM     17  C   UNL     1       6.221   5.325  18.298  0.00  0.00    +0.000 A 
ATOM     18  C   UNL     1       7.270   4.871  17.499  0.00  0.00    +0.000 A 
ATOM     19  C   UNL     1       7.028   4.530  16.169  0.00  0.00    +0.000 A 
ATOM     20  C   UNL     1       5.739   4.626  15.646  0.00  0.00    +0.000 A 
ATOM     21  C   UNL     1       4.685   5.081  16.448  0.00  0.00    +0.000 A 
ENDBRANCH  12  16
ENDBRANCH   4   6
BRANCH   3  22
ATOM     22  C   UNL     1       0.306  12.696  19.176  0.00  0.00    +0.000 A 
ATOM     23  C   UNL     1       0.115  12.907  20.549  0.00  0.00    +0.000 A 
ATOM     24  C   UNL     1       0.969  13.748  21.264  0.00  0.00    +0.000 A 
ATOM     25  C   UNL     1       2.034  14.373  20.617  0.00  0.00    +0.000 A 
ATOM     26  C   UNL     1       2.241  14.183  19.244  0.00  0.00    +0.000 A 
ATOM     27  C   UNL     1       1.345  13.378  18.527  0.00  0.00    +0.000 A 
BRANCH  26  28
ATOM     28  C   UNL     1       3.420  14.816  18.555  0.00  0.00    +0.000 C 
BRANCH  28  29
ATOM     29  O   UNL     1       4.097  13.858  17.760  0.00  0.00    +0.000 OA
ATOM     30  H   UNL     1       3.565  13.733  16.955  0.00  0.00    +0.000 HD
ENDBRANCH  28  29
ENDBRANCH  26  28
ENDBRANCH   3  22
BRANCH   1  32
ATOM     31  C   UNL     1      -3.582  10.614  15.175  0.00  0.00    +0.000 C 
ATOM     32  C   UNL     1      -3.601  11.447  16.448  0.00  0.00    +0.000 C 
BRANCH  32  33
ATOM     33  O   UNL     1      -4.686  11.002  17.270  0.00  0.00    +0.000 OA
ATOM     34  H   UNL     1      -5.238  10.433  16.700  0.00  0.00    +0.000 HD
ENDBRANCH  32  33
ENDBRANCH   1  32
TORSDOF 7
ENDMDL
MODEL 8
REMARK VINA RESULT:      -7.9      6.803     10.308
REMARK  Name = 
REMARK  8 active torsions:
REMARK  status: ('A' for Active; 'I' for Inactive)
REMARK    1  A    between atoms: C_1  and  C_2
REMARK    2  A    between atoms: C_2  and  O_3
REMARK    3  A    between atoms: C_2  and  C_4
REMARK    4  A    between atoms: C_6  and  C_7
REMARK    5  A    between atoms: C_11  and  C_12
REMARK    6  A    between atoms: C_12  and  O_13
REMARK    7  A    between atoms: C_15  and  C_16
REMARK    8  A    between atoms: C_22  and  C_24
REMARK                            x       y       z     vdW  Elec       q    Type
REMARK                         _______ _______ _______ _____ _____    ______ ____
ROOT
ATOM      1  C   UNL     1       0.710  14.399  19.313  0.00  0.00    +0.000 A 
ATOM      2  N   UNL     1      -0.345  13.877  18.725  0.00  0.00    +0.000 NA
ATOM      3  C   UNL     1      -0.501  12.550  19.107  0.00  0.00    +0.000 A 
ATOM      4  C   UNL     1       0.464  12.068  19.995  0.00  0.00    +0.000 A 
ATOM      5  S   UNL     1       1.550  13.360  20.376  0.00  0.00    +0.000 S 
ENDROOT
BRANCH   4   6
ATOM      6  C   UNL     1       0.697  10.734  20.583  0.00  0.00    +0.000 A 
ATOM      7  C   UNL     1       0.146  10.379  21.816  0.00  0.00    +0.000 A 
ATOM      8  C   UNL     1       0.331   9.089  22.273  0.00  0.00    +0.000 A 
ATOM      9  N   UNL     1       0.979   8.140  21.575  0.00  0.00    +0.000 NA
ATOM     10  C   UNL     1       1.513   8.470  20.389  0.00  0.00    +0.000 A 
ATOM     11  N   UNL     1       2.166   7.503  19.607  0.00  0.00    +0.000 N 
ATOM     12  C   UNL     1       2.135   6.146  19.867  0.00  0.00    +0.000 C 
ATOM     13  O   UNL     1       1.453   5.580  20.714  0.00  0.00    +0.000 OA
ATOM     14  C   UNL     1       1.440   9.766  19.892  0.00  0.00    +0.000 A 
ATOM     15  H   UNL     1       2.687   7.843  18.816  0.00  0.00    +0.000 HD
BRANCH  12  16
ATOM     16  C   UNL     1       3.033   5.296  19.033  0.00  0.00    +0.000 A 
ATOM     17  C   UNL     1       2.433   4.524  18.029  0.00  0.00    +0.000 A 
ATOM     18  C   UNL     1       3.198   3.681  17.223  0.00  0.00    +0.000 A 
ATOM     19  C   UNL     1       4.578   3.612  17.410  0.00  0.00    +0.000 A 
ATOM     20  C   UNL     1       5.191   4.395  18.387  0.00  0.00    +0.000 A 
ATOM     21  C   UNL     1       4.424   5.241  19.195  0.00  0.00    +0.000 A 
ENDBRANCH  12  16
ENDBRANCH   4   6
BRANCH   3  22
ATOM     22  C   UNL     1      -1.593  11.773  18.525  0.00  0.00    +0.000 A 
ATOM     23  C   UNL     1      -1.294  10.646  17.746  0.00  0.00    +0.000 A 
ATOM     24  C   UNL     1      -2.316   9.845  17.234  0.00  0.00    +0.000 A 
ATOM     25  C   UNL     1      -3.647  10.153  17.509  0.00  0.00    +0.000 A 
ATOM     26  C   UNL     1      -3.971  11.278  18.280  0.00  0.00    +0.000 A 
ATOM     27  C   UNL     1      -2.937  12.104  18.744  0.00  0.00    +0.000 A 
BRANCH  26  28
ATOM     28  C   UNL     1      -5.405  11.583  18.621  0.00  0.00    +0.000 C 
BRANCH  28  29
ATOM     29  O   UNL     1      -6.253  11.233  17.540  0.00  0.00    +0.000 OA
ATOM     30  H   UNL     1      -5.675  11.031  16.784  0.00  0.00    +0.000 HD
ENDBRANCH  28  29
ENDBRANCH  26  28
ENDBRANCH   3  22
BRANCH   1  32
ATOM     31  C   UNL     1       2.458  15.785  18.212  0.00  0.00    +0.000 C 
ATOM     32  C   UNL     1       1.197  15.797  19.063  0.00  0.00    +0.000 C 
BRANCH  32  33
ATOM     33  O   UNL     1       0.170  16.495  18.350  0.00  0.00    +0.000 OA
ATOM     34  H   UNL     1      -0.389  16.917  19.031  0.00  0.00    +0.000 HD
ENDBRANCH  32  33
ENDBRANCH   1  32
TORSDOF 7
ENDMDL
MODEL 9
REMARK VINA RESULT:      -7.9      6.781     10.121
REMARK  Name = 
REMARK  8 active torsions:
REMARK  status: ('A' for Active; 'I' for Inactive)
REMARK    1  A    between atoms: C_1  and  C_2
REMARK    2  A    between atoms: C_2  and  O_3
REMARK    3  A    between atoms: C_2  and  C_4
REMARK    4  A    between atoms: C_6  and  C_7
REMARK    5  A    between atoms: C_11  and  C_12
REMARK    6  A    between atoms: C_12  and  O_13
REMARK    7  A    between atoms: C_15  and  C_16
REMARK    8  A    between atoms: C_22  and  C_24
REMARK                            x       y       z     vdW  Elec       q    Type
REMARK                         _______ _______ _______ _____ _____    ______ ____
ROOT
ATOM      1  C   UNL     1       0.370  14.598  19.206  0.00  0.00    +0.000 A 
ATOM      2  N   UNL     1      -0.726  14.085  18.690  0.00  0.00    +0.000 NA
ATOM      3  C   UNL     1      -0.767  12.714  18.915  0.00  0.00    +0.000 A 
ATOM      4  C   UNL     1       0.327  12.191  19.608  0.00  0.00    +0.000 A 
ATOM      5  S   UNL     1       1.390  13.494  20.015  0.00  0.00    +0.000 S 
ENDROOT
BRANCH   4   6
ATOM      6  C   UNL     1       0.700  10.814  19.988  0.00  0.00    +0.000 A 
ATOM      7  C   UNL     1       0.199  10.220  21.149  0.00  0.00    +0.000 A 
ATOM      8  C   UNL     1       0.517   8.901  21.405  0.00  0.00    +0.000 A 
ATOM      9  N   UNL     1       1.251   8.140  20.574  0.00  0.00    +0.000 NA
ATOM     10  C   UNL     1       1.738   8.699  19.456  0.00  0.00    +0.000 A 
ATOM     11  N   UNL     1       2.477   7.934  18.539  0.00  0.00    +0.000 N 
ATOM     12  C   UNL     1       2.586   6.557  18.590  0.00  0.00    +0.000 C 
ATOM     13  O   UNL     1       1.972   5.802  19.336  0.00  0.00    +0.000 OA
ATOM     14  C   UNL     1       1.530  10.042  19.161  0.00  0.00    +0.000 A 
ATOM     15  H   UNL     1       2.954   8.441  17.813  0.00  0.00    +0.000 HD
BRANCH  12  16
ATOM     16  C   UNL     1       3.557   5.939  17.641  0.00  0.00    +0.000 A 
ATOM     17  C   UNL     1       3.528   4.543  17.513  0.00  0.00    +0.000 A 
ATOM     18  C   UNL     1       4.421   3.885  16.669  0.00  0.00    +0.000 A 
ATOM     19  C   UNL     1       5.349   4.622  15.934  0.00  0.00    +0.000 A 
ATOM     20  C   UNL     1       5.370   6.013  16.031  0.00  0.00    +0.000 A 
ATOM     21  C   UNL     1       4.474   6.675  16.878  0.00  0.00    +0.000 A 
ENDBRANCH  12  16
ENDBRANCH   4   6
BRANCH   3  22
ATOM     22  C   UNL     1      -1.886  11.944  18.377  0.00  0.00    +0.000 A 
ATOM     23  C   UNL     1      -3.129  11.996  19.024  0.00  0.00    +0.000 A 
ATOM     24  C   UNL     1      -4.233  11.326  18.495  0.00  0.00    +0.000 A 
ATOM     25  C   UNL     1      -4.111  10.610  17.305  0.00  0.00    +0.000 A 
ATOM     26  C   UNL     1      -2.877  10.538  16.643  0.00  0.00    +0.000 A 
ATOM     27  C   UNL     1      -1.763  11.172  17.213  0.00  0.00    +0.000 A 
BRANCH  26  28
ATOM     28  C   UNL     1      -2.754   9.810  15.332  0.00  0.00    +0.000 C 
BRANCH  28  29
ATOM     29  O   UNL     1      -3.922  10.002  14.552  0.00  0.00    +0.000 OA
ATOM     30  H   UNL     1      -3.866   9.381  13.805  0.00  0.00    +0.000 HD
ENDBRANCH  28  29
ENDBRANCH  26  28
ENDBRANCH   3  22
BRANCH   1  32
ATOM     31  C   UNL     1      -0.403  16.861  18.519  0.00  0.00    +0.000 C 
ATOM     32  C   UNL     1       0.752  16.045  19.079  0.00  0.00    +0.000 C 
BRANCH  32  33
ATOM     33  O   UNL     1       1.063  16.529  20.389  0.00  0.00    +0.000 OA
ATOM     34  H   UNL     1       0.505  16.017  21.004  0.00  0.00    +0.000 HD
ENDBRANCH  32  33
ENDBRANCH   1  32
TORSDOF 7
ENDMDL
