MODEL 1
REMARK VINA RESULT:      -6.6      0.000      0.000
REMARK  Name = 
REMARK  9 active torsions:
REMARK  status: ('A' for Active; 'I' for Inactive)
REMARK    1  A    between atoms: C_2  and  C_3
REMARK    2  A    between atoms: C_3  and  C_4
REMARK    3  A    between atoms: C_8  and  O_9
REMARK    4  A    between atoms: O_9  and  C_10
REMARK    5  A    between atoms: C_10  and  C_11
REMARK    6  A    between atoms: C_11  and  C_12
REMARK    7  A    between atoms: C_12  and  C_13
REMARK    8  A    between atoms: C_12  and  C_14
REMARK    9  A    between atoms: C_15  and  O_16
REMARK                            x       y       z     vdW  Elec       q    Type
REMARK                         _______ _______ _______ _____ _____    ______ ____
ROOT
ATOM      1  C   UNL     1       6.704   6.327  17.998  0.00  0.00    +0.000 A 
ATOM      2  C   UNL     1       5.840   6.553  16.911  0.00  0.00    +0.000 A 
ATOM      3  C   UNL     1       4.728   5.738  16.693  0.00  0.00    +0.000 A 
ATOM      4  C   UNL     1       4.434   4.709  17.575  0.00  0.00    +0.000 A 
ATOM      5  C   UNL     1       5.241   4.482  18.697  0.00  0.00    +0.000 A 
ATOM      6  C   UNL     1       6.376   5.289  18.886  0.00  0.00    +0.000 A 
ENDROOT
BRANCH   6   7
ATOM      7  O   UNL     1       7.181   5.060  19.974  0.00  0.00    +0.000 OA
ATOM      8  H   UNL     1       7.802   4.363  19.691  0.00  0.00    +0.000 HD
ENDBRANCH   6   7
BRANCH   1   9
ATOM      9  C   UNL     1       7.956   7.163  18.191  0.00  0.00    +0.000 C 
BRANCH   9  11
ATOM     10  C   UNL     1       8.523   9.625  18.254  0.00  0.00    +0.000 C 
ATOM     11  C   UNL     1       7.870   8.582  17.692  0.00  0.00    +0.000 C 
ENDBRANCH   9  11
ENDBRANCH   1   9
BRANCH   5  12
ATOM     12  O   UNL     1       5.001   3.518  19.656  0.00  0.00    +0.000 OA
BRANCH  12  13
ATOM     13  C   UNL     1       3.749   2.848  19.481  0.00  0.00    +0.000 C 
BRANCH  13  14
ATOM     14  C   UNL     1       2.951   2.778  20.775  0.00  0.00    +0.000 C 
BRANCH  14  15
ATOM     15  C   UNL     1       1.531   3.356  20.592  0.00  0.00    +0.000 C 
ATOM     16  C   UNL     1       1.515   4.889  20.561  0.00  0.00    +0.000 C 
ATOM     17  C   UNL     1       0.902   2.810  19.312  0.00  0.00    +0.000 C 
ENDBRANCH  14  15
ENDBRANCH  13  14
ENDBRANCH  12  13
ENDBRANCH   5  12
TORSDOF 7
ENDMDL
MODEL 2
REMARK VINA RESULT:      -6.4      1.839      5.863
REMARK  Name = 
REMARK  9 active torsions:
REMARK  status: ('A' for Active; 'I' for Inactive)
REMARK    1  A    between atoms: C_2  and  C_3
REMARK    2  A    between atoms: C_3  and  C_4
REMARK    3  A    between atoms: C_8  and  O_9
REMARK    4  A    between atoms: O_9  and  C_10
REMARK    5  A    between atoms: C_10  and  C_11
REMARK    6  A    between atoms: C_11  and  C_12
REMARK    7  A    between atoms: C_12  and  C_13
REMARK    8  A    between atoms: C_12  and  C_14
REMARK    9  A    between atoms: C_15  and  O_16
REMARK                            x       y       z     vdW  Elec       q    Type
REMARK                         _______ _______ _______ _____ _____    ______ ____
ROOT
ATOM      1  C   UNL     1       2.300   3.794  18.487  0.00  0.00    +0.000 A 
ATOM      2  C   UNL     1       2.013   5.170  18.537  0.00  0.00    +0.000 A 
ATOM      3  C   UNL     1       2.876   6.107  17.965  0.00  0.00    +0.000 A 
ATOM      4  C   UNL     1       4.018   5.687  17.299  0.00  0.00    +0.000 A 
ATOM      5  C   UNL     1       4.313   4.323  17.184  0.00  0.00    +0.000 A 
ATOM      6  C   UNL     1       3.454   3.393  17.794  0.00  0.00    +0.000 A 
ENDROOT
BRANCH   6   7
ATOM      7  O   UNL     1       3.748   2.055  17.700  0.00  0.00    +0.000 OA
ATOM      8  H   UNL     1       2.907   1.625  17.460  0.00  0.00    +0.000 HD
ENDBRANCH   6   7
BRANCH   1   9
ATOM      9  C   UNL     1       1.403   2.781  19.176  0.00  0.00    +0.000 C 
BRANCH   9  11
ATOM     10  C   UNL     1       2.090   2.930  21.604  0.00  0.00    +0.000 C 
ATOM     11  C   UNL     1       1.147   3.034  20.639  0.00  0.00    +0.000 C 
ENDBRANCH   9  11
ENDBRANCH   1   9
BRANCH   5  12
ATOM     12  O   UNL     1       5.396   3.808  16.500  0.00  0.00    +0.000 OA
BRANCH  12  13
ATOM     13  C   UNL     1       6.447   4.760  16.310  0.00  0.00    +0.000 C 
BRANCH  13  14
ATOM     14  C   UNL     1       7.590   4.555  17.294  0.00  0.00    +0.000 C 
BRANCH  14  15
ATOM     15  C   UNL     1       7.764   5.780  18.218  0.00  0.00    +0.000 C 
ATOM     16  C   UNL     1       7.332   7.091  17.551  0.00  0.00    +0.000 C 
ATOM     17  C   UNL     1       6.976   5.578  19.511  0.00  0.00    +0.000 C 
ENDBRANCH  14  15
ENDBRANCH  13  14
ENDBRANCH  12  13
ENDBRANCH   5  12
TORSDOF 7
ENDMDL
MODEL 3
REMARK VINA RESULT:      -6.3      1.062      1.226
REMARK  Name = 
REMARK  9 active torsions:
REMARK  status: ('A' for Active; 'I' for Inactive)
REMARK    1  A    between atoms: C_2  and  C_3
REMARK    2  A    between atoms: C_3  and  C_4
REMARK    3  A    between atoms: C_8  and  O_9
REMARK    4  A    between atoms: O_9  and  C_10
REMARK    5  A    between atoms: C_10  and  C_11
REMARK    6  A    between atoms: C_11  and  C_12
REMARK    7  A    between atoms: C_12  and  C_13
REMARK    8  A    between atoms: C_12  and  C_14
REMARK    9  A    between atoms: C_15  and  O_16
REMARK                            x       y       z     vdW  Elec       q    Type
REMARK                         _______ _______ _______ _____ _____    ______ ____
ROOT
ATOM      1  C   UNL     1       6.748   5.824  17.587  0.00  0.00    +0.000 A 
ATOM      2  C   UNL     1       6.598   5.608  16.205  0.00  0.00    +0.000 A 
ATOM      3  C   UNL     1       5.692   4.664  15.718  0.00  0.00    +0.000 A 
ATOM      4  C   UNL     1       4.892   3.947  16.595  0.00  0.00    +0.000 A 
ATOM      5  C   UNL     1       4.976   4.169  17.976  0.00  0.00    +0.000 A 
ATOM      6  C   UNL     1       5.915   5.097  18.454  0.00  0.00    +0.000 A 
ENDROOT
BRANCH   6   7
ATOM      7  O   UNL     1       6.014   5.306  19.808  0.00  0.00    +0.000 OA
ATOM      8  H   UNL     1       6.935   5.079  20.034  0.00  0.00    +0.000 HD
ENDBRANCH   6   7
BRANCH   1   9
ATOM      9  C   UNL     1       7.787   6.794  18.120  0.00  0.00    +0.000 C 
BRANCH   9  11
ATOM     10  C   UNL     1       8.391   9.247  18.081  0.00  0.00    +0.000 C 
ATOM     11  C   UNL     1       7.699   8.198  17.582  0.00  0.00    +0.000 C 
ENDBRANCH   9  11
ENDBRANCH   1   9
BRANCH   5  12
ATOM     12  O   UNL     1       4.188   3.542  18.921  0.00  0.00    +0.000 OA
BRANCH  12  13
ATOM     13  C   UNL     1       3.387   2.488  18.378  0.00  0.00    +0.000 C 
BRANCH  13  14
ATOM     14  C   UNL     1       2.138   2.232  19.211  0.00  0.00    +0.000 C 
BRANCH  14  15
ATOM     15  C   UNL     1       2.036   3.220  20.392  0.00  0.00    +0.000 C 
ATOM     16  C   UNL     1       0.951   4.283  20.182  0.00  0.00    +0.000 C 
ATOM     17  C   UNL     1       1.769   2.462  21.690  0.00  0.00    +0.000 C 
ENDBRANCH  14  15
ENDBRANCH  13  14
ENDBRANCH  12  13
ENDBRANCH   5  12
TORSDOF 7
ENDMDL
MODEL 4
REMARK VINA RESULT:      -6.3      1.817      5.728
REMARK  Name = 
REMARK  9 active torsions:
REMARK  status: ('A' for Active; 'I' for Inactive)
REMARK    1  A    between atoms: C_2  and  C_3
REMARK    2  A    between atoms: C_3  and  C_4
REMARK    3  A    between atoms: C_8  and  O_9
REMARK    4  A    between atoms: O_9  and  C_10
REMARK    5  A    between atoms: C_10  and  C_11
REMARK    6  A    between atoms: C_11  and  C_12
REMARK    7  A    between atoms: C_12  and  C_13
REMARK    8  A    between atoms: C_12  and  C_14
REMARK    9  A    between atoms: C_15  and  O_16
REMARK                            x       y       z     vdW  Elec       q    Type
REMARK                         _______ _______ _______ _____ _____    ______ ____
ROOT
ATOM      1  C   UNL     1       2.924   3.725  18.824  0.00  0.00    +0.000 A 
ATOM      2  C   UNL     1       2.182   4.796  18.295  0.00  0.00    +0.000 A 
ATOM      3  C   UNL     1       2.747   6.065  18.157  0.00  0.00    +0.000 A 
ATOM      4  C   UNL     1       4.072   6.280  18.505  0.00  0.00    +0.000 A 
ATOM      5  C   UNL     1       4.860   5.228  18.989  0.00  0.00    +0.000 A 
ATOM      6  C   UNL     1       4.268   3.964  19.154  0.00  0.00    +0.000 A 
ENDROOT
BRANCH   6   7
ATOM      7  O   UNL     1       5.031   2.932  19.645  0.00  0.00    +0.000 OA
ATOM      8  H   UNL     1       5.498   3.304  20.415  0.00  0.00    +0.000 HD
ENDBRANCH   6   7
BRANCH   1   9
ATOM      9  C   UNL     1       2.287   2.365  19.047  0.00  0.00    +0.000 C 
BRANCH   9  11
ATOM     10  C   UNL     1       1.491   2.734  21.417  0.00  0.00    +0.000 C 
ATOM     11  C   UNL     1       1.268   2.302  20.154  0.00  0.00    +0.000 C 
ENDBRANCH   9  11
ENDBRANCH   1   9
BRANCH   5  12
ATOM     12  O   UNL     1       6.198   5.332  19.313  0.00  0.00    +0.000 OA
BRANCH  12  13
ATOM     13  C   UNL     1       7.012   5.756  18.216  0.00  0.00    +0.000 C 
BRANCH  13  14
ATOM     14  C   UNL     1       7.471   4.586  17.357  0.00  0.00    +0.000 C 
BRANCH  14  15
ATOM     15  C   UNL     1       6.835   4.635  15.952  0.00  0.00    +0.000 C 
ATOM     16  C   UNL     1       5.738   3.580  15.762  0.00  0.00    +0.000 C 
ATOM     17  C   UNL     1       6.263   6.024  15.682  0.00  0.00    +0.000 C 
ENDBRANCH  14  15
ENDBRANCH  13  14
ENDBRANCH  12  13
ENDBRANCH   5  12
TORSDOF 7
ENDMDL
MODEL 5
REMARK VINA RESULT:      -6.1      1.399      1.654
REMARK  Name = 
REMARK  9 active torsions:
REMARK  status: ('A' for Active; 'I' for Inactive)
REMARK    1  A    between atoms: C_2  and  C_3
REMARK    2  A    between atoms: C_3  and  C_4
REMARK    3  A    between atoms: C_8  and  O_9
REMARK    4  A    between atoms: O_9  and  C_10
REMARK    5  A    between atoms: C_10  and  C_11
REMARK    6  A    between atoms: C_11  and  C_12
REMARK    7  A    between atoms: C_12  and  C_13
REMARK    8  A    between atoms: C_12  and  C_14
REMARK    9  A    between atoms: C_15  and  O_16
REMARK                            x       y       z     vdW  Elec       q    Type
REMARK                         _______ _______ _______ _____ _____    ______ ____
ROOT
ATOM      1  C   UNL     1       6.692   5.556  17.495  0.00  0.00    +0.000 A 
ATOM      2  C   UNL     1       7.012   5.001  16.242  0.00  0.00    +0.000 A 
ATOM      3  C   UNL     1       6.184   4.051  15.643  0.00  0.00    +0.000 A 
ATOM      4  C   UNL     1       5.003   3.666  16.260  0.00  0.00    +0.000 A 
ATOM      5  C   UNL     1       4.624   4.232  17.484  0.00  0.00    +0.000 A 
ATOM      6  C   UNL     1       5.484   5.162  18.092  0.00  0.00    +0.000 A 
ENDROOT
BRANCH   6   7
ATOM      7  O   UNL     1       5.126   5.706  19.301  0.00  0.00    +0.000 OA
ATOM      8  H   UNL     1       4.604   5.015  19.748  0.00  0.00    +0.000 HD
ENDBRANCH   6   7
BRANCH   1   9
ATOM      9  C   UNL     1       7.632   6.529  18.184  0.00  0.00    +0.000 C 
BRANCH   9  11
ATOM     10  C   UNL     1       8.330   8.957  18.130  0.00  0.00    +0.000 C 
ATOM     11  C   UNL     1       7.726   7.894  17.552  0.00  0.00    +0.000 C 
ENDBRANCH   9  11
ENDBRANCH   1   9
BRANCH   5  12
ATOM     12  O   UNL     1       3.447   3.951  18.148  0.00  0.00    +0.000 OA
BRANCH  12  13
ATOM     13  C   UNL     1       3.453   2.673  18.790  0.00  0.00    +0.000 C 
BRANCH  13  14
ATOM     14  C   UNL     1       2.044   2.155  19.049  0.00  0.00    +0.000 C 
BRANCH  14  15
ATOM     15  C   UNL     1       1.511   2.637  20.415  0.00  0.00    +0.000 C 
ATOM     16  C   UNL     1       2.599   2.676  21.495  0.00  0.00    +0.000 C 
ATOM     17  C   UNL     1       0.877   4.019  20.275  0.00  0.00    +0.000 C 
ENDBRANCH  14  15
ENDBRANCH  13  14
ENDBRANCH  12  13
ENDBRANCH   5  12
TORSDOF 7
ENDMDL
MODEL 6
REMARK VINA RESULT:      -6.1      2.882      6.221
REMARK  Name = 
REMARK  9 active torsions:
REMARK  status: ('A' for Active; 'I' for Inactive)
REMARK    1  A    between atoms: C_2  and  C_3
REMARK    2  A    between atoms: C_3  and  C_4
REMARK    3  A    between atoms: C_8  and  O_9
REMARK    4  A    between atoms: O_9  and  C_10
REMARK    5  A    between atoms: C_10  and  C_11
REMARK    6  A    between atoms: C_11  and  C_12
REMARK    7  A    between atoms: C_12  and  C_13
REMARK    8  A    between atoms: C_12  and  C_14
REMARK    9  A    between atoms: C_15  and  O_16
REMARK                            x       y       z     vdW  Elec       q    Type
REMARK                         _______ _______ _______ _____ _____    ______ ____
ROOT
ATOM      1  C   UNL     1       3.000   4.746  17.922  0.00  0.00    +0.000 A 
ATOM      2  C   UNL     1       2.956   6.151  17.898  0.00  0.00    +0.000 A 
ATOM      3  C   UNL     1       4.041   6.898  17.436  0.00  0.00    +0.000 A 
ATOM      4  C   UNL     1       5.173   6.258  16.954  0.00  0.00    +0.000 A 
ATOM      5  C   UNL     1       5.237   4.860  16.915  0.00  0.00    +0.000 A 
ATOM      6  C   UNL     1       4.151   4.121  17.414  0.00  0.00    +0.000 A 
ENDROOT
BRANCH   6   7
ATOM      7  O   UNL     1       4.215   2.749  17.395  0.00  0.00    +0.000 OA
ATOM      8  H   UNL     1       4.660   2.526  16.557  0.00  0.00    +0.000 HD
ENDBRANCH   6   7
BRANCH   1   9
ATOM      9  C   UNL     1       1.852   3.935  18.496  0.00  0.00    +0.000 C 
BRANCH   9  11
ATOM     10  C   UNL     1       2.283   3.902  20.985  0.00  0.00    +0.000 C 
ATOM     11  C   UNL     1       1.503   4.233  19.931  0.00  0.00    +0.000 C 
ENDBRANCH   9  11
ENDBRANCH   1   9
BRANCH   5  12
ATOM     12  O   UNL     1       6.297   4.136  16.408  0.00  0.00    +0.000 OA
BRANCH  12  13
ATOM     13  C   UNL     1       6.700   4.564  15.104  0.00  0.00    +0.000 C 
BRANCH  13  14
ATOM     14  C   UNL     1       5.613   4.330  14.063  0.00  0.00    +0.000 C 
BRANCH  14  15
ATOM     15  C   UNL     1       6.148   3.521  12.863  0.00  0.00    +0.000 C 
ATOM     16  C   UNL     1       5.041   3.110  11.885  0.00  0.00    +0.000 C 
ATOM     17  C   UNL     1       7.216   4.322  12.122  0.00  0.00    +0.000 C 
ENDBRANCH  14  15
ENDBRANCH  13  14
ENDBRANCH  12  13
ENDBRANCH   5  12
TORSDOF 7
ENDMDL
MODEL 7
REMARK VINA RESULT:      -6.1      2.149      3.691
REMARK  Name = 
REMARK  9 active torsions:
REMARK  status: ('A' for Active; 'I' for Inactive)
REMARK    1  A    between atoms: C_2  and  C_3
REMARK    2  A    between atoms: C_3  and  C_4
REMARK    3  A    between atoms: C_8  and  O_9
REMARK    4  A    between atoms: O_9  and  C_10
REMARK    5  A    between atoms: C_10  and  C_11
REMARK    6  A    between atoms: C_11  and  C_12
REMARK    7  A    between atoms: C_12  and  C_13
REMARK    8  A    between atoms: C_12  and  C_14
REMARK    9  A    between atoms: C_15  and  O_16
REMARK                            x       y       z     vdW  Elec       q    Type
REMARK                         _______ _______ _______ _____ _____    ______ ____
ROOT
ATOM      1  C   UNL     1       5.717   4.363  16.124  0.00  0.00    +0.000 A 
ATOM      2  C   UNL     1       6.985   4.892  16.429  0.00  0.00    +0.000 A 
ATOM      3  C   UNL     1       7.332   5.218  17.741  0.00  0.00    +0.000 A 
ATOM      4  C   UNL     1       6.439   4.986  18.777  0.00  0.00    +0.000 A 
ATOM      5  C   UNL     1       5.187   4.415  18.521  0.00  0.00    +0.000 A 
ATOM      6  C   UNL     1       4.837   4.123  17.192  0.00  0.00    +0.000 A 
ENDROOT
BRANCH   6   7
ATOM      7  O   UNL     1       3.603   3.579  16.933  0.00  0.00    +0.000 OA
ATOM      8  H   UNL     1       3.074   4.310  16.566  0.00  0.00    +0.000 HD
ENDBRANCH   6   7
BRANCH   1   9
ATOM      9  C   UNL     1       5.311   4.082  14.689  0.00  0.00    +0.000 C 
BRANCH   9  11
ATOM     10  C   UNL     1       6.344   3.540  12.447  0.00  0.00    +0.000 C 
ATOM     11  C   UNL     1       6.436   4.071  13.688  0.00  0.00    +0.000 C 
ENDBRANCH   9  11
ENDBRANCH   1   9
BRANCH   5  12
ATOM     12  O   UNL     1       4.254   4.100  19.490  0.00  0.00    +0.000 OA
BRANCH  12  13
ATOM     13  C   UNL     1       3.385   5.191  19.810  0.00  0.00    +0.000 C 
BRANCH  13  14
ATOM     14  C   UNL     1       1.933   4.749  19.934  0.00  0.00    +0.000 C 
BRANCH  14  15
ATOM     15  C   UNL     1       1.822   3.217  20.084  0.00  0.00    +0.000 C 
ATOM     16  C   UNL     1       1.388   2.789  21.491  0.00  0.00    +0.000 C 
ATOM     17  C   UNL     1       0.844   2.659  19.053  0.00  0.00    +0.000 C 
ENDBRANCH  14  15
ENDBRANCH  13  14
ENDBRANCH  12  13
ENDBRANCH   5  12
TORSDOF 7
ENDMDL
MODEL 8
REMARK VINA RESULT:      -6.1      1.416      1.993
REMARK  Name = 
REMARK  9 active torsions:
REMARK  status: ('A' for Active; 'I' for Inactive)
REMARK    1  A    between atoms: C_2  and  C_3
REMARK    2  A    between atoms: C_3  and  C_4
REMARK    3  A    between atoms: C_8  and  O_9
REMARK    4  A    between atoms: O_9  and  C_10
REMARK    5  A    between atoms: C_10  and  C_11
REMARK    6  A    between atoms: C_11  and  C_12
REMARK    7  A    between atoms: C_12  and  C_13
REMARK    8  A    between atoms: C_12  and  C_14
REMARK    9  A    between atoms: C_15  and  O_16
REMARK                            x       y       z     vdW  Elec       q    Type
REMARK                         _______ _______ _______ _____ _____    ______ ____
ROOT
ATOM      1  C   UNL     1       6.700   4.881  17.460  0.00  0.00    +0.000 A 
ATOM      2  C   UNL     1       6.646   5.023  16.061  0.00  0.00    +0.000 A 
ATOM      3  C   UNL     1       5.576   4.509  15.326  0.00  0.00    +0.000 A 
ATOM      4  C   UNL     1       4.523   3.881  15.974  0.00  0.00    +0.000 A 
ATOM      5  C   UNL     1       4.515   3.763  17.369  0.00  0.00    +0.000 A 
ATOM      6  C   UNL     1       5.614   4.255  18.094  0.00  0.00    +0.000 A 
ENDROOT
BRANCH   6   7
ATOM      7  O   UNL     1       5.621   4.126  19.461  0.00  0.00    +0.000 OA
ATOM      8  H   UNL     1       5.760   3.176  19.627  0.00  0.00    +0.000 HD
ENDBRANCH   6   7
BRANCH   1   9
ATOM      9  C   UNL     1       7.900   5.369  18.251  0.00  0.00    +0.000 C 
BRANCH   9  11
ATOM     10  C   UNL     1       7.736   7.820  17.658  0.00  0.00    +0.000 C 
ATOM     11  C   UNL     1       7.907   6.840  18.574  0.00  0.00    +0.000 C 
ENDBRANCH   9  11
ENDBRANCH   1   9
BRANCH   5  12
ATOM     12  O   UNL     1       3.491   3.201  18.105  0.00  0.00    +0.000 OA
BRANCH  12  13
ATOM     13  C   UNL     1       2.351   4.057  18.229  0.00  0.00    +0.000 C 
BRANCH  13  14
ATOM     14  C   UNL     1       1.187   3.363  18.923  0.00  0.00    +0.000 C 
BRANCH  14  15
ATOM     15  C   UNL     1       1.015   3.868  20.372  0.00  0.00    +0.000 C 
ATOM     16  C   UNL     1       1.397   2.812  21.415  0.00  0.00    +0.000 C 
ATOM     17  C   UNL     1       1.844   5.130  20.591  0.00  0.00    +0.000 C 
ENDBRANCH  14  15
ENDBRANCH  13  14
ENDBRANCH  12  13
ENDBRANCH   5  12
TORSDOF 7
ENDMDL
MODEL 9
REMARK VINA RESULT:      -6.1      2.371      6.080
REMARK  Name = 
REMARK  9 active torsions:
REMARK  status: ('A' for Active; 'I' for Inactive)
REMARK    1  A    between atoms: C_2  and  C_3
REMARK    2  A    between atoms: C_3  and  C_4
REMARK    3  A    between atoms: C_8  and  O_9
REMARK    4  A    between atoms: O_9  and  C_10
REMARK    5  A    between atoms: C_10  and  C_11
REMARK    6  A    between atoms: C_11  and  C_12
REMARK    7  A    between atoms: C_12  and  C_13
REMARK    8  A    between atoms: C_12  and  C_14
REMARK    9  A    between atoms: C_15  and  O_16
REMARK                            x       y       z     vdW  Elec       q    Type
REMARK                         _______ _______ _______ _____ _____    ______ ____
ROOT
ATOM      1  C   UNL     1       2.485   4.227  18.179  0.00  0.00    +0.000 A 
ATOM      2  C   UNL     1       2.205   5.603  18.090  0.00  0.00    +0.000 A 
ATOM      3  C   UNL     1       3.229   6.539  17.937  0.00  0.00    +0.000 A 
ATOM      4  C   UNL     1       4.547   6.119  17.831  0.00  0.00    +0.000 A 
ATOM      5  C   UNL     1       4.863   4.755  17.866  0.00  0.00    +0.000 A 
ATOM      6  C   UNL     1       3.826   3.827  18.053  0.00  0.00    +0.000 A 
ENDROOT
BRANCH   6   7
ATOM      7  O   UNL     1       4.132   2.489  18.106  0.00  0.00    +0.000 OA
ATOM      8  H   UNL     1       3.493   2.105  18.735  0.00  0.00    +0.000 HD
ENDBRANCH   6   7
BRANCH   1   9
ATOM      9  C   UNL     1       1.380   3.217  18.424  0.00  0.00    +0.000 C 
BRANCH   9  11
ATOM     10  C   UNL     1       1.555   3.633  20.910  0.00  0.00    +0.000 C 
ATOM     11  C   UNL     1       0.896   3.119  19.847  0.00  0.00    +0.000 C 
ENDBRANCH   9  11
ENDBRANCH   1   9
BRANCH   5  12
ATOM     12  O   UNL     1       6.136   4.240  17.718  0.00  0.00    +0.000 OA
BRANCH  12  13
ATOM     13  C   UNL     1       6.721   4.541  16.447  0.00  0.00    +0.000 C 
BRANCH  13  14
ATOM     14  C   UNL     1       6.117   3.706  15.326  0.00  0.00    +0.000 C 
BRANCH  14  15
ATOM     15  C   UNL     1       6.186   4.447  13.974  0.00  0.00    +0.000 C 
ATOM     16  C   UNL     1       7.533   5.144  13.748  0.00  0.00    +0.000 C 
ATOM     17  C   UNL     1       5.913   3.476  12.828  0.00  0.00    +0.000 C 
ENDBRANCH  14  15
ENDBRANCH  13  14
ENDBRANCH  12  13
ENDBRANCH   5  12
TORSDOF 7
ENDMDL
