MODEL 1
REMARK VINA RESULT:      -7.0      0.000      0.000
REMARK  Name = 
REMARK  8 active torsions:
REMARK  status: ('A' for Active; 'I' for Inactive)
REMARK    1  A    between atoms: C_1  and  C_2
REMARK    2  A    between atoms: C_2  and  C_3
REMARK    3  A    between atoms: C_3  and  N_4
REMARK    4  A    between atoms: C_5  and  C_7
REMARK    5  A    between atoms: C_10  and  N_11
REMARK    6  A    between atoms: C_18  and  C_19
REMARK    7  A    between atoms: C_27  and  N_28
REMARK    8  A    between atoms: C_29  and  C_31
REMARK                            x       y       z     vdW  Elec       q    Type
REMARK                         _______ _______ _______ _____ _____    ______ ____
ROOT
ATOM      1  C   UNL     1      -2.942  13.363  22.809  0.00  0.00    +0.000 A 
ATOM      2  C   UNL     1      -1.780  14.025  23.195  0.00  0.00    +0.000 A 
ATOM      3  C   UNL     1      -0.762  14.234  22.255  0.00  0.00    +0.000 A 
ATOM      4  C   UNL     1      -0.836  13.786  20.910  0.00  0.00    +0.000 A 
ATOM      5  C   UNL     1      -2.056  13.163  20.531  0.00  0.00    +0.000 A 
ATOM      6  C   UNL     1      -3.069  12.933  21.487  0.00  0.00    +0.000 A 
ENDROOT
BRANCH   4   7
ATOM      7  N   UNL     1       0.244  14.039  20.068  0.00  0.00    +0.000 N 
ATOM      8  C   UNL     1       1.439  13.185  20.113  0.00  0.00    +0.000 C 
ATOM      9  C   UNL     1       2.691  14.027  20.364  0.00  0.00    +0.000 C 
ATOM     10  C   UNL     1       2.825  15.160  19.337  0.00  0.00    +0.000 C 
ATOM     11  C   UNL     1       1.533  15.986  19.300  0.00  0.00    +0.000 C 
ATOM     12  C   UNL     1       0.288  15.116  19.080  0.00  0.00    +0.000 C 
ATOM     13  C   UNL     1       4.048  16.027  19.597  0.00  0.00    +0.000 C 
ATOM     14  C   UNL     1       5.004  15.397  18.643  0.00  0.00    +0.000 C 
ATOM     15  N   UNL     1       4.450  14.621  17.766  0.00  0.00    +0.000 NA
ATOM     16  O   UNL     1       3.060  14.600  18.030  0.00  0.00    +0.000 OA
BRANCH  14  17
ATOM     17  C   UNL     1       6.455  15.699  18.679  0.00  0.00    +0.000 A 
ATOM     18  C   UNL     1       6.912  17.021  18.622  0.00  0.00    +0.000 A 
ATOM     19  C   UNL     1       8.282  17.292  18.606  0.00  0.00    +0.000 A 
ATOM     20  C   UNL     1       9.201  16.245  18.651  0.00  0.00    +0.000 A 
ATOM     21  C   UNL     1       8.753  14.926  18.728  0.00  0.00    +0.000 A 
ATOM     22  C   UNL     1       7.383  14.653  18.747  0.00  0.00    +0.000 A 
ENDBRANCH  14  17
ENDBRANCH   4   7
BRANCH   1  24
ATOM     23  N   UNL     1      -5.214  12.622  23.321  0.00  0.00    +0.000 N 
ATOM     24  C   UNL     1      -4.025  13.137  23.810  0.00  0.00    +0.000 C 
ATOM     25  O   UNL     1      -3.847  13.417  24.989  0.00  0.00    +0.000 OA
ATOM     26  H   UNL     1      -5.348  12.499  22.327  0.00  0.00    +0.000 HD
BRANCH  23  27
ATOM     27  C   UNL     1      -6.354  12.392  24.190  0.00  0.00    +0.000 C 
BRANCH  27  29
ATOM     28  C   UNL     1      -7.917  13.831  22.808  0.00  0.00    +0.000 C 
ATOM     29  C   UNL     1      -7.347  13.556  24.192  0.00  0.00    +0.000 C 
ENDBRANCH  27  29
ENDBRANCH  23  27
ENDBRANCH   1  24
BRANCH   5  30
ATOM     30  N   UNL     1      -2.261  12.613  19.243  0.00  0.00    +0.000 N 
ATOM     31  C   UNL     1      -1.868  11.310  18.877  0.00  0.00    +0.000 C 
ATOM     32  O   UNL     1      -1.248  10.557  19.603  0.00  0.00    +0.000 OA
ATOM     33  H   UNL     1      -2.956  13.065  18.659  0.00  0.00    +0.000 HD
BRANCH  31  34
ATOM     34  C   UNL     1      -2.339  10.919  17.554  0.00  0.00    +0.000 A 
ATOM     35  C   UNL     1      -1.939   9.915  16.676  0.00  0.00    +0.000 A 
ATOM     36  C   UNL     1      -2.799   9.985  15.548  0.00  0.00    +0.000 A 
ATOM     37  C   UNL     1      -3.660  11.025  15.796  0.00  0.00    +0.000 A 
ATOM     38  O   UNL     1      -3.393  11.596  16.994  0.00  0.00    +0.000 OA
ENDBRANCH  31  34
ENDBRANCH   5  30
TORSDOF 7
ENDMDL
MODEL 2
REMARK VINA RESULT:      -6.7      5.182     10.201
REMARK  Name = 
REMARK  8 active torsions:
REMARK  status: ('A' for Active; 'I' for Inactive)
REMARK    1  A    between atoms: C_1  and  C_2
REMARK    2  A    between atoms: C_2  and  C_3
REMARK    3  A    between atoms: C_3  and  N_4
REMARK    4  A    between atoms: C_5  and  C_7
REMARK    5  A    between atoms: C_10  and  N_11
REMARK    6  A    between atoms: C_18  and  C_19
REMARK    7  A    between atoms: C_27  and  N_28
REMARK    8  A    between atoms: C_29  and  C_31
REMARK                            x       y       z     vdW  Elec       q    Type
REMARK                         _______ _______ _______ _____ _____    ______ ____
ROOT
ATOM      1  C   UNL     1       2.962   5.640  18.462  0.00  0.00    +0.000 A 
ATOM      2  C   UNL     1       2.286   5.144  19.572  0.00  0.00    +0.000 A 
ATOM      3  C   UNL     1       1.625   6.032  20.431  0.00  0.00    +0.000 A 
ATOM      4  C   UNL     1       1.617   7.440  20.245  0.00  0.00    +0.000 A 
ATOM      5  C   UNL     1       2.268   7.912  19.073  0.00  0.00    +0.000 A 
ATOM      6  C   UNL     1       2.954   7.016  18.225  0.00  0.00    +0.000 A 
ENDROOT
BRANCH   4   7
ATOM      7  N   UNL     1       0.936   8.225  21.171  0.00  0.00    +0.000 N 
ATOM      8  C   UNL     1      -0.533   8.288  21.157  0.00  0.00    +0.000 C 
ATOM      9  C   UNL     1      -1.006   9.737  21.041  0.00  0.00    +0.000 C 
ATOM     10  C   UNL     1      -0.398  10.620  22.140  0.00  0.00    +0.000 C 
ATOM     11  C   UNL     1       1.129  10.477  22.138  0.00  0.00    +0.000 C 
ATOM     12  C   UNL     1       1.580   9.012  22.221  0.00  0.00    +0.000 C 
ATOM     13  C   UNL     1      -0.834  12.072  22.015  0.00  0.00    +0.000 C 
ATOM     14  C   UNL     1      -1.959  12.077  22.992  0.00  0.00    +0.000 C 
ATOM     15  N   UNL     1      -1.984  11.051  23.783  0.00  0.00    +0.000 NA
ATOM     16  O   UNL     1      -0.904  10.208  23.425  0.00  0.00    +0.000 OA
BRANCH  14  17
ATOM     17  C   UNL     1      -2.917  13.205  23.073  0.00  0.00    +0.000 A 
ATOM     18  C   UNL     1      -2.547  14.418  23.665  0.00  0.00    +0.000 A 
ATOM     19  C   UNL     1      -3.474  15.457  23.779  0.00  0.00    +0.000 A 
ATOM     20  C   UNL     1      -4.772  15.290  23.301  0.00  0.00    +0.000 A 
ATOM     21  C   UNL     1      -5.143  14.091  22.692  0.00  0.00    +0.000 A 
ATOM     22  C   UNL     1      -4.216  13.051  22.573  0.00  0.00    +0.000 A 
ENDBRANCH  14  17
ENDBRANCH   4   7
BRANCH   1  24
ATOM     23  N   UNL     1       4.890   5.122  17.052  0.00  0.00    +0.000 N 
ATOM     24  C   UNL     1       3.670   4.696  17.550  0.00  0.00    +0.000 C 
ATOM     25  O   UNL     1       3.166   3.617  17.264  0.00  0.00    +0.000 OA
ATOM     26  H   UNL     1       5.219   6.060  17.238  0.00  0.00    +0.000 HD
BRANCH  23  27
ATOM     27  C   UNL     1       5.656   4.309  16.127  0.00  0.00    +0.000 C 
BRANCH  27  29
ATOM     28  C   UNL     1       6.195   3.851  13.694  0.00  0.00    +0.000 C 
ATOM     29  C   UNL     1       5.635   4.850  14.696  0.00  0.00    +0.000 C 
ENDBRANCH  27  29
ENDBRANCH  23  27
ENDBRANCH   1  24
BRANCH   5  30
ATOM     30  N   UNL     1       2.395   9.291  18.778  0.00  0.00    +0.000 N 
ATOM     31  C   UNL     1       1.349  10.079  18.258  0.00  0.00    +0.000 C 
ATOM     32  O   UNL     1       0.260   9.641  17.939  0.00  0.00    +0.000 OA
ATOM     33  H   UNL     1       3.168   9.782  19.215  0.00  0.00    +0.000 HD
BRANCH  31  34
ATOM     34  C   UNL     1       1.675  11.499  18.200  0.00  0.00    +0.000 A 
ATOM     35  C   UNL     1       0.948  12.641  18.527  0.00  0.00    +0.000 A 
ATOM     36  C   UNL     1       1.803  13.753  18.306  0.00  0.00    +0.000 A 
ATOM     37  C   UNL     1       2.989  13.231  17.851  0.00  0.00    +0.000 A 
ATOM     38  O   UNL     1       2.924  11.880  17.780  0.00  0.00    +0.000 OA
ENDBRANCH  31  34
ENDBRANCH   5  30
TORSDOF 7
ENDMDL
MODEL 3
REMARK VINA RESULT:      -6.6      7.143     11.207
REMARK  Name = 
REMARK  8 active torsions:
REMARK  status: ('A' for Active; 'I' for Inactive)
REMARK    1  A    between atoms: C_1  and  C_2
REMARK    2  A    between atoms: C_2  and  C_3
REMARK    3  A    between atoms: C_3  and  N_4
REMARK    4  A    between atoms: C_5  and  C_7
REMARK    5  A    between atoms: C_10  and  N_11
REMARK    6  A    between atoms: C_18  and  C_19
REMARK    7  A    between atoms: C_27  and  N_28
REMARK    8  A    between atoms: C_29  and  C_31
REMARK                            x       y       z     vdW  Elec       q    Type
REMARK                         _______ _______ _______ _____ _____    ______ ____
ROOT
ATOM      1  C   UNL     1       5.572   5.916  16.356  0.00  0.00    +0.000 A 
ATOM      2  C   UNL     1       5.090   7.160  15.958  0.00  0.00    +0.000 A 
ATOM      3  C   UNL     1       4.024   7.741  16.656  0.00  0.00    +0.000 A 
ATOM      4  C   UNL     1       3.378   7.119  17.757  0.00  0.00    +0.000 A 
ATOM      5  C   UNL     1       3.928   5.877  18.175  0.00  0.00    +0.000 A 
ATOM      6  C   UNL     1       4.986   5.283  17.454  0.00  0.00    +0.000 A 
ENDROOT
BRANCH   4   7
ATOM      7  N   UNL     1       2.319   7.787  18.366  0.00  0.00    +0.000 N 
ATOM      8  C   UNL     1       1.621   8.873  17.663  0.00  0.00    +0.000 C 
ATOM      9  C   UNL     1       1.632  10.149  18.505  0.00  0.00    +0.000 C 
ATOM     10  C   UNL     1       1.061   9.905  19.909  0.00  0.00    +0.000 C 
ATOM     11  C   UNL     1       1.794   8.733  20.573  0.00  0.00    +0.000 C 
ATOM     12  C   UNL     1       1.799   7.474  19.696  0.00  0.00    +0.000 C 
ATOM     13  C   UNL     1       1.099  11.161  20.768  0.00  0.00    +0.000 C 
ATOM     14  C   UNL     1      -0.297  11.641  20.565  0.00  0.00    +0.000 C 
ATOM     15  N   UNL     1      -1.095  10.759  20.050  0.00  0.00    +0.000 NA
ATOM     16  O   UNL     1      -0.340   9.586  19.811  0.00  0.00    +0.000 OA
BRANCH  14  17
ATOM     17  C   UNL     1      -0.724  12.997  20.983  0.00  0.00    +0.000 A 
ATOM     18  C   UNL     1       0.046  13.745  21.882  0.00  0.00    +0.000 A 
ATOM     19  C   UNL     1      -0.392  15.001  22.307  0.00  0.00    +0.000 A 
ATOM     20  C   UNL     1      -1.597  15.518  21.836  0.00  0.00    +0.000 A 
ATOM     21  C   UNL     1      -2.361  14.786  20.926  0.00  0.00    +0.000 A 
ATOM     22  C   UNL     1      -1.923  13.531  20.496  0.00  0.00    +0.000 A 
ENDBRANCH  14  17
ENDBRANCH   4   7
BRANCH   1  24
ATOM     23  N   UNL     1       6.678   5.426  14.232  0.00  0.00    +0.000 N 
ATOM     24  C   UNL     1       6.705   5.294  15.610  0.00  0.00    +0.000 C 
ATOM     25  O   UNL     1       7.586   4.692  16.212  0.00  0.00    +0.000 OA
ATOM     26  H   UNL     1       5.880   5.846  13.773  0.00  0.00    +0.000 HD
BRANCH  23  27
ATOM     27  C   UNL     1       7.704   4.834  13.394  0.00  0.00    +0.000 C 
BRANCH  27  29
ATOM     28  C   UNL     1       6.001   3.305  12.306  0.00  0.00    +0.000 C 
ATOM     29  C   UNL     1       7.153   4.274  12.082  0.00  0.00    +0.000 C 
ENDBRANCH  27  29
ENDBRANCH  23  27
ENDBRANCH   1  24
BRANCH   5  30
ATOM     30  N   UNL     1       3.361   5.108  19.220  0.00  0.00    +0.000 N 
ATOM     31  C   UNL     1       2.428   4.072  19.011  0.00  0.00    +0.000 C 
ATOM     32  O   UNL     1       1.959   3.786  17.926  0.00  0.00    +0.000 OA
ATOM     33  H   UNL     1       3.848   5.115  20.109  0.00  0.00    +0.000 HD
BRANCH  31  34
ATOM     34  C   UNL     1       2.124   3.322  20.223  0.00  0.00    +0.000 A 
ATOM     35  C   UNL     1       0.942   3.131  20.936  0.00  0.00    +0.000 A 
ATOM     36  C   UNL     1       1.246   2.260  22.016  0.00  0.00    +0.000 A 
ATOM     37  C   UNL     1       2.586   1.980  21.907  0.00  0.00    +0.000 A 
ATOM     38  O   UNL     1       3.125   2.614  20.838  0.00  0.00    +0.000 OA
ENDBRANCH  31  34
ENDBRANCH   5  30
TORSDOF 7
ENDMDL
MODEL 4
REMARK VINA RESULT:      -6.6      4.304      7.528
REMARK  Name = 
REMARK  8 active torsions:
REMARK  status: ('A' for Active; 'I' for Inactive)
REMARK    1  A    between atoms: C_1  and  C_2
REMARK    2  A    between atoms: C_2  and  C_3
REMARK    3  A    between atoms: C_3  and  N_4
REMARK    4  A    between atoms: C_5  and  C_7
REMARK    5  A    between atoms: C_10  and  N_11
REMARK    6  A    between atoms: C_18  and  C_19
REMARK    7  A    between atoms: C_27  and  N_28
REMARK    8  A    between atoms: C_29  and  C_31
REMARK                            x       y       z     vdW  Elec       q    Type
REMARK                         _______ _______ _______ _____ _____    ______ ____
ROOT
ATOM      1  C   UNL     1      -2.941  13.777  22.704  0.00  0.00    +0.000 A 
ATOM      2  C   UNL     1      -2.992  12.423  23.020  0.00  0.00    +0.000 A 
ATOM      3  C   UNL     1      -2.022  11.557  22.499  0.00  0.00    +0.000 A 
ATOM      4  C   UNL     1      -0.978  11.981  21.635  0.00  0.00    +0.000 A 
ATOM      5  C   UNL     1      -0.919  13.377  21.376  0.00  0.00    +0.000 A 
ATOM      6  C   UNL     1      -1.912  14.242  21.882  0.00  0.00    +0.000 A 
ENDROOT
BRANCH   4   7
ATOM      7  N   UNL     1      -0.077  11.027  21.169  0.00  0.00    +0.000 N 
ATOM      8  C   UNL     1      -0.389  10.231  19.973  0.00  0.00    +0.000 C 
ATOM      9  C   UNL     1      -0.305   8.737  20.287  0.00  0.00    +0.000 C 
ATOM     10  C   UNL     1       1.053   8.362  20.896  0.00  0.00    +0.000 C 
ATOM     11  C   UNL     1       1.345   9.256  22.108  0.00  0.00    +0.000 C 
ATOM     12  C   UNL     1       1.223  10.749  21.777  0.00  0.00    +0.000 C 
ATOM     13  C   UNL     1       1.135   6.883  21.245  0.00  0.00    +0.000 C 
ATOM     14  C   UNL     1       1.833   6.381  20.028  0.00  0.00    +0.000 C 
ATOM     15  N   UNL     1       2.375   7.307  19.302  0.00  0.00    +0.000 NA
ATOM     16  O   UNL     1       2.090   8.552  19.914  0.00  0.00    +0.000 OA
BRANCH  14  17
ATOM     17  C   UNL     1       1.936   4.933  19.730  0.00  0.00    +0.000 A 
ATOM     18  C   UNL     1       1.134   4.004  20.403  0.00  0.00    +0.000 A 
ATOM     19  C   UNL     1       1.274   2.638  20.150  0.00  0.00    +0.000 A 
ATOM     20  C   UNL     1       2.213   2.193  19.221  0.00  0.00    +0.000 A 
ATOM     21  C   UNL     1       3.002   3.113  18.531  0.00  0.00    +0.000 A 
ATOM     22  C   UNL     1       2.861   4.481  18.781  0.00  0.00    +0.000 A 
ENDBRANCH  14  17
ENDBRANCH   4   7
BRANCH   1  24
ATOM     23  N   UNL     1      -5.254  14.183  23.378  0.00  0.00    +0.000 N 
ATOM     24  C   UNL     1      -3.976  14.700  23.254  0.00  0.00    +0.000 C 
ATOM     25  O   UNL     1      -3.682  15.851  23.555  0.00  0.00    +0.000 OA
ATOM     26  H   UNL     1      -5.470  13.260  23.026  0.00  0.00    +0.000 HD
BRANCH  23  27
ATOM     27  C   UNL     1      -6.355  14.993  23.867  0.00  0.00    +0.000 C 
BRANCH  27  29
ATOM     28  C   UNL     1      -7.642  12.865  23.379  0.00  0.00    +0.000 C 
ATOM     29  C   UNL     1      -7.617  14.177  24.151  0.00  0.00    +0.000 C 
ENDBRANCH  27  29
ENDBRANCH  23  27
ENDBRANCH   1  24
BRANCH   5  30
ATOM     30  N   UNL     1       0.028  13.945  20.489  0.00  0.00    +0.000 N 
ATOM     31  C   UNL     1       1.304  14.391  20.889  0.00  0.00    +0.000 C 
ATOM     32  O   UNL     1       1.691  14.404  22.042  0.00  0.00    +0.000 OA
ATOM     33  H   UNL     1      -0.108  13.767  19.501  0.00  0.00    +0.000 HD
BRANCH  31  34
ATOM     34  C   UNL     1       2.154  14.777  19.769  0.00  0.00    +0.000 A 
ATOM     35  C   UNL     1       2.340  15.989  19.108  0.00  0.00    +0.000 A 
ATOM     36  C   UNL     1       3.334  15.771  18.118  0.00  0.00    +0.000 A 
ATOM     37  C   UNL     1       3.687  14.448  18.223  0.00  0.00    +0.000 A 
ATOM     38  O   UNL     1       2.983  13.840  19.207  0.00  0.00    +0.000 OA
ENDBRANCH  31  34
ENDBRANCH   5  30
TORSDOF 7
ENDMDL
MODEL 5
REMARK VINA RESULT:      -6.5      4.457      7.719
REMARK  Name = 
REMARK  8 active torsions:
REMARK  status: ('A' for Active; 'I' for Inactive)
REMARK    1  A    between atoms: C_1  and  C_2
REMARK    2  A    between atoms: C_2  and  C_3
REMARK    3  A    between atoms: C_3  and  N_4
REMARK    4  A    between atoms: C_5  and  C_7
REMARK    5  A    between atoms: C_10  and  N_11
REMARK    6  A    between atoms: C_18  and  C_19
REMARK    7  A    between atoms: C_27  and  N_28
REMARK    8  A    between atoms: C_29  and  C_31
REMARK                            x       y       z     vdW  Elec       q    Type
REMARK                         _______ _______ _______ _____ _____    ______ ____
ROOT
ATOM      1  C   UNL     1      -2.672  13.755  23.125  0.00  0.00    +0.000 A 
ATOM      2  C   UNL     1      -2.708  12.397  23.426  0.00  0.00    +0.000 A 
ATOM      3  C   UNL     1      -1.791  11.531  22.816  0.00  0.00    +0.000 A 
ATOM      4  C   UNL     1      -0.816  11.961  21.877  0.00  0.00    +0.000 A 
ATOM      5  C   UNL     1      -0.767  13.360  21.633  0.00  0.00    +0.000 A 
ATOM      6  C   UNL     1      -1.709  14.224  22.229  0.00  0.00    +0.000 A 
ENDROOT
BRANCH   4   7
ATOM      7  N   UNL     1       0.036  11.008  21.326  0.00  0.00    +0.000 N 
ATOM      8  C   UNL     1      -0.354  10.271  20.115  0.00  0.00    +0.000 C 
ATOM      9  C   UNL     1      -0.293   8.764  20.361  0.00  0.00    +0.000 C 
ATOM     10  C   UNL     1       1.085   8.332  20.885  0.00  0.00    +0.000 C 
ATOM     11  C   UNL     1       1.458   9.165  22.117  0.00  0.00    +0.000 C 
ATOM     12  C   UNL     1       1.358  10.674  21.856  0.00  0.00    +0.000 C 
ATOM     13  C   UNL     1       1.147   6.838  21.167  0.00  0.00    +0.000 C 
ATOM     14  C   UNL     1       1.770   6.372  19.896  0.00  0.00    +0.000 C 
ATOM     15  N   UNL     1       2.299   7.317  19.184  0.00  0.00    +0.000 NA
ATOM     16  O   UNL     1       2.076   8.540  19.860  0.00  0.00    +0.000 OA
BRANCH  14  17
ATOM     17  C   UNL     1       1.822   4.936  19.533  0.00  0.00    +0.000 A 
ATOM     18  C   UNL     1       1.327   3.959  20.404  0.00  0.00    +0.000 A 
ATOM     19  C   UNL     1       1.426   2.606  20.073  0.00  0.00    +0.000 A 
ATOM     20  C   UNL     1       2.016   2.223  18.870  0.00  0.00    +0.000 A 
ATOM     21  C   UNL     1       2.495   3.191  17.989  0.00  0.00    +0.000 A 
ATOM     22  C   UNL     1       2.394   4.547  18.316  0.00  0.00    +0.000 A 
ENDBRANCH  14  17
ENDBRANCH   4   7
BRANCH   1  24
ATOM     23  N   UNL     1      -3.240  15.988  23.939  0.00  0.00    +0.000 N 
ATOM     24  C   UNL     1      -3.652  14.677  23.770  0.00  0.00    +0.000 C 
ATOM     25  O   UNL     1      -4.745  14.262  24.134  0.00  0.00    +0.000 OA
ATOM     26  H   UNL     1      -2.293  16.262  23.713  0.00  0.00    +0.000 HD
BRANCH  23  27
ATOM     27  C   UNL     1      -4.089  16.971  24.587  0.00  0.00    +0.000 C 
BRANCH  27  29
ATOM     28  C   UNL     1      -3.744  18.203  22.399  0.00  0.00    +0.000 C 
ATOM     29  C   UNL     1      -4.639  18.017  23.615  0.00  0.00    +0.000 C 
ENDBRANCH  27  29
ENDBRANCH  23  27
ENDBRANCH   1  24
BRANCH   5  30
ATOM     30  N   UNL     1       0.110  13.934  20.681  0.00  0.00    +0.000 N 
ATOM     31  C   UNL     1       1.435  14.320  20.971  0.00  0.00    +0.000 C 
ATOM     32  O   UNL     1       1.932  14.270  22.080  0.00  0.00    +0.000 OA
ATOM     33  H   UNL     1      -0.127  13.805  19.704  0.00  0.00    +0.000 HD
BRANCH  31  34
ATOM     34  C   UNL     1       2.185  14.726  19.789  0.00  0.00    +0.000 A 
ATOM     35  C   UNL     1       1.904  15.625  18.763  0.00  0.00    +0.000 A 
ATOM     36  C   UNL     1       3.035  15.640  17.905  0.00  0.00    +0.000 A 
ATOM     37  C   UNL     1       3.930  14.750  18.445  0.00  0.00    +0.000 A 
ATOM     38  O   UNL     1       3.431  14.192  19.574  0.00  0.00    +0.000 OA
ENDBRANCH  31  34
ENDBRANCH   5  30
TORSDOF 7
ENDMDL
MODEL 6
REMARK VINA RESULT:      -6.4      4.939      8.260
REMARK  Name = 
REMARK  8 active torsions:
REMARK  status: ('A' for Active; 'I' for Inactive)
REMARK    1  A    between atoms: C_1  and  C_2
REMARK    2  A    between atoms: C_2  and  C_3
REMARK    3  A    between atoms: C_3  and  N_4
REMARK    4  A    between atoms: C_5  and  C_7
REMARK    5  A    between atoms: C_10  and  N_11
REMARK    6  A    between atoms: C_18  and  C_19
REMARK    7  A    between atoms: C_27  and  N_28
REMARK    8  A    between atoms: C_29  and  C_31
REMARK                            x       y       z     vdW  Elec       q    Type
REMARK                         _______ _______ _______ _____ _____    ______ ____
ROOT
ATOM      1  C   UNL     1      -3.274  10.225  15.023  0.00  0.00    +0.000 A 
ATOM      2  C   UNL     1      -2.156   9.730  15.688  0.00  0.00    +0.000 A 
ATOM      3  C   UNL     1      -1.920  10.109  17.016  0.00  0.00    +0.000 A 
ATOM      4  C   UNL     1      -2.760  10.999  17.736  0.00  0.00    +0.000 A 
ATOM      5  C   UNL     1      -3.922  11.443  17.050  0.00  0.00    +0.000 A 
ATOM      6  C   UNL     1      -4.143  11.079  15.705  0.00  0.00    +0.000 A 
ENDROOT
BRANCH   4   7
ATOM      7  N   UNL     1      -2.419  11.313  19.049  0.00  0.00    +0.000 N 
ATOM      8  C   UNL     1      -3.344  12.081  19.895  0.00  0.00    +0.000 C 
ATOM      9  C   UNL     1      -2.655  13.328  20.449  0.00  0.00    +0.000 C 
ATOM     10  C   UNL     1      -1.353  12.976  21.183  0.00  0.00    +0.000 C 
ATOM     11  C   UNL     1      -0.451  12.137  20.270  0.00  0.00    +0.000 C 
ATOM     12  C   UNL     1      -1.174  10.909  19.700  0.00  0.00    +0.000 C 
ATOM     13  C   UNL     1      -0.640  14.213  21.708  0.00  0.00    +0.000 C 
ATOM     14  C   UNL     1      -1.132  14.203  23.115  0.00  0.00    +0.000 C 
ATOM     15  N   UNL     1      -1.681  13.088  23.481  0.00  0.00    +0.000 NA
ATOM     16  O   UNL     1      -1.659  12.214  22.367  0.00  0.00    +0.000 OA
BRANCH  14  17
ATOM     17  C   UNL     1      -0.941  15.364  24.016  0.00  0.00    +0.000 A 
ATOM     18  C   UNL     1      -1.439  15.345  25.324  0.00  0.00    +0.000 A 
ATOM     19  C   UNL     1      -1.297  16.463  26.148  0.00  0.00    +0.000 A 
ATOM     20  C   UNL     1      -0.654  17.604  25.671  0.00  0.00    +0.000 A 
ATOM     21  C   UNL     1      -0.138  17.624  24.376  0.00  0.00    +0.000 A 
ATOM     22  C   UNL     1      -0.276  16.505  23.550  0.00  0.00    +0.000 A 
ENDBRANCH  14  17
ENDBRANCH   4   7
BRANCH   1  24
ATOM     23  N   UNL     1      -4.833   9.911  13.168  0.00  0.00    +0.000 N 
ATOM     24  C   UNL     1      -3.523   9.825  13.608  0.00  0.00    +0.000 C 
ATOM     25  O   UNL     1      -2.601   9.432  12.904  0.00  0.00    +0.000 OA
ATOM     26  H   UNL     1      -5.576  10.148  13.813  0.00  0.00    +0.000 HD
BRANCH  23  27
ATOM     27  C   UNL     1      -5.208   9.517  11.823  0.00  0.00    +0.000 C 
BRANCH  27  29
ATOM     28  C   UNL     1      -7.433   8.319  12.020  0.00  0.00    +0.000 C 
ATOM     29  C   UNL     1      -6.716   9.587  11.578  0.00  0.00    +0.000 C 
ENDBRANCH  27  29
ENDBRANCH  23  27
ENDBRANCH   1  24
BRANCH   5  30
ATOM     30  N   UNL     1      -4.826  12.377  17.613  0.00  0.00    +0.000 N 
ATOM     31  C   UNL     1      -6.103  12.034  18.100  0.00  0.00    +0.000 C 
ATOM     32  O   UNL     1      -6.588  10.921  18.017  0.00  0.00    +0.000 OA
ATOM     33  H   UNL     1      -4.435  13.258  17.928  0.00  0.00    +0.000 HD
BRANCH  31  34
ATOM     34  C   UNL     1      -6.772  13.136  18.782  0.00  0.00    +0.000 A 
ATOM     35  C   UNL     1      -7.580  13.183  19.915  0.00  0.00    +0.000 A 
ATOM     36  C   UNL     1      -7.907  14.548  20.132  0.00  0.00    +0.000 A 
ATOM     37  C   UNL     1      -7.294  15.248  19.122  0.00  0.00    +0.000 A 
ATOM     38  O   UNL     1      -6.612  14.411  18.303  0.00  0.00    +0.000 OA
ENDBRANCH  31  34
ENDBRANCH   5  30
TORSDOF 7
ENDMDL
MODEL 7
REMARK VINA RESULT:      -6.3      4.287      7.517
REMARK  Name = 
REMARK  8 active torsions:
REMARK  status: ('A' for Active; 'I' for Inactive)
REMARK    1  A    between atoms: C_1  and  C_2
REMARK    2  A    between atoms: C_2  and  C_3
REMARK    3  A    between atoms: C_3  and  N_4
REMARK    4  A    between atoms: C_5  and  C_7
REMARK    5  A    between atoms: C_10  and  N_11
REMARK    6  A    between atoms: C_18  and  C_19
REMARK    7  A    between atoms: C_27  and  N_28
REMARK    8  A    between atoms: C_29  and  C_31
REMARK                            x       y       z     vdW  Elec       q    Type
REMARK                         _______ _______ _______ _____ _____    ______ ____
ROOT
ATOM      1  C   UNL     1      -2.639  13.683  23.431  0.00  0.00    +0.000 A 
ATOM      2  C   UNL     1      -2.733  12.308  23.619  0.00  0.00    +0.000 A 
ATOM      3  C   UNL     1      -1.824  11.460  22.972  0.00  0.00    +0.000 A 
ATOM      4  C   UNL     1      -0.801  11.926  22.105  0.00  0.00    +0.000 A 
ATOM      5  C   UNL     1      -0.694  13.337  21.978  0.00  0.00    +0.000 A 
ATOM      6  C   UNL     1      -1.627  14.186  22.611  0.00  0.00    +0.000 A 
ENDROOT
BRANCH   4   7
ATOM      7  N   UNL     1       0.037  10.989  21.508  0.00  0.00    +0.000 N 
ATOM      8  C   UNL     1      -0.362  10.321  20.261  0.00  0.00    +0.000 C 
ATOM      9  C   UNL     1      -0.324   8.802  20.431  0.00  0.00    +0.000 C 
ATOM     10  C   UNL     1       1.046   8.323  20.934  0.00  0.00    +0.000 C 
ATOM     11  C   UNL     1       1.430   9.087  22.207  0.00  0.00    +0.000 C 
ATOM     12  C   UNL     1       1.353  10.609  22.022  0.00  0.00    +0.000 C 
ATOM     13  C   UNL     1       1.084   6.816  21.141  0.00  0.00    +0.000 C 
ATOM     14  C   UNL     1       1.703   6.405  19.849  0.00  0.00    +0.000 C 
ATOM     15  N   UNL     1       2.248   7.376  19.185  0.00  0.00    +0.000 NA
ATOM     16  O   UNL     1       2.043   8.567  19.923  0.00  0.00    +0.000 OA
BRANCH  14  17
ATOM     17  C   UNL     1       1.734   4.989  19.414  0.00  0.00    +0.000 A 
ATOM     18  C   UNL     1       1.337   3.965  20.281  0.00  0.00    +0.000 A 
ATOM     19  C   UNL     1       1.416   2.630  19.877  0.00  0.00    +0.000 A 
ATOM     20  C   UNL     1       1.889   2.312  18.605  0.00  0.00    +0.000 A 
ATOM     21  C   UNL     1       2.268   3.328  17.728  0.00  0.00    +0.000 A 
ATOM     22  C   UNL     1       2.186   4.665  18.129  0.00  0.00    +0.000 A 
ENDBRANCH  14  17
ENDBRANCH   4   7
BRANCH   1  24
ATOM     23  N   UNL     1      -4.832  14.759  23.489  0.00  0.00    +0.000 N 
ATOM     24  C   UNL     1      -3.609  14.586  24.115  0.00  0.00    +0.000 C 
ATOM     25  O   UNL     1      -3.304  15.143  25.163  0.00  0.00    +0.000 OA
ATOM     26  H   UNL     1      -5.002  14.357  22.577  0.00  0.00    +0.000 HD
BRANCH  23  27
ATOM     27  C   UNL     1      -5.846  15.641  24.038  0.00  0.00    +0.000 C 
BRANCH  27  29
ATOM     28  C   UNL     1      -6.432  17.913  23.082  0.00  0.00    +0.000 C 
ATOM     29  C   UNL     1      -5.463  17.119  23.947  0.00  0.00    +0.000 C 
ENDBRANCH  27  29
ENDBRANCH  23  27
ENDBRANCH   1  24
BRANCH   5  30
ATOM     30  N   UNL     1       0.238  13.953  21.107  0.00  0.00    +0.000 N 
ATOM     31  C   UNL     1       0.031  14.106  19.722  0.00  0.00    +0.000 C 
ATOM     32  O   UNL     1      -0.930  13.660  19.123  0.00  0.00    +0.000 OA
ATOM     33  H   UNL     1       0.940  14.546  21.535  0.00  0.00    +0.000 HD
BRANCH  31  34
ATOM     34  C   UNL     1       1.053  14.920  19.075  0.00  0.00    +0.000 A 
ATOM     35  C   UNL     1       1.102  16.270  18.737  0.00  0.00    +0.000 A 
ATOM     36  C   UNL     1       2.380  16.507  18.165  0.00  0.00    +0.000 A 
ATOM     37  C   UNL     1       3.028  15.297  18.177  0.00  0.00    +0.000 A 
ATOM     38  O   UNL     1       2.242  14.335  18.717  0.00  0.00    +0.000 OA
ENDBRANCH  31  34
ENDBRANCH   5  30
TORSDOF 7
ENDMDL
MODEL 8
REMARK VINA RESULT:      -6.3      4.708      9.198
REMARK  Name = 
REMARK  8 active torsions:
REMARK  status: ('A' for Active; 'I' for Inactive)
REMARK    1  A    between atoms: C_1  and  C_2
REMARK    2  A    between atoms: C_2  and  C_3
REMARK    3  A    between atoms: C_3  and  N_4
REMARK    4  A    between atoms: C_5  and  C_7
REMARK    5  A    between atoms: C_10  and  N_11
REMARK    6  A    between atoms: C_18  and  C_19
REMARK    7  A    between atoms: C_27  and  N_28
REMARK    8  A    between atoms: C_29  and  C_31
REMARK                            x       y       z     vdW  Elec       q    Type
REMARK                         _______ _______ _______ _____ _____    ______ ____
ROOT
ATOM      1  C   UNL     1       1.260   7.974  20.873  0.00  0.00    +0.000 A 
ATOM      2  C   UNL     1       1.689   8.660  22.005  0.00  0.00    +0.000 A 
ATOM      3  C   UNL     1       1.038   9.842  22.383  0.00  0.00    +0.000 A 
ATOM      4  C   UNL     1      -0.045  10.405  21.657  0.00  0.00    +0.000 A 
ATOM      5  C   UNL     1      -0.497   9.653  20.539  0.00  0.00    +0.000 A 
ATOM      6  C   UNL     1       0.178   8.477  20.147  0.00  0.00    +0.000 A 
ENDROOT
BRANCH   4   7
ATOM      7  N   UNL     1      -0.606  11.591  22.121  0.00  0.00    +0.000 N 
ATOM      8  C   UNL     1      -1.655  11.565  23.151  0.00  0.00    +0.000 C 
ATOM      9  C   UNL     1      -2.901  12.308  22.665  0.00  0.00    +0.000 C 
ATOM     10  C   UNL     1      -2.567  13.736  22.211  0.00  0.00    +0.000 C 
ATOM     11  C   UNL     1      -1.436  13.703  21.176  0.00  0.00    +0.000 C 
ATOM     12  C   UNL     1      -0.210  12.925  21.673  0.00  0.00    +0.000 C 
ATOM     13  C   UNL     1      -3.793  14.473  21.693  0.00  0.00    +0.000 C 
ATOM     14  C   UNL     1      -4.166  15.227  22.923  0.00  0.00    +0.000 C 
ATOM     15  N   UNL     1      -3.241  15.262  23.829  0.00  0.00    +0.000 NA
ATOM     16  O   UNL     1      -2.140  14.514  23.346  0.00  0.00    +0.000 OA
BRANCH  14  17
ATOM     17  C   UNL     1      -5.470  15.921  23.047  0.00  0.00    +0.000 A 
ATOM     18  C   UNL     1      -6.668  15.247  22.786  0.00  0.00    +0.000 A 
ATOM     19  C   UNL     1      -7.887  15.924  22.858  0.00  0.00    +0.000 A 
ATOM     20  C   UNL     1      -7.916  17.277  23.193  0.00  0.00    +0.000 A 
ATOM     21  C   UNL     1      -6.727  17.951  23.472  0.00  0.00    +0.000 A 
ATOM     22  C   UNL     1      -5.506  17.274  23.405  0.00  0.00    +0.000 A 
ENDBRANCH  14  17
ENDBRANCH   4   7
BRANCH   1  24
ATOM     23  N   UNL     1       3.067   6.868  19.655  0.00  0.00    +0.000 N 
ATOM     24  C   UNL     1       1.955   6.719  20.467  0.00  0.00    +0.000 C 
ATOM     25  O   UNL     1       1.531   5.629  20.834  0.00  0.00    +0.000 OA
ATOM     26  H   UNL     1       3.322   7.779  19.298  0.00  0.00    +0.000 HD
BRANCH  23  27
ATOM     27  C   UNL     1       3.807   5.720  19.165  0.00  0.00    +0.000 C 
BRANCH  27  29
ATOM     28  C   UNL     1       2.924   3.866  17.680  0.00  0.00    +0.000 C 
ATOM     29  C   UNL     1       3.402   5.310  17.748  0.00  0.00    +0.000 C 
ENDBRANCH  27  29
ENDBRANCH  23  27
ENDBRANCH   1  24
BRANCH   5  30
ATOM     30  N   UNL     1      -1.528  10.110  19.683  0.00  0.00    +0.000 N 
ATOM     31  C   UNL     1      -1.312  10.973  18.590  0.00  0.00    +0.000 C 
ATOM     32  O   UNL     1      -0.237  11.472  18.317  0.00  0.00    +0.000 OA
ATOM     33  H   UNL     1      -2.393   9.581  19.687  0.00  0.00    +0.000 HD
BRANCH  31  34
ATOM     34  C   UNL     1      -2.499  11.161  17.764  0.00  0.00    +0.000 A 
ATOM     35  C   UNL     1      -3.787  11.601  18.061  0.00  0.00    +0.000 A 
ATOM     36  C   UNL     1      -4.509  11.623  16.838  0.00  0.00    +0.000 A 
ATOM     37  C   UNL     1      -3.631  11.189  15.876  0.00  0.00    +0.000 A 
ATOM     38  O   UNL     1      -2.423  10.905  16.419  0.00  0.00    +0.000 OA
ENDBRANCH  31  34
ENDBRANCH   5  30
TORSDOF 7
ENDMDL
MODEL 9
REMARK VINA RESULT:      -6.2      3.897      6.936
REMARK  Name = 
REMARK  8 active torsions:
REMARK  status: ('A' for Active; 'I' for Inactive)
REMARK    1  A    between atoms: C_1  and  C_2
REMARK    2  A    between atoms: C_2  and  C_3
REMARK    3  A    between atoms: C_3  and  N_4
REMARK    4  A    between atoms: C_5  and  C_7
REMARK    5  A    between atoms: C_10  and  N_11
REMARK    6  A    between atoms: C_18  and  C_19
REMARK    7  A    between atoms: C_27  and  N_28
REMARK    8  A    between atoms: C_29  and  C_31
REMARK                            x       y       z     vdW  Elec       q    Type
REMARK                         _______ _______ _______ _____ _____    ______ ____
ROOT
ATOM      1  C   UNL     1      -4.193  14.167  20.915  0.00  0.00    +0.000 A 
ATOM      2  C   UNL     1      -4.263  12.904  20.335  0.00  0.00    +0.000 A 
ATOM      3  C   UNL     1      -3.093  12.296  19.863  0.00  0.00    +0.000 A 
ATOM      4  C   UNL     1      -1.814  12.910  19.924  0.00  0.00    +0.000 A 
ATOM      5  C   UNL     1      -1.765  14.174  20.571  0.00  0.00    +0.000 A 
ATOM      6  C   UNL     1      -2.949  14.794  21.022  0.00  0.00    +0.000 A 
ENDROOT
BRANCH   4   7
ATOM      7  N   UNL     1      -0.722  12.215  19.411  0.00  0.00    +0.000 N 
ATOM      8  C   UNL     1      -0.887  11.311  18.263  0.00  0.00    +0.000 C 
ATOM      9  C   UNL     1      -0.377   9.911  18.607  0.00  0.00    +0.000 C 
ATOM     10  C   UNL     1       1.071   9.946  19.115  0.00  0.00    +0.000 C 
ATOM     11  C   UNL     1       1.192  10.939  20.277  0.00  0.00    +0.000 C 
ATOM     12  C   UNL     1       0.644  12.327  19.920  0.00  0.00    +0.000 C 
ATOM     13  C   UNL     1       1.578   8.562  19.493  0.00  0.00    +0.000 C 
ATOM     14  C   UNL     1       2.300   8.211  18.237  0.00  0.00    +0.000 C 
ATOM     15  N   UNL     1       2.517   9.216  17.448  0.00  0.00    +0.000 NA
ATOM     16  O   UNL     1       1.946  10.364  18.049  0.00  0.00    +0.000 OA
BRANCH  14  17
ATOM     17  C   UNL     1       2.773   6.833  17.967  0.00  0.00    +0.000 A 
ATOM     18  C   UNL     1       4.070   6.600  17.496  0.00  0.00    +0.000 A 
ATOM     19  C   UNL     1       4.489   5.302  17.199  0.00  0.00    +0.000 A 
ATOM     20  C   UNL     1       3.616   4.229  17.374  0.00  0.00    +0.000 A 
ATOM     21  C   UNL     1       2.328   4.451  17.861  0.00  0.00    +0.000 A 
ATOM     22  C   UNL     1       1.908   5.750  18.163  0.00  0.00    +0.000 A 
ENDBRANCH  14  17
ENDBRANCH   4   7
BRANCH   1  24
ATOM     23  N   UNL     1      -5.272  15.842  22.330  0.00  0.00    +0.000 N 
ATOM     24  C   UNL     1      -5.439  14.817  21.414  0.00  0.00    +0.000 C 
ATOM     25  O   UNL     1      -6.536  14.431  21.028  0.00  0.00    +0.000 OA
ATOM     26  H   UNL     1      -4.354  16.060  22.693  0.00  0.00    +0.000 HD
BRANCH  23  27
ATOM     27  C   UNL     1      -6.409  16.527  22.916  0.00  0.00    +0.000 C 
BRANCH  27  29
ATOM     28  C   UNL     1      -4.764  16.814  24.821  0.00  0.00    +0.000 C 
ATOM     29  C   UNL     1      -6.047  17.316  24.176  0.00  0.00    +0.000 C 
ENDBRANCH  27  29
ENDBRANCH  23  27
ENDBRANCH   1  24
BRANCH   5  30
ATOM     30  N   UNL     1      -0.575  14.936  20.660  0.00  0.00    +0.000 N 
ATOM     31  C   UNL     1      -0.151  15.844  19.668  0.00  0.00    +0.000 C 
ATOM     32  O   UNL     1      -0.720  16.007  18.606  0.00  0.00    +0.000 OA
ATOM     33  H   UNL     1      -0.167  15.040  21.582  0.00  0.00    +0.000 HD
BRANCH  31  34
ATOM     34  C   UNL     1       1.011  16.628  20.067  0.00  0.00    +0.000 A 
ATOM     35  C   UNL     1       1.137  17.839  20.746  0.00  0.00    +0.000 A 
ATOM     36  C   UNL     1       2.527  18.089  20.889  0.00  0.00    +0.000 A 
ATOM     37  C   UNL     1       3.165  17.033  20.287  0.00  0.00    +0.000 A 
ATOM     38  O   UNL     1       2.266  16.151  19.786  0.00  0.00    +0.000 OA
ENDBRANCH  31  34
ENDBRANCH   5  30
TORSDOF 7
ENDMDL
