MODEL 1
REMARK VINA RESULT:      -8.5      0.000      0.000
REMARK  Name = 
REMARK  4 active torsions:
REMARK  status: ('A' for Active; 'I' for Inactive)
REMARK    1  A    between atoms: C_2  and  C_3
REMARK    2  A    between atoms: C_2  and  C_21
REMARK    3  A    between atoms: C_3  and  C_12
REMARK    4  A    between atoms: C_4  and  C_5
REMARK                            x       y       z     vdW  Elec       q    Type
REMARK                         _______ _______ _______ _____ _____    ______ ____
ROOT
ATOM      1  C   UNL     1       4.554   4.709  18.234  0.00  0.00    +0.000 C 
ATOM      2  C   UNL     1       5.880   4.788  17.989  0.00  0.00    +0.000 C 
ENDROOT
BRANCH   1   3
ATOM      3  C   UNL     1       3.754   5.890  18.373  0.00  0.00    +0.000 A 
ATOM      4  N   UNL     1       3.446   6.833  17.499  0.00  0.00    +0.000 NA
ATOM      5  C   UNL     1       2.662   7.738  18.163  0.00  0.00    +0.000 A 
ATOM      6  C   UNL     1       2.098   8.935  17.702  0.00  0.00    +0.000 A 
ATOM      7  C   UNL     1       1.367   9.718  18.602  0.00  0.00    +0.000 A 
ATOM      8  C   UNL     1       1.184   9.305  19.924  0.00  0.00    +0.000 A 
ATOM      9  C   UNL     1       1.719   8.098  20.393  0.00  0.00    +0.000 A 
ATOM     10  C   UNL     1       2.461   7.347  19.478  0.00  0.00    +0.000 A 
ATOM     11  N   UNL     1       3.142   6.162  19.581  0.00  0.00    +0.000 N 
ATOM     12  H   UNL     1       3.230   5.585  20.411  0.00  0.00    +0.000 HD
ENDBRANCH   1   3
BRANCH   2  13
ATOM     13  C   UNL     1       6.682   6.017  17.976  0.00  0.00    +0.000 A 
ATOM     14  C   UNL     1       7.716   6.177  18.910  0.00  0.00    +0.000 A 
ATOM     15  C   UNL     1       8.430   7.376  18.969  0.00  0.00    +0.000 A 
ATOM     16  C   UNL     1       8.116   8.410  18.088  0.00  0.00    +0.000 A 
ATOM     17 CL   UNL     1       8.965   9.904  18.190  0.00  0.00    +0.000 Cl
ATOM     18  C   UNL     1       7.104   8.248  17.144  0.00  0.00    +0.000 A 
ATOM     19  C   UNL     1       6.389   7.052  17.082  0.00  0.00    +0.000 A 
ENDBRANCH   2  13
BRANCH   1  21
ATOM     20  O   UNL     1       4.144   2.484  17.493  0.00  0.00    +0.000 OA
ATOM     21  C   UNL     1       3.888   3.357  18.328  0.00  0.00    +0.000 C 
BRANCH  21  22
ATOM     22  C   UNL     1       2.895   3.050  19.403  0.00  0.00    +0.000 A 
ATOM     23  C   UNL     1       3.385   2.726  20.676  0.00  0.00    +0.000 A 
ATOM     24  C   UNL     1       2.507   2.443  21.725  0.00  0.00    +0.000 A 
ATOM     25  C   UNL     1       1.131   2.487  21.512  0.00  0.00    +0.000 A 
ATOM     26  C   UNL     1       0.632   2.780  20.244  0.00  0.00    +0.000 A 
ATOM     27  C   UNL     1       1.509   3.035  19.187  0.00  0.00    +0.000 A 
ENDBRANCH  21  22
ENDBRANCH   1  21
TORSDOF 4
ENDMDL
MODEL 2
REMARK VINA RESULT:      -8.3      2.733      6.097
REMARK  Name = 
REMARK  4 active torsions:
REMARK  status: ('A' for Active; 'I' for Inactive)
REMARK    1  A    between atoms: C_2  and  C_3
REMARK    2  A    between atoms: C_2  and  C_21
REMARK    3  A    between atoms: C_3  and  C_12
REMARK    4  A    between atoms: C_4  and  C_5
REMARK                            x       y       z     vdW  Elec       q    Type
REMARK                         _______ _______ _______ _____ _____    ______ ____
ROOT
ATOM      1  C   UNL     1       3.348   7.148  17.671  0.00  0.00    +0.000 C 
ATOM      2  C   UNL     1       2.837   8.390  17.810  0.00  0.00    +0.000 C 
ENDROOT
BRANCH   1   3
ATOM      3  C   UNL     1       2.820   6.043  18.415  0.00  0.00    +0.000 A 
ATOM      4  N   UNL     1       1.947   5.110  18.074  0.00  0.00    +0.000 NA
ATOM      5  C   UNL     1       1.790   4.304  19.169  0.00  0.00    +0.000 A 
ATOM      6  C   UNL     1       0.957   3.192  19.345  0.00  0.00    +0.000 A 
ATOM      7  C   UNL     1       0.942   2.559  20.593  0.00  0.00    +0.000 A 
ATOM      8  C   UNL     1       1.756   3.013  21.634  0.00  0.00    +0.000 A 
ATOM      9  C   UNL     1       2.615   4.107  21.466  0.00  0.00    +0.000 A 
ATOM     10  C   UNL     1       2.593   4.731  20.216  0.00  0.00    +0.000 A 
ATOM     11  N   UNL     1       3.254   5.819  19.707  0.00  0.00    +0.000 N 
ATOM     12  H   UNL     1       3.924   6.403  20.196  0.00  0.00    +0.000 HD
ENDBRANCH   1   3
BRANCH   2  13
ATOM     13  C   UNL     1       1.826   8.803  18.791  0.00  0.00    +0.000 A 
ATOM     14  C   UNL     1       0.843   9.732  18.421  0.00  0.00    +0.000 A 
ATOM     15  C   UNL     1      -0.071  10.202  19.367  0.00  0.00    +0.000 A 
ATOM     16  C   UNL     1      -0.007   9.734  20.678  0.00  0.00    +0.000 A 
ATOM     17 CL   UNL     1      -1.104  10.346  21.856  0.00  0.00    +0.000 Cl
ATOM     18  C   UNL     1       0.954   8.795  21.046  0.00  0.00    +0.000 A 
ATOM     19  C   UNL     1       1.868   8.323  20.104  0.00  0.00    +0.000 A 
ENDBRANCH   2  13
BRANCH   1  21
ATOM     20  O   UNL     1       4.399   7.361  15.546  0.00  0.00    +0.000 OA
ATOM     21  C   UNL     1       4.470   6.904  16.691  0.00  0.00    +0.000 C 
BRANCH  21  22
ATOM     22  C   UNL     1       5.669   6.091  17.064  0.00  0.00    +0.000 A 
ATOM     23  C   UNL     1       5.997   4.996  16.252  0.00  0.00    +0.000 A 
ATOM     24  C   UNL     1       7.114   4.208  16.541  0.00  0.00    +0.000 A 
ATOM     25  C   UNL     1       7.915   4.510  17.639  0.00  0.00    +0.000 A 
ATOM     26  C   UNL     1       7.583   5.579  18.469  0.00  0.00    +0.000 A 
ATOM     27  C   UNL     1       6.450   6.351  18.200  0.00  0.00    +0.000 A 
ENDBRANCH  21  22
ENDBRANCH   1  21
TORSDOF 4
ENDMDL
MODEL 3
REMARK VINA RESULT:      -8.3      2.736      6.176
REMARK  Name = 
REMARK  4 active torsions:
REMARK  status: ('A' for Active; 'I' for Inactive)
REMARK    1  A    between atoms: C_2  and  C_3
REMARK    2  A    between atoms: C_2  and  C_21
REMARK    3  A    between atoms: C_3  and  C_12
REMARK    4  A    between atoms: C_4  and  C_5
REMARK                            x       y       z     vdW  Elec       q    Type
REMARK                         _______ _______ _______ _____ _____    ______ ____
ROOT
ATOM      1  C   UNL     1       3.354   7.224  17.643  0.00  0.00    +0.000 C 
ATOM      2  C   UNL     1       2.788   8.450  17.671  0.00  0.00    +0.000 C 
ENDROOT
BRANCH   1   3
ATOM      3  C   UNL     1       2.878   6.169  18.488  0.00  0.00    +0.000 A 
ATOM      4  N   UNL     1       3.089   5.927  19.771  0.00  0.00    +0.000 NA
ATOM      5  C   UNL     1       2.404   4.780  20.069  0.00  0.00    +0.000 A 
ATOM      6  C   UNL     1       2.324   4.080  21.279  0.00  0.00    +0.000 A 
ATOM      7  C   UNL     1       1.587   2.890  21.315  0.00  0.00    +0.000 A 
ATOM      8  C   UNL     1       0.928   2.424  20.174  0.00  0.00    +0.000 A 
ATOM      9  C   UNL     1       0.976   3.127  18.963  0.00  0.00    +0.000 A 
ATOM     10  C   UNL     1       1.735   4.299  18.953  0.00  0.00    +0.000 A 
ATOM     11  N   UNL     1       2.031   5.209  17.970  0.00  0.00    +0.000 N 
ATOM     12  H   UNL     1       1.722   5.177  17.005  0.00  0.00    +0.000 HD
ENDBRANCH   1   3
BRANCH   2  13
ATOM     13  C   UNL     1       1.763   8.905  18.618  0.00  0.00    +0.000 A 
ATOM     14  C   UNL     1       0.731   9.741  18.170  0.00  0.00    +0.000 A 
ATOM     15  C   UNL     1      -0.201  10.255  19.075  0.00  0.00    +0.000 A 
ATOM     16  C   UNL     1      -0.104   9.925  20.425  0.00  0.00    +0.000 A 
ATOM     17 CL   UNL     1      -1.224  10.594  21.549  0.00  0.00    +0.000 Cl
ATOM     18  C   UNL     1       0.908   9.079  20.873  0.00  0.00    +0.000 A 
ATOM     19  C   UNL     1       1.839   8.563  19.972  0.00  0.00    +0.000 A 
ENDBRANCH   2  13
BRANCH   1  21
ATOM     20  O   UNL     1       4.424   7.361  15.521  0.00  0.00    +0.000 OA
ATOM     21  C   UNL     1       4.481   6.940  16.680  0.00  0.00    +0.000 C 
BRANCH  21  22
ATOM     22  C   UNL     1       5.671   6.132  17.089  0.00  0.00    +0.000 A 
ATOM     23  C   UNL     1       6.021   5.031  16.295  0.00  0.00    +0.000 A 
ATOM     24  C   UNL     1       7.131   4.246  16.617  0.00  0.00    +0.000 A 
ATOM     25  C   UNL     1       7.904   4.558  17.733  0.00  0.00    +0.000 A 
ATOM     26  C   UNL     1       7.550   5.633  18.546  0.00  0.00    +0.000 A 
ATOM     27  C   UNL     1       6.424   6.401  18.242  0.00  0.00    +0.000 A 
ENDBRANCH  21  22
ENDBRANCH   1  21
TORSDOF 4
ENDMDL
MODEL 4
REMARK VINA RESULT:      -8.2      4.821      7.658
REMARK  Name = 
REMARK  4 active torsions:
REMARK  status: ('A' for Active; 'I' for Inactive)
REMARK    1  A    between atoms: C_2  and  C_3
REMARK    2  A    between atoms: C_2  and  C_21
REMARK    3  A    between atoms: C_3  and  C_12
REMARK    4  A    between atoms: C_4  and  C_5
REMARK                            x       y       z     vdW  Elec       q    Type
REMARK                         _______ _______ _______ _____ _____    ______ ____
ROOT
ATOM      1  C   UNL     1       0.730  10.070  19.304  0.00  0.00    +0.000 C 
ATOM      2  C   UNL     1       1.072  10.553  20.518  0.00  0.00    +0.000 C 
ENDROOT
BRANCH   1   3
ATOM      3  C   UNL     1      -0.531  10.395  18.706  0.00  0.00    +0.000 A 
ATOM      4  N   UNL     1      -1.598  10.993  19.209  0.00  0.00    +0.000 NA
ATOM      5  C   UNL     1      -2.528  11.038  18.206  0.00  0.00    +0.000 A 
ATOM      6  C   UNL     1      -3.836  11.539  18.227  0.00  0.00    +0.000 A 
ATOM      7  C   UNL     1      -4.614  11.423  17.070  0.00  0.00    +0.000 A 
ATOM      8  C   UNL     1      -4.091  10.841  15.912  0.00  0.00    +0.000 A 
ATOM      9  C   UNL     1      -2.776  10.359  15.867  0.00  0.00    +0.000 A 
ATOM     10  C   UNL     1      -2.030  10.470  17.043  0.00  0.00    +0.000 A 
ATOM     11  N   UNL     1      -0.755  10.091  17.377  0.00  0.00    +0.000 N 
ATOM     12  H   UNL     1      -0.086   9.626  16.774  0.00  0.00    +0.000 HD
ENDBRANCH   1   3
BRANCH   2  13
ATOM     13  C   UNL     1       0.200  11.314  21.420  0.00  0.00    +0.000 A 
ATOM     14  C   UNL     1      -0.641  10.629  22.309  0.00  0.00    +0.000 A 
ATOM     15  C   UNL     1      -1.541  11.335  23.111  0.00  0.00    +0.000 A 
ATOM     16  C   UNL     1      -1.592  12.726  23.029  0.00  0.00    +0.000 A 
ATOM     17 CL   UNL     1      -2.732  13.594  23.983  0.00  0.00    +0.000 Cl
ATOM     18  C   UNL     1      -0.745  13.413  22.162  0.00  0.00    +0.000 A 
ATOM     19  C   UNL     1       0.156  12.711  21.361  0.00  0.00    +0.000 A 
ENDBRANCH   2  13
BRANCH   1  21
ATOM     20  O   UNL     1       2.202   9.616  17.489  0.00  0.00    +0.000 OA
ATOM     21  C   UNL     1       1.703   9.204  18.540  0.00  0.00    +0.000 C 
BRANCH  21  22
ATOM     22  C   UNL     1       2.063   7.832  19.013  0.00  0.00    +0.000 A 
ATOM     23  C   UNL     1       2.870   7.042  18.182  0.00  0.00    +0.000 A 
ATOM     24  C   UNL     1       3.253   5.758  18.575  0.00  0.00    +0.000 A 
ATOM     25  C   UNL     1       2.838   5.253  19.805  0.00  0.00    +0.000 A 
ATOM     26  C   UNL     1       2.013   6.018  20.628  0.00  0.00    +0.000 A 
ATOM     27  C   UNL     1       1.605   7.291  20.224  0.00  0.00    +0.000 A 
ENDBRANCH  21  22
ENDBRANCH   1  21
TORSDOF 4
ENDMDL
MODEL 5
REMARK VINA RESULT:      -8.1      2.651      6.184
REMARK  Name = 
REMARK  4 active torsions:
REMARK  status: ('A' for Active; 'I' for Inactive)
REMARK    1  A    between atoms: C_2  and  C_3
REMARK    2  A    between atoms: C_2  and  C_21
REMARK    3  A    between atoms: C_3  and  C_12
REMARK    4  A    between atoms: C_4  and  C_5
REMARK                            x       y       z     vdW  Elec       q    Type
REMARK                         _______ _______ _______ _____ _____    ______ ____
ROOT
ATOM      1  C   UNL     1       3.502   7.240  17.629  0.00  0.00    +0.000 C 
ATOM      2  C   UNL     1       2.950   8.470  17.555  0.00  0.00    +0.000 C 
ENDROOT
BRANCH   1   3
ATOM      3  C   UNL     1       2.915   6.212  18.437  0.00  0.00    +0.000 A 
ATOM      4  N   UNL     1       2.966   6.003  19.741  0.00  0.00    +0.000 NA
ATOM      5  C   UNL     1       2.236   4.870  19.983  0.00  0.00    +0.000 A 
ATOM      6  C   UNL     1       2.001   4.203  21.193  0.00  0.00    +0.000 A 
ATOM      7  C   UNL     1       1.252   3.022  21.169  0.00  0.00    +0.000 A 
ATOM      8  C   UNL     1       0.731   2.530  19.969  0.00  0.00    +0.000 A 
ATOM      9  C   UNL     1       0.934   3.200  18.755  0.00  0.00    +0.000 A 
ATOM     10  C   UNL     1       1.702   4.365  18.807  0.00  0.00    +0.000 A 
ATOM     11  N   UNL     1       2.126   5.245  17.845  0.00  0.00    +0.000 N 
ATOM     12  H   UNL     1       1.937   5.190  16.850  0.00  0.00    +0.000 HD
ENDBRANCH   1   3
BRANCH   2  13
ATOM     13  C   UNL     1       1.821   8.959  18.355  0.00  0.00    +0.000 A 
ATOM     14  C   UNL     1       0.699   9.499  17.710  0.00  0.00    +0.000 A 
ATOM     15  C   UNL     1      -0.344  10.049  18.458  0.00  0.00    +0.000 A 
ATOM     16  C   UNL     1      -0.269  10.050  19.849  0.00  0.00    +0.000 A 
ATOM     17 CL   UNL     1      -1.533  10.768  20.771  0.00  0.00    +0.000 Cl
ATOM     18  C   UNL     1       0.834   9.496  20.496  0.00  0.00    +0.000 A 
ATOM     19  C   UNL     1       1.877   8.945  19.753  0.00  0.00    +0.000 A 
ENDBRANCH   2  13
BRANCH   1  21
ATOM     20  O   UNL     1       4.737   7.096  15.599  0.00  0.00    +0.000 OA
ATOM     21  C   UNL     1       4.737   6.921  16.821  0.00  0.00    +0.000 C 
BRANCH  21  22
ATOM     22  C   UNL     1       5.969   6.370  17.464  0.00  0.00    +0.000 A 
ATOM     23  C   UNL     1       6.933   7.279  17.923  0.00  0.00    +0.000 A 
ATOM     24  C   UNL     1       8.098   6.825  18.546  0.00  0.00    +0.000 A 
ATOM     25  C   UNL     1       8.308   5.459  18.720  0.00  0.00    +0.000 A 
ATOM     26  C   UNL     1       7.371   4.545  18.244  0.00  0.00    +0.000 A 
ATOM     27  C   UNL     1       6.219   4.995  17.595  0.00  0.00    +0.000 A 
ENDBRANCH  21  22
ENDBRANCH   1  21
TORSDOF 4
ENDMDL
MODEL 6
REMARK VINA RESULT:      -8.1      4.800      7.622
REMARK  Name = 
REMARK  4 active torsions:
REMARK  status: ('A' for Active; 'I' for Inactive)
REMARK    1  A    between atoms: C_2  and  C_3
REMARK    2  A    between atoms: C_2  and  C_21
REMARK    3  A    between atoms: C_3  and  C_12
REMARK    4  A    between atoms: C_4  and  C_5
REMARK                            x       y       z     vdW  Elec       q    Type
REMARK                         _______ _______ _______ _____ _____    ______ ____
ROOT
ATOM      1  C   UNL     1       0.735  10.079  19.211  0.00  0.00    +0.000 C 
ATOM      2  C   UNL     1       1.074  10.607  20.407  0.00  0.00    +0.000 C 
ENDROOT
BRANCH   1   3
ATOM      3  C   UNL     1      -0.527  10.378  18.601  0.00  0.00    +0.000 A 
ATOM      4  N   UNL     1      -1.599  10.984  19.083  0.00  0.00    +0.000 NA
ATOM      5  C   UNL     1      -2.526  10.994  18.077  0.00  0.00    +0.000 A 
ATOM      6  C   UNL     1      -3.838  11.488  18.079  0.00  0.00    +0.000 A 
ATOM      7  C   UNL     1      -4.611  11.333  16.923  0.00  0.00    +0.000 A 
ATOM      8  C   UNL     1      -4.081  10.720  15.785  0.00  0.00    +0.000 A 
ATOM      9  C   UNL     1      -2.763  10.245  15.758  0.00  0.00    +0.000 A 
ATOM     10  C   UNL     1      -2.021  10.396  16.932  0.00  0.00    +0.000 A 
ATOM     11  N   UNL     1      -0.745  10.035  17.281  0.00  0.00    +0.000 N 
ATOM     12  H   UNL     1      -0.071   9.556  16.694  0.00  0.00    +0.000 HD
ENDBRANCH   1   3
BRANCH   2  13
ATOM     13  C   UNL     1       0.199  11.399  21.280  0.00  0.00    +0.000 A 
ATOM     14  C   UNL     1       0.248  12.799  21.221  0.00  0.00    +0.000 A 
ATOM     15  C   UNL     1      -0.512  13.567  22.107  0.00  0.00    +0.000 A 
ATOM     16  C   UNL     1      -1.327  12.933  23.043  0.00  0.00    +0.000 A 
ATOM     17 CL   UNL     1      -2.230  13.877  24.164  0.00  0.00    +0.000 Cl
ATOM     18  C   UNL     1      -1.396  11.542  23.092  0.00  0.00    +0.000 A 
ATOM     19  C   UNL     1      -0.639  10.773  22.208  0.00  0.00    +0.000 A 
ENDBRANCH   2  13
BRANCH   1  21
ATOM     20  O   UNL     1       2.280   9.598  17.466  0.00  0.00    +0.000 OA
ATOM     21  C   UNL     1       1.710   9.187  18.481  0.00  0.00    +0.000 C 
BRANCH  21  22
ATOM     22  C   UNL     1       1.990   7.794  18.943  0.00  0.00    +0.000 A 
ATOM     23  C   UNL     1       1.625   7.451  20.253  0.00  0.00    +0.000 A 
ATOM     24  C   UNL     1       1.847   6.160  20.738  0.00  0.00    +0.000 A 
ATOM     25  C   UNL     1       2.431   5.198  19.917  0.00  0.00    +0.000 A 
ATOM     26  C   UNL     1       2.823   5.534  18.623  0.00  0.00    +0.000 A 
ATOM     27  C   UNL     1       2.629   6.832  18.146  0.00  0.00    +0.000 A 
ENDBRANCH  21  22
ENDBRANCH   1  21
TORSDOF 4
ENDMDL
MODEL 7
REMARK VINA RESULT:      -8.0      2.580      6.266
REMARK  Name = 
REMARK  4 active torsions:
REMARK  status: ('A' for Active; 'I' for Inactive)
REMARK    1  A    between atoms: C_2  and  C_3
REMARK    2  A    between atoms: C_2  and  C_21
REMARK    3  A    between atoms: C_3  and  C_12
REMARK    4  A    between atoms: C_4  and  C_5
REMARK                            x       y       z     vdW  Elec       q    Type
REMARK                         _______ _______ _______ _____ _____    ______ ____
ROOT
ATOM      1  C   UNL     1       3.567   7.094  17.676  0.00  0.00    +0.000 C 
ATOM      2  C   UNL     1       3.048   8.340  17.630  0.00  0.00    +0.000 C 
ENDROOT
BRANCH   1   3
ATOM      3  C   UNL     1       2.904   6.042  18.389  0.00  0.00    +0.000 A 
ATOM      4  N   UNL     1       1.963   5.196  18.004  0.00  0.00    +0.000 NA
ATOM      5  C   UNL     1       1.682   4.408  19.088  0.00  0.00    +0.000 A 
ATOM      6  C   UNL     1       0.742   3.378  19.219  0.00  0.00    +0.000 A 
ATOM      7  C   UNL     1       0.611   2.748  20.462  0.00  0.00    +0.000 A 
ATOM      8  C   UNL     1       1.417   3.123  21.541  0.00  0.00    +0.000 A 
ATOM      9  C   UNL     1       2.380   4.132  21.418  0.00  0.00    +0.000 A 
ATOM     10  C   UNL     1       2.474   4.756  20.172  0.00  0.00    +0.000 A 
ATOM     11  N   UNL     1       3.256   5.778  19.698  0.00  0.00    +0.000 N 
ATOM     12  H   UNL     1       3.955   6.295  20.219  0.00  0.00    +0.000 HD
ENDBRANCH   1   3
BRANCH   2  13
ATOM     13  C   UNL     1       1.880   8.817  18.379  0.00  0.00    +0.000 A 
ATOM     14  C   UNL     1       0.870   9.523  17.710  0.00  0.00    +0.000 A 
ATOM     15  C   UNL     1      -0.204  10.060  18.423  0.00  0.00    +0.000 A 
ATOM     16  C   UNL     1      -0.271   9.882  19.804  0.00  0.00    +0.000 A 
ATOM     17 CL   UNL     1      -1.570  10.582  20.691  0.00  0.00    +0.000 Cl
ATOM     18  C   UNL     1       0.718   9.164  20.472  0.00  0.00    +0.000 A 
ATOM     19  C   UNL     1       1.791   8.625  19.762  0.00  0.00    +0.000 A 
ENDBRANCH   2  13
BRANCH   1  21
ATOM     20  O   UNL     1       4.807   6.481  15.738  0.00  0.00    +0.000 OA
ATOM     21  C   UNL     1       4.845   6.785  16.935  0.00  0.00    +0.000 C 
BRANCH  21  22
ATOM     22  C   UNL     1       6.172   6.813  17.623  0.00  0.00    +0.000 A 
ATOM     23  C   UNL     1       6.972   7.953  17.460  0.00  0.00    +0.000 A 
ATOM     24  C   UNL     1       8.215   8.045  18.090  0.00  0.00    +0.000 A 
ATOM     25  C   UNL     1       8.668   7.000  18.892  0.00  0.00    +0.000 A 
ATOM     26  C   UNL     1       7.895   5.851  19.040  0.00  0.00    +0.000 A 
ATOM     27  C   UNL     1       6.664   5.745  18.388  0.00  0.00    +0.000 A 
ENDBRANCH  21  22
ENDBRANCH   1  21
TORSDOF 4
ENDMDL
MODEL 8
REMARK VINA RESULT:      -8.0      2.826      6.011
REMARK  Name = 
REMARK  4 active torsions:
REMARK  status: ('A' for Active; 'I' for Inactive)
REMARK    1  A    between atoms: C_2  and  C_3
REMARK    2  A    between atoms: C_2  and  C_21
REMARK    3  A    between atoms: C_3  and  C_12
REMARK    4  A    between atoms: C_4  and  C_5
REMARK                            x       y       z     vdW  Elec       q    Type
REMARK                         _______ _______ _______ _____ _____    ______ ____
ROOT
ATOM      1  C   UNL     1       4.412   6.236  17.857  0.00  0.00    +0.000 C 
ATOM      2  C   UNL     1       4.023   7.517  17.681  0.00  0.00    +0.000 C 
ENDROOT
BRANCH   1   3
ATOM      3  C   UNL     1       3.552   5.282  18.495  0.00  0.00    +0.000 A 
ATOM      4  N   UNL     1       2.552   4.563  18.014  0.00  0.00    +0.000 NA
ATOM      5  C   UNL     1       2.068   3.822  19.059  0.00  0.00    +0.000 A 
ATOM      6  C   UNL     1       0.994   2.924  19.091  0.00  0.00    +0.000 A 
ATOM      7  C   UNL     1       0.663   2.322  20.310  0.00  0.00    +0.000 A 
ATOM      8  C   UNL     1       1.402   2.594  21.465  0.00  0.00    +0.000 A 
ATOM      9  C   UNL     1       2.496   3.469  21.443  0.00  0.00    +0.000 A 
ATOM     10  C   UNL     1       2.789   4.070  20.217  0.00  0.00    +0.000 A 
ATOM     11  N   UNL     1       3.739   4.980  19.830  0.00  0.00    +0.000 N 
ATOM     12  H   UNL     1       4.446   5.404  20.420  0.00  0.00    +0.000 HD
ENDBRANCH   1   3
BRANCH   2  13
ATOM     13  C   UNL     1       2.800   8.128  18.215  0.00  0.00    +0.000 A 
ATOM     14  C   UNL     1       2.089   9.049  17.431  0.00  0.00    +0.000 A 
ATOM     15  C   UNL     1       0.974   9.706  17.957  0.00  0.00    +0.000 A 
ATOM     16  C   UNL     1       0.566   9.435  19.262  0.00  0.00    +0.000 A 
ATOM     17 CL   UNL     1      -0.780  10.277  19.926  0.00  0.00    +0.000 Cl
ATOM     18  C   UNL     1       1.256   8.505  20.037  0.00  0.00    +0.000 A 
ATOM     19  C   UNL     1       2.369   7.846  19.515  0.00  0.00    +0.000 A 
ENDBRANCH   2  13
BRANCH   1  21
ATOM     20  O   UNL     1       6.764   5.922  18.044  0.00  0.00    +0.000 OA
ATOM     21  C   UNL     1       5.757   5.782  17.343  0.00  0.00    +0.000 C 
BRANCH  21  22
ATOM     22  C   UNL     1       5.910   5.184  15.982  0.00  0.00    +0.000 A 
ATOM     23  C   UNL     1       7.126   5.381  15.312  0.00  0.00    +0.000 A 
ATOM     24  C   UNL     1       7.335   4.834  14.043  0.00  0.00    +0.000 A 
ATOM     25  C   UNL     1       6.333   4.081  13.435  0.00  0.00    +0.000 A 
ATOM     26  C   UNL     1       5.110   3.902  14.079  0.00  0.00    +0.000 A 
ATOM     27  C   UNL     1       4.889   4.472  15.335  0.00  0.00    +0.000 A 
ENDBRANCH  21  22
ENDBRANCH   1  21
TORSDOF 4
ENDMDL
MODEL 9
REMARK VINA RESULT:      -7.9      0.140      1.145
REMARK  Name = 
REMARK  4 active torsions:
REMARK  status: ('A' for Active; 'I' for Inactive)
REMARK    1  A    between atoms: C_2  and  C_3
REMARK    2  A    between atoms: C_2  and  C_21
REMARK    3  A    between atoms: C_3  and  C_12
REMARK    4  A    between atoms: C_4  and  C_5
REMARK                            x       y       z     vdW  Elec       q    Type
REMARK                         _______ _______ _______ _____ _____    ______ ____
ROOT
ATOM      1  C   UNL     1       4.503   4.652  18.263  0.00  0.00    +0.000 C 
ATOM      2  C   UNL     1       5.799   4.751  17.898  0.00  0.00    +0.000 C 
ENDROOT
BRANCH   1   3
ATOM      3  C   UNL     1       3.727   5.819  18.566  0.00  0.00    +0.000 A 
ATOM      4  N   UNL     1       3.190   6.229  19.702  0.00  0.00    +0.000 NA
ATOM      5  C   UNL     1       2.544   7.404  19.426  0.00  0.00    +0.000 A 
ATOM      6  C   UNL     1       1.792   8.227  20.274  0.00  0.00    +0.000 A 
ATOM      7  C   UNL     1       1.183   9.365  19.732  0.00  0.00    +0.000 A 
ATOM      8  C   UNL     1       1.342   9.686  18.381  0.00  0.00    +0.000 A 
ATOM      9  C   UNL     1       2.114   8.887  17.526  0.00  0.00    +0.000 A 
ATOM     10  C   UNL     1       2.692   7.748  18.090  0.00  0.00    +0.000 A 
ATOM     11  N   UNL     1       3.464   6.741  17.571  0.00  0.00    +0.000 N 
ATOM     12  H   UNL     1       3.769   6.648  16.609  0.00  0.00    +0.000 HD
ENDBRANCH   1   3
BRANCH   2  13
ATOM     13  C   UNL     1       6.604   5.978  17.900  0.00  0.00    +0.000 A 
ATOM     14  C   UNL     1       7.647   6.119  18.827  0.00  0.00    +0.000 A 
ATOM     15  C   UNL     1       8.365   7.315  18.900  0.00  0.00    +0.000 A 
ATOM     16  C   UNL     1       8.045   8.365  18.041  0.00  0.00    +0.000 A 
ATOM     17 CL   UNL     1       8.898   9.855  18.161  0.00  0.00    +0.000 Cl
ATOM     18  C   UNL     1       7.023   8.223  17.104  0.00  0.00    +0.000 A 
ATOM     19  C   UNL     1       6.305   7.029  17.027  0.00  0.00    +0.000 A 
ENDBRANCH   2  13
BRANCH   1  21
ATOM     20  O   UNL     1       4.109   2.443  17.469  0.00  0.00    +0.000 OA
ATOM     21  C   UNL     1       3.840   3.297  18.320  0.00  0.00    +0.000 C 
BRANCH  21  22
ATOM     22  C   UNL     1       2.835   2.963  19.375  0.00  0.00    +0.000 A 
ATOM     23  C   UNL     1       3.305   2.708  20.672  0.00  0.00    +0.000 A 
ATOM     24  C   UNL     1       2.414   2.405  21.704  0.00  0.00    +0.000 A 
ATOM     25  C   UNL     1       1.045   2.359  21.451  0.00  0.00    +0.000 A 
ATOM     26  C   UNL     1       0.568   2.584  20.161  0.00  0.00    +0.000 A 
ATOM     27  C   UNL     1       1.459   2.858  19.122  0.00  0.00    +0.000 A 
ENDBRANCH  21  22
ENDBRANCH   1  21
TORSDOF 4
ENDMDL
