MODEL 1
REMARK VINA RESULT:      -7.1      0.000      0.000
REMARK  Name = 
REMARK  6 active torsions:
REMARK  status: ('A' for Active; 'I' for Inactive)
REMARK    1  A    between atoms: C_2  and  O_9
REMARK    2  A    between atoms: N_3  and  C_4
REMARK    3  A    between atoms: O_9  and  C_10
REMARK    4  A    between atoms: C_10  and  C_11
REMARK    5  A    between atoms: C_11  and  C_12
REMARK    6  A    between atoms: C_13  and  C_14
REMARK                            x       y       z     vdW  Elec       q    Type
REMARK                         _______ _______ _______ _____ _____    ______ ____
ROOT
ATOM      1  O   UNL     1       5.203   2.852  19.625  0.00  0.00    +0.000 OA
ENDROOT
BRANCH   1   3
ATOM      2  O   UNL     1       5.113   5.139  19.503  0.00  0.00    +0.000 OA
ATOM      3  C   UNL     1       5.220   4.042  18.980  0.00  0.00    +0.000 C 
ATOM      4  N   UNL     1       5.430   3.847  17.648  0.00  0.00    +0.000 N 
ATOM      5  H   UNL     1       5.435   2.888  17.325  0.00  0.00    +0.000 HD
BRANCH   4   6
ATOM      6  C   UNL     1       5.770   4.970  16.750  0.00  0.00    +0.000 C 
ATOM      7  C   UNL     1       7.161   5.616  17.017  0.00  0.00    +0.000 C 
ATOM      8  N   UNL     1       7.406   5.523  15.571  0.00  0.00    +0.000 N 
ATOM      9  C   UNL     1       6.417   4.604  15.386  0.00  0.00    +0.000 C 
ATOM     10  O   UNL     1       6.259   3.797  14.503  0.00  0.00    +0.000 OA
ATOM     11  H   UNL     1       8.284   5.370  15.092  0.00  0.00    +0.000 HD
ENDBRANCH   4   6
ENDBRANCH   1   3
BRANCH   1  12
ATOM     12  C   UNL     1       3.907   2.237  19.749  0.00  0.00    +0.000 C 
BRANCH  12  13
ATOM     13  C   UNL     1       3.166   2.666  21.027  0.00  0.00    +0.000 C 
BRANCH  13  14
ATOM     14  C   UNL     1       1.666   2.666  20.878  0.00  0.00    +0.000 C 
ATOM     15  C   UNL     1       0.931   3.648  20.334  0.00  0.00    +0.000 C 
BRANCH  15  16
ATOM     16  C   UNL     1       1.482   4.880  19.760  0.00  0.00    +0.000 A 
ATOM     17  C   UNL     1       1.784   4.940  18.396  0.00  0.00    +0.000 A 
ATOM     18  C   UNL     1       2.284   6.118  17.837  0.00  0.00    +0.000 A 
ATOM     19  C   UNL     1       2.483   7.241  18.641  0.00  0.00    +0.000 A 
ATOM     20  C   UNL     1       2.192   7.184  20.003  0.00  0.00    +0.000 A 
ATOM     21  C   UNL     1       1.696   6.003  20.565  0.00  0.00    +0.000 A 
ENDBRANCH  15  16
ENDBRANCH  13  14
ENDBRANCH  12  13
ENDBRANCH   1  12
TORSDOF 6
ENDMDL
MODEL 2
REMARK VINA RESULT:      -6.9      0.687      1.366
REMARK  Name = 
REMARK  6 active torsions:
REMARK  status: ('A' for Active; 'I' for Inactive)
REMARK    1  A    between atoms: C_2  and  O_9
REMARK    2  A    between atoms: N_3  and  C_4
REMARK    3  A    between atoms: O_9  and  C_10
REMARK    4  A    between atoms: C_10  and  C_11
REMARK    5  A    between atoms: C_11  and  C_12
REMARK    6  A    between atoms: C_13  and  C_14
REMARK                            x       y       z     vdW  Elec       q    Type
REMARK                         _______ _______ _______ _____ _____    ______ ____
ROOT
ATOM      1  O   UNL     1       5.341   2.934  19.638  0.00  0.00    +0.000 OA
ENDROOT
BRANCH   1   3
ATOM      2  O   UNL     1       5.225   5.217  19.471  0.00  0.00    +0.000 OA
ATOM      3  C   UNL     1       5.333   4.110  18.969  0.00  0.00    +0.000 C 
ATOM      4  N   UNL     1       5.520   3.890  17.637  0.00  0.00    +0.000 N 
ATOM      5  H   UNL     1       5.529   2.925  17.334  0.00  0.00    +0.000 HD
BRANCH   4   6
ATOM      6  C   UNL     1       5.833   4.997  16.710  0.00  0.00    +0.000 C 
ATOM      7  C   UNL     1       7.223   5.661  16.936  0.00  0.00    +0.000 C 
ATOM      8  N   UNL     1       7.440   5.541  15.487  0.00  0.00    +0.000 N 
ATOM      9  C   UNL     1       6.456   4.609  15.340  0.00  0.00    +0.000 C 
ATOM     10  O   UNL     1       6.287   3.783  14.477  0.00  0.00    +0.000 OA
ATOM     11  H   UNL     1       8.310   5.385  14.994  0.00  0.00    +0.000 HD
ENDBRANCH   4   6
ENDBRANCH   1   3
BRANCH   1  12
ATOM     12  C   UNL     1       4.046   2.443  20.034  0.00  0.00    +0.000 C 
BRANCH  12  13
ATOM     13  C   UNL     1       3.240   1.874  18.853  0.00  0.00    +0.000 C 
BRANCH  13  14
ATOM     14  C   UNL     1       1.752   1.867  19.093  0.00  0.00    +0.000 C 
ATOM     15  C   UNL     1       0.980   2.951  19.264  0.00  0.00    +0.000 C 
BRANCH  15  16
ATOM     16  C   UNL     1       1.463   4.334  19.211  0.00  0.00    +0.000 A 
ATOM     17  C   UNL     1       1.555   5.086  20.387  0.00  0.00    +0.000 A 
ATOM     18  C   UNL     1       2.039   6.395  20.349  0.00  0.00    +0.000 A 
ATOM     19  C   UNL     1       2.435   6.956  19.135  0.00  0.00    +0.000 A 
ATOM     20  C   UNL     1       2.339   6.214  17.959  0.00  0.00    +0.000 A 
ATOM     21  C   UNL     1       1.849   4.906  17.995  0.00  0.00    +0.000 A 
ENDBRANCH  15  16
ENDBRANCH  13  14
ENDBRANCH  12  13
ENDBRANCH   1  12
TORSDOF 6
ENDMDL
MODEL 3
REMARK VINA RESULT:      -6.7      1.124      1.276
REMARK  Name = 
REMARK  6 active torsions:
REMARK  status: ('A' for Active; 'I' for Inactive)
REMARK    1  A    between atoms: C_2  and  O_9
REMARK    2  A    between atoms: N_3  and  C_4
REMARK    3  A    between atoms: O_9  and  C_10
REMARK    4  A    between atoms: C_10  and  C_11
REMARK    5  A    between atoms: C_11  and  C_12
REMARK    6  A    between atoms: C_13  and  C_14
REMARK                            x       y       z     vdW  Elec       q    Type
REMARK                         _______ _______ _______ _____ _____    ______ ____
ROOT
ATOM      1  O   UNL     1       4.150   2.762  18.861  0.00  0.00    +0.000 OA
ENDROOT
BRANCH   1   3
ATOM      2  O   UNL     1       5.721   4.245  19.628  0.00  0.00    +0.000 OA
ATOM      3  C   UNL     1       5.159   3.654  18.721  0.00  0.00    +0.000 C 
ATOM      4  N   UNL     1       5.503   3.764  17.406  0.00  0.00    +0.000 N 
ATOM      5  H   UNL     1       4.919   3.274  16.742  0.00  0.00    +0.000 HD
BRANCH   4   6
ATOM      6  C   UNL     1       6.745   4.447  16.991  0.00  0.00    +0.000 C 
ATOM      7  C   UNL     1       7.004   4.448  15.456  0.00  0.00    +0.000 C 
ATOM      8  N   UNL     1       7.280   5.887  15.572  0.00  0.00    +0.000 N 
ATOM      9  C   UNL     1       6.663   5.985  16.783  0.00  0.00    +0.000 C 
ATOM     10  O   UNL     1       6.187   6.944  17.340  0.00  0.00    +0.000 OA
ATOM     11  H   UNL     1       7.101   6.617  14.894  0.00  0.00    +0.000 HD
ENDBRANCH   4   6
ENDBRANCH   1   3
BRANCH   1  12
ATOM     12  C   UNL     1       4.107   2.078  20.128  0.00  0.00    +0.000 C 
BRANCH  12  13
ATOM     13  C   UNL     1       3.119   2.721  21.116  0.00  0.00    +0.000 C 
BRANCH  13  14
ATOM     14  C   UNL     1       1.681   2.616  20.677  0.00  0.00    +0.000 C 
ATOM     15  C   UNL     1       0.981   3.572  20.048  0.00  0.00    +0.000 C 
BRANCH  15  16
ATOM     16  C   UNL     1       1.523   4.876  19.652  0.00  0.00    +0.000 A 
ATOM     17  C   UNL     1       1.963   5.081  18.341  0.00  0.00    +0.000 A 
ATOM     18  C   UNL     1       2.456   6.327  17.949  0.00  0.00    +0.000 A 
ATOM     19  C   UNL     1       2.508   7.375  18.868  0.00  0.00    +0.000 A 
ATOM     20  C   UNL     1       2.078   7.175  20.180  0.00  0.00    +0.000 A 
ATOM     21  C   UNL     1       1.590   5.926  20.574  0.00  0.00    +0.000 A 
ENDBRANCH  15  16
ENDBRANCH  13  14
ENDBRANCH  12  13
ENDBRANCH   1  12
TORSDOF 6
ENDMDL
MODEL 4
REMARK VINA RESULT:      -6.7      2.099      3.751
REMARK  Name = 
REMARK  6 active torsions:
REMARK  status: ('A' for Active; 'I' for Inactive)
REMARK    1  A    between atoms: C_2  and  O_9
REMARK    2  A    between atoms: N_3  and  C_4
REMARK    3  A    between atoms: O_9  and  C_10
REMARK    4  A    between atoms: C_10  and  C_11
REMARK    5  A    between atoms: C_11  and  C_12
REMARK    6  A    between atoms: C_13  and  C_14
REMARK                            x       y       z     vdW  Elec       q    Type
REMARK                         _______ _______ _______ _____ _____    ______ ____
ROOT
ATOM      1  O   UNL     1       6.183   6.264  17.701  0.00  0.00    +0.000 OA
ENDROOT
BRANCH   1   3
ATOM      2  O   UNL     1       7.826   4.693  17.405  0.00  0.00    +0.000 OA
ATOM      3  C   UNL     1       6.962   5.435  16.967  0.00  0.00    +0.000 C 
ATOM      4  N   UNL     1       6.607   5.504  15.653  0.00  0.00    +0.000 N 
ATOM      5  H   UNL     1       5.922   6.207  15.404  0.00  0.00    +0.000 HD
BRANCH   4   6
ATOM      6  C   UNL     1       7.093   4.513  14.671  0.00  0.00    +0.000 C 
ATOM      7  C   UNL     1       6.009   3.993  13.682  0.00  0.00    +0.000 C 
ATOM      8  N   UNL     1       6.971   4.247  12.600  0.00  0.00    +0.000 N 
ATOM      9  C   UNL     1       7.735   5.072  13.371  0.00  0.00    +0.000 C 
ATOM     10  O   UNL     1       8.512   5.938  13.052  0.00  0.00    +0.000 OA
ATOM     11  H   UNL     1       6.784   4.536  11.648  0.00  0.00    +0.000 HD
ENDBRANCH   4   6
ENDBRANCH   1   3
BRANCH   1  12
ATOM     12  C   UNL     1       4.877   6.528  17.151  0.00  0.00    +0.000 C 
BRANCH  12  13
ATOM     13  C   UNL     1       3.782   5.643  17.773  0.00  0.00    +0.000 C 
BRANCH  13  14
ATOM     14  C   UNL     1       3.589   4.335  17.050  0.00  0.00    +0.000 C 
ATOM     15  C   UNL     1       3.065   3.218  17.576  0.00  0.00    +0.000 C 
BRANCH  15  16
ATOM     16  C   UNL     1       2.560   3.101  18.947  0.00  0.00    +0.000 A 
ATOM     17  C   UNL     1       1.212   3.358  19.219  0.00  0.00    +0.000 A 
ATOM     18  C   UNL     1       0.718   3.224  20.518  0.00  0.00    +0.000 A 
ATOM     19  C   UNL     1       1.570   2.830  21.550  0.00  0.00    +0.000 A 
ATOM     20  C   UNL     1       2.916   2.580  21.287  0.00  0.00    +0.000 A 
ATOM     21  C   UNL     1       3.413   2.720  19.988  0.00  0.00    +0.000 A 
ENDBRANCH  15  16
ENDBRANCH  13  14
ENDBRANCH  12  13
ENDBRANCH   1  12
TORSDOF 6
ENDMDL
MODEL 5
REMARK VINA RESULT:      -6.7      1.313      1.570
REMARK  Name = 
REMARK  6 active torsions:
REMARK  status: ('A' for Active; 'I' for Inactive)
REMARK    1  A    between atoms: C_2  and  O_9
REMARK    2  A    between atoms: N_3  and  C_4
REMARK    3  A    between atoms: O_9  and  C_10
REMARK    4  A    between atoms: C_10  and  C_11
REMARK    5  A    between atoms: C_11  and  C_12
REMARK    6  A    between atoms: C_13  and  C_14
REMARK                            x       y       z     vdW  Elec       q    Type
REMARK                         _______ _______ _______ _____ _____    ______ ____
ROOT
ATOM      1  O   UNL     1       4.820   3.394  19.714  0.00  0.00    +0.000 OA
ENDROOT
BRANCH   1   3
ATOM      2  O   UNL     1       6.451   5.001  19.611  0.00  0.00    +0.000 OA
ATOM      3  C   UNL     1       5.688   4.213  19.076  0.00  0.00    +0.000 C 
ATOM      4  N   UNL     1       5.633   3.995  17.732  0.00  0.00    +0.000 N 
ATOM      5  H   UNL     1       4.913   3.364  17.404  0.00  0.00    +0.000 HD
BRANCH   4   6
ATOM      6  C   UNL     1       6.659   4.541  16.820  0.00  0.00    +0.000 C 
ATOM      7  C   UNL     1       6.529   4.073  15.341  0.00  0.00    +0.000 C 
ATOM      8  N   UNL     1       6.679   5.484  14.953  0.00  0.00    +0.000 N 
ATOM      9  C   UNL     1       6.373   5.938  16.201  0.00  0.00    +0.000 C 
ATOM     10  O   UNL     1       5.955   7.012  16.559  0.00  0.00    +0.000 OA
ATOM     11  H   UNL     1       6.265   5.965  14.165  0.00  0.00    +0.000 HD
ENDBRANCH   4   6
ENDBRANCH   1   3
BRANCH   1  12
ATOM     12  C   UNL     1       4.214   2.379  18.891  0.00  0.00    +0.000 C 
BRANCH  12  13
ATOM     13  C   UNL     1       2.971   1.750  19.543  0.00  0.00    +0.000 C 
BRANCH  13  14
ATOM     14  C   UNL     1       1.718   1.910  18.720  0.00  0.00    +0.000 C 
ATOM     15  C   UNL     1       1.103   3.069  18.443  0.00  0.00    +0.000 C 
BRANCH  15  16
ATOM     16  C   UNL     1       1.579   4.387  18.876  0.00  0.00    +0.000 A 
ATOM     17  C   UNL     1       2.198   5.242  17.958  0.00  0.00    +0.000 A 
ATOM     18  C   UNL     1       2.629   6.509  18.356  0.00  0.00    +0.000 A 
ATOM     19  C   UNL     1       2.441   6.927  19.674  0.00  0.00    +0.000 A 
ATOM     20  C   UNL     1       1.832   6.075  20.595  0.00  0.00    +0.000 A 
ATOM     21  C   UNL     1       1.404   4.805  20.199  0.00  0.00    +0.000 A 
ENDBRANCH  15  16
ENDBRANCH  13  14
ENDBRANCH  12  13
ENDBRANCH   1  12
TORSDOF 6
ENDMDL
MODEL 6
REMARK VINA RESULT:      -6.7      0.767      1.193
REMARK  Name = 
REMARK  6 active torsions:
REMARK  status: ('A' for Active; 'I' for Inactive)
REMARK    1  A    between atoms: C_2  and  O_9
REMARK    2  A    between atoms: N_3  and  C_4
REMARK    3  A    between atoms: O_9  and  C_10
REMARK    4  A    between atoms: C_10  and  C_11
REMARK    5  A    between atoms: C_11  and  C_12
REMARK    6  A    between atoms: C_13  and  C_14
REMARK                            x       y       z     vdW  Elec       q    Type
REMARK                         _______ _______ _______ _____ _____    ______ ____
ROOT
ATOM      1  O   UNL     1       5.046   2.972  19.800  0.00  0.00    +0.000 OA
ENDROOT
BRANCH   1   3
ATOM      2  O   UNL     1       5.237   5.251  19.640  0.00  0.00    +0.000 OA
ATOM      3  C   UNL     1       5.196   4.142  19.134  0.00  0.00    +0.000 C 
ATOM      4  N   UNL     1       5.353   3.902  17.802  0.00  0.00    +0.000 N 
ATOM      5  H   UNL     1       5.232   2.945  17.496  0.00  0.00    +0.000 HD
BRANCH   4   6
ATOM      6  C   UNL     1       5.811   4.960  16.879  0.00  0.00    +0.000 C 
ATOM      7  C   UNL     1       7.269   5.448  17.122  0.00  0.00    +0.000 C 
ATOM      8  N   UNL     1       7.488   5.299  15.676  0.00  0.00    +0.000 N 
ATOM      9  C   UNL     1       6.398   4.495  15.517  0.00  0.00    +0.000 C 
ATOM     10  O   UNL     1       6.140   3.694  14.653  0.00  0.00    +0.000 OA
ATOM     11  H   UNL     1       8.338   5.036  15.194  0.00  0.00    +0.000 HD
ENDBRANCH   4   6
ENDBRANCH   1   3
BRANCH   1  12
ATOM     12  C   UNL     1       4.268   1.971  19.116  0.00  0.00    +0.000 C 
BRANCH  12  13
ATOM     13  C   UNL     1       2.766   2.067  19.435  0.00  0.00    +0.000 C 
BRANCH  13  14
ATOM     14  C   UNL     1       1.916   2.363  18.226  0.00  0.00    +0.000 C 
ATOM     15  C   UNL     1       1.465   3.572  17.860  0.00  0.00    +0.000 C 
BRANCH  15  16
ATOM     16  C   UNL     1       1.759   4.820  18.572  0.00  0.00    +0.000 A 
ATOM     17  C   UNL     1       2.250   5.925  17.869  0.00  0.00    +0.000 A 
ATOM     18  C   UNL     1       2.508   7.125  18.534  0.00  0.00    +0.000 A 
ATOM     19  C   UNL     1       2.273   7.225  19.906  0.00  0.00    +0.000 A 
ATOM     20  C   UNL     1       1.792   6.124  20.613  0.00  0.00    +0.000 A 
ATOM     21  C   UNL     1       1.538   4.921  19.949  0.00  0.00    +0.000 A 
ENDBRANCH  15  16
ENDBRANCH  13  14
ENDBRANCH  12  13
ENDBRANCH   1  12
TORSDOF 6
ENDMDL
MODEL 7
REMARK VINA RESULT:      -6.7      1.303      1.868
REMARK  Name = 
REMARK  6 active torsions:
REMARK  status: ('A' for Active; 'I' for Inactive)
REMARK    1  A    between atoms: C_2  and  O_9
REMARK    2  A    between atoms: N_3  and  C_4
REMARK    3  A    between atoms: O_9  and  C_10
REMARK    4  A    between atoms: C_10  and  C_11
REMARK    5  A    between atoms: C_11  and  C_12
REMARK    6  A    between atoms: C_13  and  C_14
REMARK                            x       y       z     vdW  Elec       q    Type
REMARK                         _______ _______ _______ _____ _____    ______ ____
ROOT
ATOM      1  O   UNL     1       4.570   3.880  19.663  0.00  0.00    +0.000 OA
ENDROOT
BRANCH   1   3
ATOM      2  O   UNL     1       6.590   4.962  19.726  0.00  0.00    +0.000 OA
ATOM      3  C   UNL     1       5.684   4.419  19.115  0.00  0.00    +0.000 C 
ATOM      4  N   UNL     1       5.682   4.222  17.766  0.00  0.00    +0.000 N 
ATOM      5  H   UNL     1       4.844   3.818  17.368  0.00  0.00    +0.000 HD
BRANCH   4   6
ATOM      6  C   UNL     1       6.893   4.454  16.953  0.00  0.00    +0.000 C 
ATOM      7  C   UNL     1       6.717   4.176  15.431  0.00  0.00    +0.000 C 
ATOM      8  N   UNL     1       7.359   5.476  15.188  0.00  0.00    +0.000 N 
ATOM      9  C   UNL     1       7.138   5.908  16.462  0.00  0.00    +0.000 C 
ATOM     10  O   UNL     1       7.082   7.029  16.906  0.00  0.00    +0.000 OA
ATOM     11  H   UNL     1       7.188   6.129  14.435  0.00  0.00    +0.000 HD
ENDBRANCH   4   6
ENDBRANCH   1   3
BRANCH   1  12
ATOM     12  C   UNL     1       4.428   2.457  19.493  0.00  0.00    +0.000 C 
BRANCH  12  13
ATOM     13  C   UNL     1       3.299   2.086  18.515  0.00  0.00    +0.000 C 
BRANCH  13  14
ATOM     14  C   UNL     1       1.940   2.029  19.165  0.00  0.00    +0.000 C 
ATOM     15  C   UNL     1       1.206   3.086  19.541  0.00  0.00    +0.000 C 
BRANCH  15  16
ATOM     16  C   UNL     1       1.601   4.485  19.348  0.00  0.00    +0.000 A 
ATOM     17  C   UNL     1       1.691   5.343  20.449  0.00  0.00    +0.000 A 
ATOM     18  C   UNL     1       2.092   6.669  20.278  0.00  0.00    +0.000 A 
ATOM     19  C   UNL     1       2.406   7.142  19.004  0.00  0.00    +0.000 A 
ATOM     20  C   UNL     1       2.311   6.294  17.901  0.00  0.00    +0.000 A 
ATOM     21  C   UNL     1       1.904   4.968  18.071  0.00  0.00    +0.000 A 
ENDBRANCH  15  16
ENDBRANCH  13  14
ENDBRANCH  12  13
ENDBRANCH   1  12
TORSDOF 6
ENDMDL
MODEL 8
REMARK VINA RESULT:      -6.6      2.088      3.635
REMARK  Name = 
REMARK  6 active torsions:
REMARK  status: ('A' for Active; 'I' for Inactive)
REMARK    1  A    between atoms: C_2  and  O_9
REMARK    2  A    between atoms: N_3  and  C_4
REMARK    3  A    between atoms: O_9  and  C_10
REMARK    4  A    between atoms: C_10  and  C_11
REMARK    5  A    between atoms: C_11  and  C_12
REMARK    6  A    between atoms: C_13  and  C_14
REMARK                            x       y       z     vdW  Elec       q    Type
REMARK                         _______ _______ _______ _____ _____    ______ ____
ROOT
ATOM      1  O   UNL     1       5.503   4.986  16.879  0.00  0.00    +0.000 OA
ENDROOT
BRANCH   1   3
ATOM      2  O   UNL     1       7.685   4.706  16.234  0.00  0.00    +0.000 OA
ATOM      3  C   UNL     1       6.490   4.723  15.990  0.00  0.00    +0.000 C 
ATOM      4  N   UNL     1       5.953   4.420  14.775  0.00  0.00    +0.000 N 
ATOM      5  H   UNL     1       4.951   4.534  14.680  0.00  0.00    +0.000 HD
BRANCH   4   6
ATOM      6  C   UNL     1       6.771   3.824  13.699  0.00  0.00    +0.000 C 
ATOM      7  C   UNL     1       5.991   3.507  12.390  0.00  0.00    +0.000 C 
ATOM      8  N   UNL     1       7.079   4.174  11.660  0.00  0.00    +0.000 N 
ATOM      9  C   UNL     1       7.537   4.811  12.775  0.00  0.00    +0.000 C 
ATOM     10  O   UNL     1       8.202   5.812  12.882  0.00  0.00    +0.000 OA
ATOM     11  H   UNL     1       7.023   4.710  10.803  0.00  0.00    +0.000 HD
ENDBRANCH   4   6
ENDBRANCH   1   3
BRANCH   1  12
ATOM     12  C   UNL     1       5.901   4.968  18.263  0.00  0.00    +0.000 C 
BRANCH  12  13
ATOM     13  C   UNL     1       4.877   5.653  19.185  0.00  0.00    +0.000 C 
BRANCH  13  14
ATOM     14  C   UNL     1       3.821   6.426  18.435  0.00  0.00    +0.000 C 
ATOM     15  C   UNL     1       2.545   6.050  18.267  0.00  0.00    +0.000 C 
BRANCH  15  16
ATOM     16  C   UNL     1       1.958   4.826  18.821  0.00  0.00    +0.000 A 
ATOM     17  C   UNL     1       1.751   3.715  17.997  0.00  0.00    +0.000 A 
ATOM     18  C   UNL     1       1.217   2.537  18.522  0.00  0.00    +0.000 A 
ATOM     19  C   UNL     1       0.889   2.465  19.876  0.00  0.00    +0.000 A 
ATOM     20  C   UNL     1       1.085   3.572  20.701  0.00  0.00    +0.000 A 
ATOM     21  C   UNL     1       1.614   4.753  20.175  0.00  0.00    +0.000 A 
ENDBRANCH  15  16
ENDBRANCH  13  14
ENDBRANCH  12  13
ENDBRANCH   1  12
TORSDOF 6
ENDMDL
MODEL 9
REMARK VINA RESULT:      -6.5      2.384      3.805
REMARK  Name = 
REMARK  6 active torsions:
REMARK  status: ('A' for Active; 'I' for Inactive)
REMARK    1  A    between atoms: C_2  and  O_9
REMARK    2  A    between atoms: N_3  and  C_4
REMARK    3  A    between atoms: O_9  and  C_10
REMARK    4  A    between atoms: C_10  and  C_11
REMARK    5  A    between atoms: C_11  and  C_12
REMARK    6  A    between atoms: C_13  and  C_14
REMARK                            x       y       z     vdW  Elec       q    Type
REMARK                         _______ _______ _______ _____ _____    ______ ____
ROOT
ATOM      1  O   UNL     1       5.043   6.544  16.412  0.00  0.00    +0.000 OA
ENDROOT
BRANCH   1   3
ATOM      2  O   UNL     1       7.259   6.022  16.149  0.00  0.00    +0.000 OA
ATOM      3  C   UNL     1       6.095   5.962  15.790  0.00  0.00    +0.000 C 
ATOM      4  N   UNL     1       5.661   5.241  14.717  0.00  0.00    +0.000 N 
ATOM      5  H   UNL     1       4.681   5.324  14.482  0.00  0.00    +0.000 HD
BRANCH   4   6
ATOM      6  C   UNL     1       6.547   4.284  14.025  0.00  0.00    +0.000 C 
ATOM      7  C   UNL     1       5.900   3.564  12.806  0.00  0.00    +0.000 C 
ATOM      8  N   UNL     1       7.114   3.901  12.048  0.00  0.00    +0.000 N 
ATOM      9  C   UNL     1       7.491   4.865  12.936  0.00  0.00    +0.000 C 
ATOM     10  O   UNL     1       8.217   5.817  12.790  0.00  0.00    +0.000 OA
ATOM     11  H   UNL     1       7.200   4.112  11.062  0.00  0.00    +0.000 HD
ENDBRANCH   4   6
ENDBRANCH   1   3
BRANCH   1  12
ATOM     12  C   UNL     1       4.253   5.666  17.236  0.00  0.00    +0.000 C 
BRANCH  12  13
ATOM     13  C   UNL     1       4.744   5.618  18.693  0.00  0.00    +0.000 C 
BRANCH  13  14
ATOM     14  C   UNL     1       5.359   4.295  19.073  0.00  0.00    +0.000 C 
ATOM     15  C   UNL     1       4.688   3.204  19.472  0.00  0.00    +0.000 C 
BRANCH  15  16
ATOM     16  C   UNL     1       3.228   3.115  19.571  0.00  0.00    +0.000 A 
ATOM     17  C   UNL     1       2.498   2.468  18.569  0.00  0.00    +0.000 A 
ATOM     18  C   UNL     1       1.111   2.356  18.669  0.00  0.00    +0.000 A 
ATOM     19  C   UNL     1       0.447   2.888  19.774  0.00  0.00    +0.000 A 
ATOM     20  C   UNL     1       1.168   3.541  20.773  0.00  0.00    +0.000 A 
ATOM     21  C   UNL     1       2.557   3.659  20.671  0.00  0.00    +0.000 A 
ENDBRANCH  15  16
ENDBRANCH  13  14
ENDBRANCH  12  13
ENDBRANCH   1  12
TORSDOF 6
ENDMDL
