MODEL 1
REMARK VINA RESULT:      -6.4      0.000      0.000
REMARK  Name = 
REMARK  9 active torsions:
REMARK  status: ('A' for Active; 'I' for Inactive)
REMARK    1  A    between atoms: C_1  and  O_2
REMARK    2  A    between atoms: O_2  and  C_3
REMARK    3  A    between atoms: C_3  and  C_5
REMARK    4  A    between atoms: N_12  and  C_13
REMARK    5  A    between atoms: C_13  and  C_14
REMARK    6  A    between atoms: C_14  and  C_16
REMARK    7  A    between atoms: C_16  and  C_17
REMARK    8  A    between atoms: C_16  and  C_18
REMARK    9  A    between atoms: C_16  and  C_19
REMARK                            x       y       z     vdW  Elec       q    Type
REMARK                         _______ _______ _______ _____ _____    ______ ____
ROOT
ATOM      1  C   UNL     1       2.689   4.221  19.875  0.00  0.00    +0.000 A 
ATOM      2  C   UNL     1       1.909   5.077  20.660  0.00  0.00    +0.000 A 
ATOM      3  C   UNL     1       2.005   6.320  20.030  0.00  0.00    +0.000 A 
ATOM      4  O   UNL     1       1.576   7.590  20.244  0.00  0.00    +0.000 OA
ATOM      5  C   UNL     1       2.110   8.307  19.214  0.00  0.00    +0.000 A 
ATOM      6  C   UNL     1       2.864   7.538  18.355  0.00  0.00    +0.000 A 
ATOM      7  C   UNL     1       2.757   6.248  18.914  0.00  0.00    +0.000 A 
ATOM      8  N   UNL     1       3.134   4.935  18.762  0.00  0.00    +0.000 N 
ENDROOT
BRANCH   1   9
ATOM      9  C   UNL     1       2.997   2.827  20.142  0.00  0.00    +0.000 C 
ATOM     10  O   UNL     1       4.102   2.392  20.437  0.00  0.00    +0.000 OA
BRANCH   9  12
ATOM     11  C   UNL     1       1.219   2.145  18.774  0.00  0.00    +0.000 C 
ATOM     12  O   UNL     1       1.865   2.075  20.043  0.00  0.00    +0.000 OA
ENDBRANCH   9  12
ENDBRANCH   1   9
BRANCH   8  13
ATOM     13  C   UNL     1       3.972   4.485  17.658  0.00  0.00    +0.000 C 
BRANCH  13  14
ATOM     14  C   UNL     1       5.465   4.759  17.826  0.00  0.00    +0.000 C 
ATOM     15  O   UNL     1       6.105   4.295  18.781  0.00  0.00    +0.000 OA
BRANCH  14  16
ATOM     16  C   UNL     1       6.171   5.550  16.696  0.00  0.00    +0.000 C 
ATOM     17  C   UNL     1       5.134   6.336  15.887  0.00  0.00    +0.000 C 
ATOM     18  C   UNL     1       7.189   6.555  17.269  0.00  0.00    +0.000 C 
ATOM     19  C   UNL     1       6.934   4.570  15.793  0.00  0.00    +0.000 C 
ENDBRANCH  14  16
ENDBRANCH  13  14
ENDBRANCH   8  13
TORSDOF 5
ENDMDL
MODEL 2
REMARK VINA RESULT:      -6.4      1.562      5.434
REMARK  Name = 
REMARK  9 active torsions:
REMARK  status: ('A' for Active; 'I' for Inactive)
REMARK    1  A    between atoms: C_1  and  O_2
REMARK    2  A    between atoms: O_2  and  C_3
REMARK    3  A    between atoms: C_3  and  C_5
REMARK    4  A    between atoms: N_12  and  C_13
REMARK    5  A    between atoms: C_13  and  C_14
REMARK    6  A    between atoms: C_14  and  C_16
REMARK    7  A    between atoms: C_16  and  C_17
REMARK    8  A    between atoms: C_16  and  C_18
REMARK    9  A    between atoms: C_16  and  C_19
REMARK                            x       y       z     vdW  Elec       q    Type
REMARK                         _______ _______ _______ _____ _____    ______ ____
ROOT
ATOM      1  C   UNL     1       3.753   6.652  17.519  0.00  0.00    +0.000 A 
ATOM      2  C   UNL     1       4.843   7.181  16.821  0.00  0.00    +0.000 A 
ATOM      3  C   UNL     1       5.503   6.067  16.296  0.00  0.00    +0.000 A 
ATOM      4  O   UNL     1       6.629   5.811  15.584  0.00  0.00    +0.000 OA
ATOM      5  C   UNL     1       6.663   4.451  15.480  0.00  0.00    +0.000 A 
ATOM      6  C   UNL     1       5.599   3.836  16.102  0.00  0.00    +0.000 A 
ATOM      7  C   UNL     1       4.860   4.925  16.608  0.00  0.00    +0.000 A 
ATOM      8  N   UNL     1       3.731   5.272  17.310  0.00  0.00    +0.000 N 
ENDROOT
BRANCH   1   9
ATOM      9  C   UNL     1       2.792   7.383  18.327  0.00  0.00    +0.000 C 
ATOM     10  O   UNL     1       2.601   7.211  19.524  0.00  0.00    +0.000 OA
BRANCH   9  12
ATOM     11  C   UNL     1       1.508   9.344  18.300  0.00  0.00    +0.000 C 
ATOM     12  O   UNL     1       2.154   8.310  17.560  0.00  0.00    +0.000 OA
ENDBRANCH   9  12
ENDBRANCH   1   9
BRANCH   8  13
ATOM     13  C   UNL     1       2.792   4.282  17.821  0.00  0.00    +0.000 C 
BRANCH  13  14
ATOM     14  C   UNL     1       3.106   3.757  19.221  0.00  0.00    +0.000 C 
ATOM     15  O   UNL     1       4.241   3.855  19.710  0.00  0.00    +0.000 OA
BRANCH  14  16
ATOM     16  C   UNL     1       1.923   3.195  20.048  0.00  0.00    +0.000 C 
ATOM     17  C   UNL     1       1.243   2.059  19.276  0.00  0.00    +0.000 C 
ATOM     18  C   UNL     1       2.403   2.630  21.399  0.00  0.00    +0.000 C 
ATOM     19  C   UNL     1       0.926   4.326  20.338  0.00  0.00    +0.000 C 
ENDBRANCH  14  16
ENDBRANCH  13  14
ENDBRANCH   8  13
TORSDOF 5
ENDMDL
MODEL 3
REMARK VINA RESULT:      -6.4      0.707      1.206
REMARK  Name = 
REMARK  9 active torsions:
REMARK  status: ('A' for Active; 'I' for Inactive)
REMARK    1  A    between atoms: C_1  and  O_2
REMARK    2  A    between atoms: O_2  and  C_3
REMARK    3  A    between atoms: C_3  and  C_5
REMARK    4  A    between atoms: N_12  and  C_13
REMARK    5  A    between atoms: C_13  and  C_14
REMARK    6  A    between atoms: C_14  and  C_16
REMARK    7  A    between atoms: C_16  and  C_17
REMARK    8  A    between atoms: C_16  and  C_18
REMARK    9  A    between atoms: C_16  and  C_19
REMARK                            x       y       z     vdW  Elec       q    Type
REMARK                         _______ _______ _______ _____ _____    ______ ____
ROOT
ATOM      1  C   UNL     1       3.254   3.747  19.754  0.00  0.00    +0.000 A 
ATOM      2  C   UNL     1       2.439   4.373  20.701  0.00  0.00    +0.000 A 
ATOM      3  C   UNL     1       2.278   5.676  20.225  0.00  0.00    +0.000 A 
ATOM      4  O   UNL     1       1.684   6.827  20.630  0.00  0.00    +0.000 OA
ATOM      5  C   UNL     1       1.993   7.730  19.656  0.00  0.00    +0.000 A 
ATOM      6  C   UNL     1       2.762   7.194  18.648  0.00  0.00    +0.000 A 
ATOM      7  C   UNL     1       2.913   5.850  19.049  0.00  0.00    +0.000 A 
ATOM      8  N   UNL     1       3.468   4.642  18.704  0.00  0.00    +0.000 N 
ENDROOT
BRANCH   1   9
ATOM      9  C   UNL     1       3.797   2.401  19.818  0.00  0.00    +0.000 C 
ATOM     10  O   UNL     1       4.726   2.048  20.534  0.00  0.00    +0.000 OA
BRANCH   9  12
ATOM     11  C   UNL     1       1.696   1.820  18.955  0.00  0.00    +0.000 C 
ATOM     12  O   UNL     1       3.102   1.581  18.983  0.00  0.00    +0.000 OA
ENDBRANCH   9  12
ENDBRANCH   1   9
BRANCH   8  13
ATOM     13  C   UNL     1       4.246   4.458  17.486  0.00  0.00    +0.000 C 
BRANCH  13  14
ATOM     14  C   UNL     1       5.722   4.835  17.598  0.00  0.00    +0.000 C 
ATOM     15  O   UNL     1       6.459   4.321  18.451  0.00  0.00    +0.000 OA
BRANCH  14  16
ATOM     16  C   UNL     1       6.287   5.807  16.531  0.00  0.00    +0.000 C 
ATOM     17  C   UNL     1       7.007   5.012  15.436  0.00  0.00    +0.000 C 
ATOM     18  C   UNL     1       5.163   6.623  15.865  0.00  0.00    +0.000 C 
ATOM     19  C   UNL     1       7.250   6.794  17.207  0.00  0.00    +0.000 C 
ENDBRANCH  14  16
ENDBRANCH  13  14
ENDBRANCH   8  13
TORSDOF 5
ENDMDL
MODEL 4
REMARK VINA RESULT:      -6.4      0.411      1.085
REMARK  Name = 
REMARK  9 active torsions:
REMARK  status: ('A' for Active; 'I' for Inactive)
REMARK    1  A    between atoms: C_1  and  O_2
REMARK    2  A    between atoms: O_2  and  C_3
REMARK    3  A    between atoms: C_3  and  C_5
REMARK    4  A    between atoms: N_12  and  C_13
REMARK    5  A    between atoms: C_13  and  C_14
REMARK    6  A    between atoms: C_14  and  C_16
REMARK    7  A    between atoms: C_16  and  C_17
REMARK    8  A    between atoms: C_16  and  C_18
REMARK    9  A    between atoms: C_16  and  C_19
REMARK                            x       y       z     vdW  Elec       q    Type
REMARK                         _______ _______ _______ _____ _____    ______ ____
ROOT
ATOM      1  C   UNL     1       2.897   4.037  19.835  0.00  0.00    +0.000 A 
ATOM      2  C   UNL     1       2.107   4.764  20.732  0.00  0.00    +0.000 A 
ATOM      3  C   UNL     1       2.069   6.057  20.203  0.00  0.00    +0.000 A 
ATOM      4  O   UNL     1       1.561   7.268  20.546  0.00  0.00    +0.000 OA
ATOM      5  C   UNL     1       1.973   8.103  19.550  0.00  0.00    +0.000 A 
ATOM      6  C   UNL     1       2.726   7.467  18.588  0.00  0.00    +0.000 A 
ATOM      7  C   UNL     1       2.752   6.132  19.044  0.00  0.00    +0.000 A 
ATOM      8  N   UNL     1       3.216   4.870  18.762  0.00  0.00    +0.000 N 
ENDROOT
BRANCH   1   9
ATOM      9  C   UNL     1       3.324   2.655  19.967  0.00  0.00    +0.000 C 
ATOM     10  O   UNL     1       4.100   2.234  20.815  0.00  0.00    +0.000 OA
BRANCH   9  12
ATOM     11  C   UNL     1       1.291   2.011  18.993  0.00  0.00    +0.000 C 
ATOM     12  O   UNL     1       2.712   1.889  19.022  0.00  0.00    +0.000 OA
ENDBRANCH   9  12
ENDBRANCH   1   9
BRANCH   8  13
ATOM     13  C   UNL     1       4.012   4.576  17.577  0.00  0.00    +0.000 C 
BRANCH  13  14
ATOM     14  C   UNL     1       5.511   4.821  17.730  0.00  0.00    +0.000 C 
ATOM     15  O   UNL     1       6.168   4.280  18.632  0.00  0.00    +0.000 OA
BRANCH  14  16
ATOM     16  C   UNL     1       6.202   5.687  16.645  0.00  0.00    +0.000 C 
ATOM     17  C   UNL     1       7.232   6.614  17.300  0.00  0.00    +0.000 C 
ATOM     18  C   UNL     1       6.938   4.810  15.614  0.00  0.00    +0.000 C 
ATOM     19  C   UNL     1       5.137   6.502  15.897  0.00  0.00    +0.000 C 
ENDBRANCH  14  16
ENDBRANCH  13  14
ENDBRANCH   8  13
TORSDOF 5
ENDMDL
MODEL 5
REMARK VINA RESULT:      -6.3      1.591      5.362
REMARK  Name = 
REMARK  9 active torsions:
REMARK  status: ('A' for Active; 'I' for Inactive)
REMARK    1  A    between atoms: C_1  and  O_2
REMARK    2  A    between atoms: O_2  and  C_3
REMARK    3  A    between atoms: C_3  and  C_5
REMARK    4  A    between atoms: N_12  and  C_13
REMARK    5  A    between atoms: C_13  and  C_14
REMARK    6  A    between atoms: C_14  and  C_16
REMARK    7  A    between atoms: C_16  and  C_17
REMARK    8  A    between atoms: C_16  and  C_18
REMARK    9  A    between atoms: C_16  and  C_19
REMARK                            x       y       z     vdW  Elec       q    Type
REMARK                         _______ _______ _______ _____ _____    ______ ____
ROOT
ATOM      1  C   UNL     1       3.857   6.888  17.727  0.00  0.00    +0.000 A 
ATOM      2  C   UNL     1       4.580   7.129  16.554  0.00  0.00    +0.000 A 
ATOM      3  C   UNL     1       5.594   6.168  16.560  0.00  0.00    +0.000 A 
ATOM      4  O   UNL     1       6.670   5.839  15.800  0.00  0.00    +0.000 OA
ATOM      5  C   UNL     1       7.247   4.796  16.462  0.00  0.00    +0.000 A 
ATOM      6  C   UNL     1       6.577   4.452  17.616  0.00  0.00    +0.000 A 
ATOM      7  C   UNL     1       5.499   5.361  17.635  0.00  0.00    +0.000 A 
ATOM      8  N   UNL     1       4.383   5.748  18.337  0.00  0.00    +0.000 N 
ENDROOT
BRANCH   1   9
ATOM      9  C   UNL     1       2.746   7.667  18.246  0.00  0.00    +0.000 C 
ATOM     10  O   UNL     1       2.218   7.503  19.339  0.00  0.00    +0.000 OA
BRANCH   9  12
ATOM     11  C   UNL     1       1.815   9.794  17.927  0.00  0.00    +0.000 C 
ATOM     12  O   UNL     1       2.394   8.628  17.347  0.00  0.00    +0.000 OA
ENDBRANCH   9  12
ENDBRANCH   1   9
BRANCH   8  13
ATOM     13  C   UNL     1       3.972   5.097  19.573  0.00  0.00    +0.000 C 
BRANCH  13  14
ATOM     14  C   UNL     1       3.410   3.686  19.405  0.00  0.00    +0.000 C 
ATOM     15  O   UNL     1       4.132   2.684  19.512  0.00  0.00    +0.000 OA
BRANCH  14  16
ATOM     16  C   UNL     1       1.880   3.553  19.202  0.00  0.00    +0.000 C 
ATOM     17  C   UNL     1       1.484   4.139  17.842  0.00  0.00    +0.000 C 
ATOM     18  C   UNL     1       1.438   2.077  19.229  0.00  0.00    +0.000 C 
ATOM     19  C   UNL     1       1.153   4.284  20.340  0.00  0.00    +0.000 C 
ENDBRANCH  14  16
ENDBRANCH  13  14
ENDBRANCH   8  13
TORSDOF 5
ENDMDL
MODEL 6
REMARK VINA RESULT:      -6.3      1.467      4.341
REMARK  Name = 
REMARK  9 active torsions:
REMARK  status: ('A' for Active; 'I' for Inactive)
REMARK    1  A    between atoms: C_1  and  O_2
REMARK    2  A    between atoms: O_2  and  C_3
REMARK    3  A    between atoms: C_3  and  C_5
REMARK    4  A    between atoms: N_12  and  C_13
REMARK    5  A    between atoms: C_13  and  C_14
REMARK    6  A    between atoms: C_14  and  C_16
REMARK    7  A    between atoms: C_16  and  C_17
REMARK    8  A    between atoms: C_16  and  C_18
REMARK    9  A    between atoms: C_16  and  C_19
REMARK                            x       y       z     vdW  Elec       q    Type
REMARK                         _______ _______ _______ _____ _____    ______ ____
ROOT
ATOM      1  C   UNL     1       4.853   5.705  17.680  0.00  0.00    +0.000 A 
ATOM      2  C   UNL     1       4.649   6.842  16.891  0.00  0.00    +0.000 A 
ATOM      3  C   UNL     1       3.591   7.515  17.506  0.00  0.00    +0.000 A 
ATOM      4  O   UNL     1       2.839   8.622  17.280  0.00  0.00    +0.000 OA
ATOM      5  C   UNL     1       1.932   8.630  18.299  0.00  0.00    +0.000 A 
ATOM      6  C   UNL     1       2.081   7.567  19.162  0.00  0.00    +0.000 A 
ATOM      7  C   UNL     1       3.182   6.873  18.618  0.00  0.00    +0.000 A 
ATOM      8  N   UNL     1       4.000   5.782  18.782  0.00  0.00    +0.000 N 
ENDROOT
BRANCH   1   9
ATOM      9  C   UNL     1       5.784   4.620  17.428  0.00  0.00    +0.000 C 
ATOM     10  O   UNL     1       6.812   4.409  18.059  0.00  0.00    +0.000 OA
BRANCH   9  12
ATOM     11  C   UNL     1       6.167   3.853  15.245  0.00  0.00    +0.000 C 
ATOM     12  O   UNL     1       5.330   3.850  16.400  0.00  0.00    +0.000 OA
ENDBRANCH   9  12
ENDBRANCH   1   9
BRANCH   8  13
ATOM     13  C   UNL     1       3.842   4.845  19.886  0.00  0.00    +0.000 C 
BRANCH  13  14
ATOM     14  C   UNL     1       3.294   3.474  19.496  0.00  0.00    +0.000 C 
ATOM     15  O   UNL     1       4.015   2.465  19.490  0.00  0.00    +0.000 OA
BRANCH  14  16
ATOM     16  C   UNL     1       1.774   3.373  19.212  0.00  0.00    +0.000 C 
ATOM     17  C   UNL     1       1.468   3.935  17.819  0.00  0.00    +0.000 C 
ATOM     18  C   UNL     1       1.293   1.909  19.250  0.00  0.00    +0.000 C 
ATOM     19  C   UNL     1       1.006   4.150  20.291  0.00  0.00    +0.000 C 
ENDBRANCH  14  16
ENDBRANCH  13  14
ENDBRANCH   8  13
TORSDOF 5
ENDMDL
MODEL 7
REMARK VINA RESULT:      -6.3      1.718      5.468
REMARK  Name = 
REMARK  9 active torsions:
REMARK  status: ('A' for Active; 'I' for Inactive)
REMARK    1  A    between atoms: C_1  and  O_2
REMARK    2  A    between atoms: O_2  and  C_3
REMARK    3  A    between atoms: C_3  and  C_5
REMARK    4  A    between atoms: N_12  and  C_13
REMARK    5  A    between atoms: C_13  and  C_14
REMARK    6  A    between atoms: C_14  and  C_16
REMARK    7  A    between atoms: C_16  and  C_17
REMARK    8  A    between atoms: C_16  and  C_18
REMARK    9  A    between atoms: C_16  and  C_19
REMARK                            x       y       z     vdW  Elec       q    Type
REMARK                         _______ _______ _______ _____ _____    ______ ____
ROOT
ATOM      1  C   UNL     1       3.247   6.921  17.811  0.00  0.00    +0.000 A 
ATOM      2  C   UNL     1       4.436   7.105  17.097  0.00  0.00    +0.000 A 
ATOM      3  C   UNL     1       4.876   5.812  16.803  0.00  0.00    +0.000 A 
ATOM      4  O   UNL     1       5.947   5.228  16.207  0.00  0.00    +0.000 OA
ATOM      5  C   UNL     1       5.716   3.889  16.333  0.00  0.00    +0.000 A 
ATOM      6  C   UNL     1       4.539   3.604  16.987  0.00  0.00    +0.000 A 
ATOM      7  C   UNL     1       4.015   4.884  17.263  0.00  0.00    +0.000 A 
ATOM      8  N   UNL     1       2.960   5.555  17.832  0.00  0.00    +0.000 N 
ENDROOT
BRANCH   1   9
ATOM      9  C   UNL     1       2.430   7.949  18.430  0.00  0.00    +0.000 C 
ATOM     10  O   UNL     1       2.124   7.990  19.615  0.00  0.00    +0.000 OA
BRANCH   9  12
ATOM     11  C   UNL     1       1.561  10.093  18.048  0.00  0.00    +0.000 C 
ATOM     12  O   UNL     1       2.075   8.880  17.501  0.00  0.00    +0.000 OA
ENDBRANCH   9  12
ENDBRANCH   1   9
BRANCH   8  13
ATOM     13  C   UNL     1       1.834   4.865  18.448  0.00  0.00    +0.000 C 
BRANCH  13  14
ATOM     14  C   UNL     1       2.051   4.442  19.899  0.00  0.00    +0.000 C 
ATOM     15  O   UNL     1       2.032   5.267  20.824  0.00  0.00    +0.000 OA
BRANCH  14  16
ATOM     16  C   UNL     1       2.186   2.924  20.183  0.00  0.00    +0.000 C 
ATOM     17  C   UNL     1       1.559   2.125  19.035  0.00  0.00    +0.000 C 
ATOM     18  C   UNL     1       3.664   2.506  20.301  0.00  0.00    +0.000 C 
ATOM     19  C   UNL     1       1.495   2.595  21.513  0.00  0.00    +0.000 C 
ENDBRANCH  14  16
ENDBRANCH  13  14
ENDBRANCH   8  13
TORSDOF 5
ENDMDL
MODEL 8
REMARK VINA RESULT:      -6.3      1.576      4.593
REMARK  Name = 
REMARK  9 active torsions:
REMARK  status: ('A' for Active; 'I' for Inactive)
REMARK    1  A    between atoms: C_1  and  O_2
REMARK    2  A    between atoms: O_2  and  C_3
REMARK    3  A    between atoms: C_3  and  C_5
REMARK    4  A    between atoms: N_12  and  C_13
REMARK    5  A    between atoms: C_13  and  C_14
REMARK    6  A    between atoms: C_14  and  C_16
REMARK    7  A    between atoms: C_16  and  C_17
REMARK    8  A    between atoms: C_16  and  C_18
REMARK    9  A    between atoms: C_16  and  C_19
REMARK                            x       y       z     vdW  Elec       q    Type
REMARK                         _______ _______ _______ _____ _____    ______ ____
ROOT
ATOM      1  C   UNL     1       5.335   5.338  17.136  0.00  0.00    +0.000 A 
ATOM      2  C   UNL     1       5.370   6.732  17.028  0.00  0.00    +0.000 A 
ATOM      3  C   UNL     1       4.108   7.152  17.455  0.00  0.00    +0.000 A 
ATOM      4  O   UNL     1       3.422   8.319  17.564  0.00  0.00    +0.000 OA
ATOM      5  C   UNL     1       2.192   7.947  18.019  0.00  0.00    +0.000 A 
ATOM      6  C   UNL     1       2.071   6.588  18.201  0.00  0.00    +0.000 A 
ATOM      7  C   UNL     1       3.347   6.108  17.836  0.00  0.00    +0.000 A 
ATOM      8  N   UNL     1       4.115   4.977  17.711  0.00  0.00    +0.000 N 
ENDROOT
BRANCH   1   9
ATOM      9  C   UNL     1       6.370   4.402  16.733  0.00  0.00    +0.000 C 
ATOM     10  O   UNL     1       7.465   4.287  17.268  0.00  0.00    +0.000 OA
BRANCH   9  12
ATOM     11  C   UNL     1       6.350   4.115  14.406  0.00  0.00    +0.000 C 
ATOM     12  O   UNL     1       5.931   3.649  15.686  0.00  0.00    +0.000 OA
ENDBRANCH   9  12
ENDBRANCH   1   9
BRANCH   8  13
ATOM     13  C   UNL     1       3.609   3.648  18.029  0.00  0.00    +0.000 C 
BRANCH  13  14
ATOM     14  C   UNL     1       3.742   3.240  19.495  0.00  0.00    +0.000 C 
ATOM     15  O   UNL     1       4.837   2.925  19.984  0.00  0.00    +0.000 OA
BRANCH  14  16
ATOM     16  C   UNL     1       2.471   3.341  20.377  0.00  0.00    +0.000 C 
ATOM     17  C   UNL     1       2.552   2.322  21.520  0.00  0.00    +0.000 C 
ATOM     18  C   UNL     1       2.331   4.743  20.998  0.00  0.00    +0.000 C 
ATOM     19  C   UNL     1       1.232   3.084  19.508  0.00  0.00    +0.000 C 
ENDBRANCH  14  16
ENDBRANCH  13  14
ENDBRANCH   8  13
TORSDOF 5
ENDMDL
MODEL 9
REMARK VINA RESULT:      -6.3      1.708      5.452
REMARK  Name = 
REMARK  9 active torsions:
REMARK  status: ('A' for Active; 'I' for Inactive)
REMARK    1  A    between atoms: C_1  and  O_2
REMARK    2  A    between atoms: O_2  and  C_3
REMARK    3  A    between atoms: C_3  and  C_5
REMARK    4  A    between atoms: N_12  and  C_13
REMARK    5  A    between atoms: C_13  and  C_14
REMARK    6  A    between atoms: C_14  and  C_16
REMARK    7  A    between atoms: C_16  and  C_17
REMARK    8  A    between atoms: C_16  and  C_18
REMARK    9  A    between atoms: C_16  and  C_19
REMARK                            x       y       z     vdW  Elec       q    Type
REMARK                         _______ _______ _______ _____ _____    ______ ____
ROOT
ATOM      1  C   UNL     1       3.199   6.887  17.910  0.00  0.00    +0.000 A 
ATOM      2  C   UNL     1       4.381   7.138  17.207  0.00  0.00    +0.000 A 
ATOM      3  C   UNL     1       4.861   5.873  16.857  0.00  0.00    +0.000 A 
ATOM      4  O   UNL     1       5.949   5.348  16.238  0.00  0.00    +0.000 OA
ATOM      5  C   UNL     1       5.759   3.999  16.304  0.00  0.00    +0.000 A 
ATOM      6  C   UNL     1       4.591   3.650  16.943  0.00  0.00    +0.000 A 
ATOM      7  C   UNL     1       4.028   4.900  17.274  0.00  0.00    +0.000 A 
ATOM      8  N   UNL     1       2.953   5.513  17.871  0.00  0.00    +0.000 N 
ENDROOT
BRANCH   1   9
ATOM      9  C   UNL     1       2.350   7.861  18.572  0.00  0.00    +0.000 C 
ATOM     10  O   UNL     1       2.175   7.939  19.782  0.00  0.00    +0.000 OA
BRANCH   9  12
ATOM     11  C   UNL     1       1.715  10.059  18.062  0.00  0.00    +0.000 C 
ATOM     12  O   UNL     1       1.798   8.697  17.650  0.00  0.00    +0.000 OA
ENDBRANCH   9  12
ENDBRANCH   1   9
BRANCH   8  13
ATOM     13  C   UNL     1       1.849   4.762  18.453  0.00  0.00    +0.000 C 
BRANCH  13  14
ATOM     14  C   UNL     1       2.033   4.375  19.919  0.00  0.00    +0.000 C 
ATOM     15  O   UNL     1       1.938   5.214  20.828  0.00  0.00    +0.000 OA
BRANCH  14  16
ATOM     16  C   UNL     1       2.234   2.871  20.235  0.00  0.00    +0.000 C 
ATOM     17  C   UNL     1       1.564   2.529  21.571  0.00  0.00    +0.000 C 
ATOM     18  C   UNL     1       1.604   1.982  19.146  0.00  0.00    +0.000 C 
ATOM     19  C   UNL     1       3.737   2.562  20.287  0.00  0.00    +0.000 C 
ENDBRANCH  14  16
ENDBRANCH  13  14
ENDBRANCH   8  13
TORSDOF 5
ENDMDL
