MODEL 1
REMARK VINA RESULT:      -7.8      0.000      0.000
REMARK  Name = 
REMARK  6 active torsions:
REMARK  status: ('A' for Active; 'I' for Inactive)
REMARK    1  A    between atoms: C_2  and  O_3
REMARK    2  A    between atoms: C_2  and  C_4
REMARK    3  A    between atoms: C_4  and  C_5
REMARK    4  A    between atoms: C_4  and  S_14
REMARK    5  A    between atoms: C_5  and  C_6
REMARK    6  A    between atoms: S_14  and  C_15
REMARK                            x       y       z     vdW  Elec       q    Type
REMARK                         _______ _______ _______ _____ _____    ______ ____
ROOT
ATOM      1  C   UNL     1       1.617   5.288  19.591  0.00  0.00    +0.000 C 
ENDROOT
BRANCH   1   3
ATOM      2  O   UNL     1       2.292   4.163  21.642  0.00  0.00    +0.000 OA
ATOM      3  C   UNL     1       1.554   4.203  20.669  0.00  0.00    +0.000 C 
BRANCH   3   4
ATOM      4  O   UNL     1       0.538   3.314  20.545  0.00  0.00    +0.000 OA
ATOM      5  H   UNL     1      -0.102   3.387  21.283  0.00  0.00    +0.000 HD
ENDBRANCH   3   4
ENDBRANCH   1   3
BRANCH   1   6
ATOM      6  C   UNL     1       2.418   6.533  20.054  0.00  0.00    +0.000 C 
BRANCH   6   7
ATOM      7  C   UNL     1       1.660   7.839  20.232  0.00  0.00    +0.000 A 
ATOM      8  C   UNL     1       1.141   8.150  21.504  0.00  0.00    +0.000 A 
ATOM      9  C   UNL     1       0.384   9.305  21.717  0.00  0.00    +0.000 A 
ATOM     10 CL   UNL     1      -0.243   9.632  23.285  0.00  0.00    +0.000 Cl
ATOM     11  C   UNL     1       0.135  10.182  20.675  0.00  0.00    +0.000 A 
ATOM     12  C   UNL     1       0.691   9.927  19.421  0.00  0.00    +0.000 A 
ATOM     13  C   UNL     1       1.467   8.779  19.204  0.00  0.00    +0.000 A 
ATOM     14 CL   UNL     1       2.230   8.647  17.663  0.00  0.00    +0.000 Cl
ENDBRANCH   6   7
ENDBRANCH   1   6
BRANCH   1  15
ATOM     15  S   UNL     1       2.155   4.558  17.975  0.00  0.00    +0.000 S 
BRANCH  15  16
ATOM     16  C   UNL     1       3.783   5.113  17.905  0.00  0.00    +0.000 A 
ATOM     17  N   UNL     1       4.269   6.036  17.115  0.00  0.00    +0.000 NA
ATOM     18  C   UNL     1       5.550   6.244  17.568  0.00  0.00    +0.000 A 
ATOM     19  C   UNL     1       6.522   7.152  17.127  0.00  0.00    +0.000 A 
ATOM     20  C   UNL     1       7.746   7.206  17.809  0.00  0.00    +0.000 A 
ATOM     21  C   UNL     1       7.997   6.370  18.900  0.00  0.00    +0.000 A 
ATOM     22  C   UNL     1       7.046   5.443  19.343  0.00  0.00    +0.000 A 
ATOM     23  C   UNL     1       5.837   5.411  18.649  0.00  0.00    +0.000 A 
ATOM     24  N   UNL     1       4.698   4.660  18.805  0.00  0.00    +0.000 N 
ATOM     25  H   UNL     1       4.532   3.964  19.514  0.00  0.00    +0.000 HD
ENDBRANCH  15  16
ENDBRANCH   1  15
TORSDOF 6
ENDMDL
MODEL 2
REMARK VINA RESULT:      -7.8      3.361      4.406
REMARK  Name = 
REMARK  6 active torsions:
REMARK  status: ('A' for Active; 'I' for Inactive)
REMARK    1  A    between atoms: C_2  and  O_3
REMARK    2  A    between atoms: C_2  and  C_4
REMARK    3  A    between atoms: C_4  and  C_5
REMARK    4  A    between atoms: C_4  and  S_14
REMARK    5  A    between atoms: C_5  and  C_6
REMARK    6  A    between atoms: S_14  and  C_15
REMARK                            x       y       z     vdW  Elec       q    Type
REMARK                         _______ _______ _______ _____ _____    ______ ____
ROOT
ATOM      1  C   UNL     1       3.926   3.296  17.830  0.00  0.00    +0.000 C 
ENDROOT
BRANCH   1   3
ATOM      2  O   UNL     1       4.654   2.330  19.943  0.00  0.00    +0.000 OA
ATOM      3  C   UNL     1       4.046   2.199  18.891  0.00  0.00    +0.000 C 
BRANCH   3   4
ATOM      4  O   UNL     1       3.335   1.071  18.649  0.00  0.00    +0.000 OA
ATOM      5  H   UNL     1       2.956   0.696  19.471  0.00  0.00    +0.000 HD
ENDBRANCH   3   4
ENDBRANCH   1   3
BRANCH   1   6
ATOM      6  C   UNL     1       2.510   3.929  17.794  0.00  0.00    +0.000 C 
BRANCH   6   7
ATOM      7  C   UNL     1       2.274   5.187  18.612  0.00  0.00    +0.000 A 
ATOM      8  C   UNL     1       2.374   6.438  17.972  0.00  0.00    +0.000 A 
ATOM      9  C   UNL     1       2.230   7.632  18.682  0.00  0.00    +0.000 A 
ATOM     10 CL   UNL     1       2.378   9.135  17.857  0.00  0.00    +0.000 Cl
ATOM     11  C   UNL     1       1.970   7.612  20.042  0.00  0.00    +0.000 A 
ATOM     12  C   UNL     1       1.803   6.385  20.686  0.00  0.00    +0.000 A 
ATOM     13  C   UNL     1       1.930   5.183  19.976  0.00  0.00    +0.000 A 
ATOM     14 CL   UNL     1       1.552   3.738  20.838  0.00  0.00    +0.000 Cl
ENDBRANCH   6   7
ENDBRANCH   1   6
BRANCH   1  15
ATOM     15  S   UNL     1       5.326   4.499  17.988  0.00  0.00    +0.000 S 
BRANCH  15  16
ATOM     16  C   UNL     1       5.802   4.648  16.341  0.00  0.00    +0.000 A 
ATOM     17  N   UNL     1       6.804   5.344  15.869  0.00  0.00    +0.000 NA
ATOM     18  C   UNL     1       6.878   4.992  14.542  0.00  0.00    +0.000 A 
ATOM     19  C   UNL     1       7.791   5.393  13.557  0.00  0.00    +0.000 A 
ATOM     20  C   UNL     1       7.683   4.832  12.276  0.00  0.00    +0.000 A 
ATOM     21  C   UNL     1       6.686   3.897  11.984  0.00  0.00    +0.000 A 
ATOM     22  C   UNL     1       5.755   3.498  12.950  0.00  0.00    +0.000 A 
ATOM     23  C   UNL     1       5.885   4.071  14.215  0.00  0.00    +0.000 A 
ATOM     24  N   UNL     1       5.177   3.912  15.381  0.00  0.00    +0.000 N 
ATOM     25  H   UNL     1       4.395   3.294  15.528  0.00  0.00    +0.000 HD
ENDBRANCH  15  16
ENDBRANCH   1  15
TORSDOF 6
ENDMDL
MODEL 3
REMARK VINA RESULT:      -7.7      3.428      4.487
REMARK  Name = 
REMARK  6 active torsions:
REMARK  status: ('A' for Active; 'I' for Inactive)
REMARK    1  A    between atoms: C_2  and  O_3
REMARK    2  A    between atoms: C_2  and  C_4
REMARK    3  A    between atoms: C_4  and  C_5
REMARK    4  A    between atoms: C_4  and  S_14
REMARK    5  A    between atoms: C_5  and  C_6
REMARK    6  A    between atoms: S_14  and  C_15
REMARK                            x       y       z     vdW  Elec       q    Type
REMARK                         _______ _______ _______ _____ _____    ______ ____
ROOT
ATOM      1  C   UNL     1       3.924   3.156  17.881  0.00  0.00    +0.000 C 
ENDROOT
BRANCH   1   3
ATOM      2  O   UNL     1       4.260   2.303  20.136  0.00  0.00    +0.000 OA
ATOM      3  C   UNL     1       4.145   2.074  18.941  0.00  0.00    +0.000 C 
BRANCH   3   4
ATOM      4  O   UNL     1       4.104   0.796  18.491  0.00  0.00    +0.000 OA
ATOM      5  H   UNL     1       4.203   0.150  19.220  0.00  0.00    +0.000 HD
ENDBRANCH   3   4
ENDBRANCH   1   3
BRANCH   1   6
ATOM      6  C   UNL     1       2.487   3.738  17.924  0.00  0.00    +0.000 C 
BRANCH   6   7
ATOM      7  C   UNL     1       2.269   5.034  18.687  0.00  0.00    +0.000 A 
ATOM      8  C   UNL     1       2.460   6.256  18.012  0.00  0.00    +0.000 A 
ATOM      9  C   UNL     1       2.336   7.480  18.675  0.00  0.00    +0.000 A 
ATOM     10 CL   UNL     1       2.596   8.944  17.810  0.00  0.00    +0.000 Cl
ATOM     11  C   UNL     1       2.006   7.518  20.019  0.00  0.00    +0.000 A 
ATOM     12  C   UNL     1       1.750   6.324  20.694  0.00  0.00    +0.000 A 
ATOM     13  C   UNL     1       1.856   5.093  20.030  0.00  0.00    +0.000 A 
ATOM     14 CL   UNL     1       1.368   3.698  20.918  0.00  0.00    +0.000 Cl
ENDBRANCH   6   7
ENDBRANCH   1   6
BRANCH   1  15
ATOM     15  S   UNL     1       5.287   4.409  17.947  0.00  0.00    +0.000 S 
BRANCH  15  16
ATOM     16  C   UNL     1       5.916   4.277  16.350  0.00  0.00    +0.000 A 
ATOM     17  N   UNL     1       5.477   3.504  15.391  0.00  0.00    +0.000 NA
ATOM     18  C   UNL     1       6.181   3.897  14.277  0.00  0.00    +0.000 A 
ATOM     19  C   UNL     1       6.092   3.445  12.953  0.00  0.00    +0.000 A 
ATOM     20  C   UNL     1       6.890   4.063  11.980  0.00  0.00    +0.000 A 
ATOM     21  C   UNL     1       7.760   5.102  12.319  0.00  0.00    +0.000 A 
ATOM     22  C   UNL     1       7.876   5.554  13.639  0.00  0.00    +0.000 A 
ATOM     23  C   UNL     1       7.071   4.924  14.587  0.00  0.00    +0.000 A 
ATOM     24  N   UNL     1       6.914   5.108  15.939  0.00  0.00    +0.000 N 
ATOM     25  H   UNL     1       7.382   5.794  16.508  0.00  0.00    +0.000 HD
ENDBRANCH  15  16
ENDBRANCH   1  15
TORSDOF 6
ENDMDL
MODEL 4
REMARK VINA RESULT:      -7.5      2.050      3.331
REMARK  Name = 
REMARK  6 active torsions:
REMARK  status: ('A' for Active; 'I' for Inactive)
REMARK    1  A    between atoms: C_2  and  O_3
REMARK    2  A    between atoms: C_2  and  C_4
REMARK    3  A    between atoms: C_4  and  C_5
REMARK    4  A    between atoms: C_4  and  S_14
REMARK    5  A    between atoms: C_5  and  C_6
REMARK    6  A    between atoms: S_14  and  C_15
REMARK                            x       y       z     vdW  Elec       q    Type
REMARK                         _______ _______ _______ _____ _____    ______ ____
ROOT
ATOM      1  C   UNL     1       2.308   3.884  20.134  0.00  0.00    +0.000 C 
ENDROOT
BRANCH   1   3
ATOM      2  O   UNL     1       1.013   2.602  21.749  0.00  0.00    +0.000 OA
ATOM      3  C   UNL     1       1.124   3.042  20.614  0.00  0.00    +0.000 C 
BRANCH   3   4
ATOM      4  O   UNL     1       0.117   2.885  19.720  0.00  0.00    +0.000 OA
ATOM      5  H   UNL     1      -0.326   2.017  19.817  0.00  0.00    +0.000 HD
ENDBRANCH   3   4
ENDBRANCH   1   3
BRANCH   1   6
ATOM      6  C   UNL     1       2.312   5.305  20.757  0.00  0.00    +0.000 C 
BRANCH   6   7
ATOM      7  C   UNL     1       2.355   6.494  19.812  0.00  0.00    +0.000 A 
ATOM      8  C   UNL     1       3.111   6.389  18.628  0.00  0.00    +0.000 A 
ATOM      9  C   UNL     1       3.240   7.468  17.750  0.00  0.00    +0.000 A 
ATOM     10 CL   UNL     1       4.189   7.295  16.325  0.00  0.00    +0.000 Cl
ATOM     11  C   UNL     1       2.612   8.672  18.022  0.00  0.00    +0.000 A 
ATOM     12  C   UNL     1       1.806   8.780  19.156  0.00  0.00    +0.000 A 
ATOM     13  C   UNL     1       1.658   7.696  20.033  0.00  0.00    +0.000 A 
ATOM     14 CL   UNL     1       0.520   7.893  21.313  0.00  0.00    +0.000 Cl
ENDBRANCH   6   7
ENDBRANCH   1   6
BRANCH   1  15
ATOM     15  S   UNL     1       3.889   2.935  20.321  0.00  0.00    +0.000 S 
BRANCH  15  16
ATOM     16  C   UNL     1       4.660   3.310  18.829  0.00  0.00    +0.000 A 
ATOM     17  N   UNL     1       4.162   3.177  17.627  0.00  0.00    +0.000 NA
ATOM     18  C   UNL     1       5.080   3.778  16.799  0.00  0.00    +0.000 A 
ATOM     19  C   UNL     1       5.047   3.972  15.412  0.00  0.00    +0.000 A 
ATOM     20  C   UNL     1       6.097   4.679  14.809  0.00  0.00    +0.000 A 
ATOM     21  C   UNL     1       7.158   5.175  15.571  0.00  0.00    +0.000 A 
ATOM     22  C   UNL     1       7.218   4.975  16.956  0.00  0.00    +0.000 A 
ATOM     23  C   UNL     1       6.161   4.270  17.530  0.00  0.00    +0.000 A 
ATOM     24  N   UNL     1       5.885   3.905  18.825  0.00  0.00    +0.000 N 
ATOM     25  H   UNL     1       6.440   4.118  19.638  0.00  0.00    +0.000 HD
ENDBRANCH  15  16
ENDBRANCH   1  15
TORSDOF 6
ENDMDL
MODEL 5
REMARK VINA RESULT:      -7.4      4.018      5.568
REMARK  Name = 
REMARK  6 active torsions:
REMARK  status: ('A' for Active; 'I' for Inactive)
REMARK    1  A    between atoms: C_2  and  O_3
REMARK    2  A    between atoms: C_2  and  C_4
REMARK    3  A    between atoms: C_4  and  C_5
REMARK    4  A    between atoms: C_4  and  S_14
REMARK    5  A    between atoms: C_5  and  C_6
REMARK    6  A    between atoms: S_14  and  C_15
REMARK                            x       y       z     vdW  Elec       q    Type
REMARK                         _______ _______ _______ _____ _____    ______ ____
ROOT
ATOM      1  C   UNL     1       6.802   5.123  18.402  0.00  0.00    +0.000 C 
ENDROOT
BRANCH   1   3
ATOM      2  O   UNL     1       8.360   6.917  18.933  0.00  0.00    +0.000 OA
ATOM      3  C   UNL     1       7.789   5.894  19.282  0.00  0.00    +0.000 C 
BRANCH   3   4
ATOM      4  O   UNL     1       7.928   5.431  20.549  0.00  0.00    +0.000 OA
ATOM      5  H   UNL     1       7.536   4.540  20.656  0.00  0.00    +0.000 HD
ENDBRANCH   3   4
ENDBRANCH   1   3
BRANCH   1   6
ATOM      6  C   UNL     1       5.829   4.248  19.235  0.00  0.00    +0.000 C 
BRANCH   6   7
ATOM      7  C   UNL     1       4.340   4.528  19.112  0.00  0.00    +0.000 A 
ATOM      8  C   UNL     1       3.835   5.739  19.625  0.00  0.00    +0.000 A 
ATOM      9  C   UNL     1       2.468   6.027  19.597  0.00  0.00    +0.000 A 
ATOM     10 CL   UNL     1       1.900   7.512  20.252  0.00  0.00    +0.000 Cl
ATOM     11  C   UNL     1       1.573   5.124  19.047  0.00  0.00    +0.000 A 
ATOM     12  C   UNL     1       2.056   3.946  18.476  0.00  0.00    +0.000 A 
ATOM     13  C   UNL     1       3.429   3.659  18.485  0.00  0.00    +0.000 A 
ATOM     14 CL   UNL     1       3.925   2.254  17.617  0.00  0.00    +0.000 Cl
ENDBRANCH   6   7
ENDBRANCH   1   6
BRANCH   1  15
ATOM     15  S   UNL     1       5.995   6.266  17.188  0.00  0.00    +0.000 S 
BRANCH  15  16
ATOM     16  C   UNL     1       6.133   5.341  15.743  0.00  0.00    +0.000 A 
ATOM     17  N   UNL     1       5.248   4.517  15.245  0.00  0.00    +0.000 NA
ATOM     18  C   UNL     1       5.743   4.179  14.007  0.00  0.00    +0.000 A 
ATOM     19  C   UNL     1       5.191   3.362  13.012  0.00  0.00    +0.000 A 
ATOM     20  C   UNL     1       5.878   3.228  11.798  0.00  0.00    +0.000 A 
ATOM     21  C   UNL     1       7.090   3.889  11.583  0.00  0.00    +0.000 A 
ATOM     22  C   UNL     1       7.667   4.695  12.572  0.00  0.00    +0.000 A 
ATOM     23  C   UNL     1       6.962   4.812  13.769  0.00  0.00    +0.000 A 
ATOM     24  N   UNL     1       7.211   5.509  14.926  0.00  0.00    +0.000 N 
ATOM     25  H   UNL     1       7.999   6.109  15.106  0.00  0.00    +0.000 HD
ENDBRANCH  15  16
ENDBRANCH   1  15
TORSDOF 6
ENDMDL
MODEL 6
REMARK VINA RESULT:      -7.4      3.845      4.816
REMARK  Name = 
REMARK  6 active torsions:
REMARK  status: ('A' for Active; 'I' for Inactive)
REMARK    1  A    between atoms: C_2  and  O_3
REMARK    2  A    between atoms: C_2  and  C_4
REMARK    3  A    between atoms: C_4  and  C_5
REMARK    4  A    between atoms: C_4  and  S_14
REMARK    5  A    between atoms: C_5  and  C_6
REMARK    6  A    between atoms: S_14  and  C_15
REMARK                            x       y       z     vdW  Elec       q    Type
REMARK                         _______ _______ _______ _____ _____    ______ ____
ROOT
ATOM      1  C   UNL     1       5.214   6.092  17.994  0.00  0.00    +0.000 C 
ENDROOT
BRANCH   1   3
ATOM      2  O   UNL     1       6.699   7.752  17.011  0.00  0.00    +0.000 OA
ATOM      3  C   UNL     1       5.708   7.046  16.904  0.00  0.00    +0.000 C 
BRANCH   3   4
ATOM      4  O   UNL     1       5.030   6.994  15.731  0.00  0.00    +0.000 OA
ATOM      5  H   UNL     1       4.061   6.953  15.872  0.00  0.00    +0.000 HD
ENDBRANCH   3   4
ENDBRANCH   1   3
BRANCH   1   6
ATOM      6  C   UNL     1       3.681   5.862  17.927  0.00  0.00    +0.000 C 
BRANCH   6   7
ATOM      7  C   UNL     1       2.790   6.769  18.760  0.00  0.00    +0.000 A 
ATOM      8  C   UNL     1       2.422   8.023  18.235  0.00  0.00    +0.000 A 
ATOM      9  C   UNL     1       1.657   8.926  18.977  0.00  0.00    +0.000 A 
ATOM     10 CL   UNL     1       1.249  10.453  18.298  0.00  0.00    +0.000 Cl
ATOM     11  C   UNL     1       1.229   8.598  20.253  0.00  0.00    +0.000 A 
ATOM     12  C   UNL     1       1.527   7.337  20.770  0.00  0.00    +0.000 A 
ATOM     13  C   UNL     1       2.280   6.420  20.023  0.00  0.00    +0.000 A 
ATOM     14 CL   UNL     1       2.454   4.841  20.696  0.00  0.00    +0.000 Cl
ENDBRANCH   6   7
ENDBRANCH   1   6
BRANCH   1  15
ATOM     15  S   UNL     1       6.243   4.551  18.015  0.00  0.00    +0.000 S 
BRANCH  15  16
ATOM     16  C   UNL     1       6.469   4.300  16.327  0.00  0.00    +0.000 A 
ATOM     17  N   UNL     1       5.709   3.601  15.524  0.00  0.00    +0.000 NA
ATOM     18  C   UNL     1       6.200   3.860  14.266  0.00  0.00    +0.000 A 
ATOM     19  C   UNL     1       5.746   3.416  13.017  0.00  0.00    +0.000 A 
ATOM     20  C   UNL     1       6.395   3.882  11.865  0.00  0.00    +0.000 A 
ATOM     21  C   UNL     1       7.474   4.766  11.956  0.00  0.00    +0.000 A 
ATOM     22  C   UNL     1       7.953   5.205  13.196  0.00  0.00    +0.000 A 
ATOM     23  C   UNL     1       7.289   4.728  14.325  0.00  0.00    +0.000 A 
ATOM     24  N   UNL     1       7.470   4.948  15.669  0.00  0.00    +0.000 N 
ATOM     25  H   UNL     1       8.157   5.553  16.090  0.00  0.00    +0.000 HD
ENDBRANCH  15  16
ENDBRANCH   1  15
TORSDOF 6
ENDMDL
MODEL 7
REMARK VINA RESULT:      -7.4      4.192      5.480
REMARK  Name = 
REMARK  6 active torsions:
REMARK  status: ('A' for Active; 'I' for Inactive)
REMARK    1  A    between atoms: C_2  and  O_3
REMARK    2  A    between atoms: C_2  and  C_4
REMARK    3  A    between atoms: C_4  and  C_5
REMARK    4  A    between atoms: C_4  and  S_14
REMARK    5  A    between atoms: C_5  and  C_6
REMARK    6  A    between atoms: S_14  and  C_15
REMARK                            x       y       z     vdW  Elec       q    Type
REMARK                         _______ _______ _______ _____ _____    ______ ____
ROOT
ATOM      1  C   UNL     1       6.390   6.019  18.260  0.00  0.00    +0.000 C 
ENDROOT
BRANCH   1   3
ATOM      2  O   UNL     1       8.279   7.527  18.552  0.00  0.00    +0.000 OA
ATOM      3  C   UNL     1       7.286   7.210  17.913  0.00  0.00    +0.000 C 
BRANCH   3   4
ATOM      4  O   UNL     1       6.977   7.860  16.764  0.00  0.00    +0.000 OA
ATOM      5  H   UNL     1       6.280   8.535  16.903  0.00  0.00    +0.000 HD
ENDBRANCH   3   4
ENDBRANCH   1   3
BRANCH   1   6
ATOM      6  C   UNL     1       4.932   6.215  17.766  0.00  0.00    +0.000 C 
BRANCH   6   7
ATOM      7  C   UNL     1       3.806   5.884  18.731  0.00  0.00    +0.000 A 
ATOM      8  C   UNL     1       3.873   4.682  19.463  0.00  0.00    +0.000 A 
ATOM      9  C   UNL     1       2.840   4.294  20.319  0.00  0.00    +0.000 A 
ATOM     10 CL   UNL     1       2.962   2.808  21.178  0.00  0.00    +0.000 Cl
ATOM     11  C   UNL     1       1.722   5.095  20.478  0.00  0.00    +0.000 A 
ATOM     12  C   UNL     1       1.661   6.320  19.812  0.00  0.00    +0.000 A 
ATOM     13  C   UNL     1       2.702   6.725  18.965  0.00  0.00    +0.000 A 
ATOM     14 CL   UNL     1       2.591   8.320  18.319  0.00  0.00    +0.000 Cl
ENDBRANCH   6   7
ENDBRANCH   1   6
BRANCH   1  15
ATOM     15  S   UNL     1       7.196   4.435  17.735  0.00  0.00    +0.000 S 
BRANCH  15  16
ATOM     16  C   UNL     1       6.990   4.526  16.029  0.00  0.00    +0.000 A 
ATOM     17  N   UNL     1       7.696   5.235  15.186  0.00  0.00    +0.000 NA
ATOM     18  C   UNL     1       7.269   4.827  13.944  0.00  0.00    +0.000 A 
ATOM     19  C   UNL     1       7.708   5.215  12.671  0.00  0.00    +0.000 A 
ATOM     20  C   UNL     1       7.141   4.594  11.549  0.00  0.00    +0.000 A 
ATOM     21  C   UNL     1       6.156   3.613  11.693  0.00  0.00    +0.000 A 
ATOM     22  C   UNL     1       5.692   3.226  12.955  0.00  0.00    +0.000 A 
ATOM     23  C   UNL     1       6.272   3.858  14.054  0.00  0.00    +0.000 A 
ATOM     24  N   UNL     1       6.079   3.727  15.407  0.00  0.00    +0.000 N 
ATOM     25  H   UNL     1       5.447   3.090  15.863  0.00  0.00    +0.000 HD
ENDBRANCH  15  16
ENDBRANCH   1  15
TORSDOF 6
ENDMDL
MODEL 8
REMARK VINA RESULT:      -7.3      2.902      6.704
REMARK  Name = 
REMARK  6 active torsions:
REMARK  status: ('A' for Active; 'I' for Inactive)
REMARK    1  A    between atoms: C_2  and  O_3
REMARK    2  A    between atoms: C_2  and  C_4
REMARK    3  A    between atoms: C_4  and  C_5
REMARK    4  A    between atoms: C_4  and  S_14
REMARK    5  A    between atoms: C_5  and  C_6
REMARK    6  A    between atoms: S_14  and  C_15
REMARK                            x       y       z     vdW  Elec       q    Type
REMARK                         _______ _______ _______ _____ _____    ______ ____
ROOT
ATOM      1  C   UNL     1       3.071   4.978  18.961  0.00  0.00    +0.000 C 
ENDROOT
BRANCH   1   3
ATOM      2  O   UNL     1       0.913   4.350  19.898  0.00  0.00    +0.000 OA
ATOM      3  C   UNL     1       1.660   4.385  18.931  0.00  0.00    +0.000 C 
BRANCH   3   4
ATOM      4  O   UNL     1       1.221   3.979  17.714  0.00  0.00    +0.000 OA
ATOM      5  H   UNL     1       1.721   4.405  16.987  0.00  0.00    +0.000 HD
ENDBRANCH   3   4
ENDBRANCH   1   3
BRANCH   1   6
ATOM      6  C   UNL     1       4.163   3.914  18.673  0.00  0.00    +0.000 C 
BRANCH   6   7
ATOM      7  C   UNL     1       5.224   4.248  17.638  0.00  0.00    +0.000 A 
ATOM      8  C   UNL     1       4.959   3.965  16.283  0.00  0.00    +0.000 A 
ATOM      9  C   UNL     1       5.917   4.192  15.293  0.00  0.00    +0.000 A 
ATOM     10 CL   UNL     1       5.551   3.815  13.654  0.00  0.00    +0.000 Cl
ATOM     11  C   UNL     1       7.156   4.716  15.622  0.00  0.00    +0.000 A 
ATOM     12  C   UNL     1       7.419   5.063  16.948  0.00  0.00    +0.000 A 
ATOM     13  C   UNL     1       6.455   4.854  17.945  0.00  0.00    +0.000 A 
ATOM     14 CL   UNL     1       6.831   5.461  19.515  0.00  0.00    +0.000 Cl
ENDBRANCH   6   7
ENDBRANCH   1   6
BRANCH   1  15
ATOM     15  S   UNL     1       3.152   6.498  17.905  0.00  0.00    +0.000 S 
BRANCH  15  16
ATOM     16  C   UNL     1       2.349   7.631  18.922  0.00  0.00    +0.000 A 
ATOM     17  N   UNL     1       1.756   8.739  18.557  0.00  0.00    +0.000 NA
ATOM     18  C   UNL     1       1.117   9.183  19.690  0.00  0.00    +0.000 A 
ATOM     19  C   UNL     1       0.292  10.300  19.876  0.00  0.00    +0.000 A 
ATOM     20  C   UNL     1      -0.293  10.499  21.134  0.00  0.00    +0.000 A 
ATOM     21  C   UNL     1      -0.057   9.607  22.184  0.00  0.00    +0.000 A 
ATOM     22  C   UNL     1       0.779   8.496  22.023  0.00  0.00    +0.000 A 
ATOM     23  C   UNL     1       1.347   8.322  20.762  0.00  0.00    +0.000 A 
ATOM     24  N   UNL     1       2.187   7.364  20.248  0.00  0.00    +0.000 N 
ATOM     25  H   UNL     1       2.544   6.557  20.734  0.00  0.00    +0.000 HD
ENDBRANCH  15  16
ENDBRANCH   1  15
TORSDOF 6
ENDMDL
MODEL 9
REMARK VINA RESULT:      -7.3      4.067      5.541
REMARK  Name = 
REMARK  6 active torsions:
REMARK  status: ('A' for Active; 'I' for Inactive)
REMARK    1  A    between atoms: C_2  and  O_3
REMARK    2  A    between atoms: C_2  and  C_4
REMARK    3  A    between atoms: C_4  and  C_5
REMARK    4  A    between atoms: C_4  and  S_14
REMARK    5  A    between atoms: C_5  and  C_6
REMARK    6  A    between atoms: S_14  and  C_15
REMARK                            x       y       z     vdW  Elec       q    Type
REMARK                         _______ _______ _______ _____ _____    ______ ____
ROOT
ATOM      1  C   UNL     1       5.127   6.160  17.914  0.00  0.00    +0.000 C 
ENDROOT
BRANCH   1   3
ATOM      2  O   UNL     1       6.839   7.737  17.201  0.00  0.00    +0.000 OA
ATOM      3  C   UNL     1       5.794   7.152  16.958  0.00  0.00    +0.000 C 
BRANCH   3   4
ATOM      4  O   UNL     1       5.207   7.279  15.743  0.00  0.00    +0.000 OA
ATOM      5  H   UNL     1       4.238   7.140  15.791  0.00  0.00    +0.000 HD
ENDBRANCH   3   4
ENDBRANCH   1   3
BRANCH   1   6
ATOM      6  C   UNL     1       3.613   5.989  17.623  0.00  0.00    +0.000 C 
BRANCH   6   7
ATOM      7  C   UNL     1       2.783   5.201  18.623  0.00  0.00    +0.000 A 
ATOM      8  C   UNL     1       2.694   3.803  18.476  0.00  0.00    +0.000 A 
ATOM      9  C   UNL     1       1.898   3.031  19.325  0.00  0.00    +0.000 A 
ATOM     10 CL   UNL     1       1.810   1.329  19.093  0.00  0.00    +0.000 Cl
ATOM     11  C   UNL     1       1.181   3.629  20.348  0.00  0.00    +0.000 A 
ATOM     12  C   UNL     1       1.302   5.004  20.554  0.00  0.00    +0.000 A 
ATOM     13  C   UNL     1       2.113   5.782  19.716  0.00  0.00    +0.000 A 
ATOM     14 CL   UNL     1       2.309   7.437  20.157  0.00  0.00    +0.000 Cl
ENDBRANCH   6   7
ENDBRANCH   1   6
BRANCH   1  15
ATOM     15  S   UNL     1       6.100   4.584  17.986  0.00  0.00    +0.000 S 
BRANCH  15  16
ATOM     16  C   UNL     1       6.389   4.315  16.311  0.00  0.00    +0.000 A 
ATOM     17  N   UNL     1       5.683   3.573  15.497  0.00  0.00    +0.000 NA
ATOM     18  C   UNL     1       6.203   3.831  14.251  0.00  0.00    +0.000 A 
ATOM     19  C   UNL     1       5.807   3.349  12.996  0.00  0.00    +0.000 A 
ATOM     20  C   UNL     1       6.473   3.821  11.856  0.00  0.00    +0.000 A 
ATOM     21  C   UNL     1       7.514   4.747  11.966  0.00  0.00    +0.000 A 
ATOM     22  C   UNL     1       7.936   5.225  13.213  0.00  0.00    +0.000 A 
ATOM     23  C   UNL     1       7.256   4.741  14.329  0.00  0.00    +0.000 A 
ATOM     24  N   UNL     1       7.385   4.990  15.673  0.00  0.00    +0.000 N 
ATOM     25  H   UNL     1       8.035   5.628  16.104  0.00  0.00    +0.000 HD
ENDBRANCH  15  16
ENDBRANCH   1  15
TORSDOF 6
ENDMDL
