MODEL 1
REMARK VINA RESULT:      -9.5      0.000      0.000
REMARK  Name = 
REMARK  9 active torsions:
REMARK  status: ('A' for Active; 'I' for Inactive)
REMARK    1  A    between atoms: C_1  and  C_2
REMARK    2  A    between atoms: N_5  and  C_6
REMARK    3  A    between atoms: C_6  and  C_7
REMARK    4  A    between atoms: C_6  and  C_8
REMARK    5  A    between atoms: C_12  and  O_13
REMARK    6  A    between atoms: O_13  and  C_14
REMARK    7  A    between atoms: C_14  and  C_15
REMARK    8  A    between atoms: C_15  and  N_16
REMARK    9  A    between atoms: C_23  and  C_24
REMARK                            x       y       z     vdW  Elec       q    Type
REMARK                         _______ _______ _______ _____ _____    ______ ____
ROOT
ATOM      1  C   UNL     1       2.984   2.810  20.860  0.00  0.00    +0.000 C 
ATOM      2  C   UNL     1       3.350   3.777  19.777  0.00  0.00    +0.000 A 
ATOM      3  N   UNL     1       4.156   3.348  18.785  0.00  0.00    +0.000 NA
ATOM      4  C   UNL     1       4.417   4.206  17.789  0.00  0.00    +0.000 A 
ATOM      5  N   UNL     1       5.212   3.721  16.762  0.00  0.00    +0.000 N 
ATOM      6  C   UNL     1       3.857   5.464  17.767  0.00  0.00    +0.000 A 
ATOM      7  C   UNL     1       3.063   5.844  18.832  0.00  0.00    +0.000 A 
ATOM      8  N   UNL     1       2.812   5.005  19.854  0.00  0.00    +0.000 NA
ATOM      9  H   UNL     1       5.586   2.812  17.023  0.00  0.00    +0.000 HD
ENDROOT
BRANCH   7  10
ATOM     10  C   UNL     1       2.446   7.185  18.918  0.00  0.00    +0.000 A 
ATOM     11  C   UNL     1       2.426   8.036  17.802  0.00  0.00    +0.000 A 
ATOM     12  C   UNL     1       1.831   9.306  17.848  0.00  0.00    +0.000 A 
ATOM     13  C   UNL     1       1.238   9.757  19.041  0.00  0.00    +0.000 A 
ATOM     14  N   UNL     1       0.619  10.981  19.234  0.00  0.00    +0.000 NA
ATOM     15  C   UNL     1       0.187  11.062  20.471  0.00  0.00    +0.000 A 
ATOM     16  S   UNL     1       0.477   9.704  21.472  0.00  0.00    +0.000 S 
ATOM     17  C   UNL     1       1.260   8.916  20.154  0.00  0.00    +0.000 A 
ATOM     18  C   UNL     1       1.854   7.642  20.114  0.00  0.00    +0.000 A 
ENDBRANCH   7  10
BRANCH   5  19
ATOM     19  C   UNL     1       6.138   4.588  16.037  0.00  0.00    +0.000 C 
ATOM     20  C   UNL     1       5.394   5.404  14.979  0.00  0.00    +0.000 C 
BRANCH  19  21
ATOM     21  C   UNL     1       6.963   5.397  17.033  0.00  0.00    +0.000 A 
ATOM     22  C   UNL     1       7.446   4.881  18.244  0.00  0.00    +0.000 A 
ATOM     23  C   UNL     1       8.082   5.712  19.171  0.00  0.00    +0.000 A 
ATOM     24  C   UNL     1       8.225   7.075  18.911  0.00  0.00    +0.000 A 
ATOM     25  C   UNL     1       7.742   7.614  17.722  0.00  0.00    +0.000 A 
ATOM     26  C   UNL     1       7.157   6.769  16.774  0.00  0.00    +0.000 A 
BRANCH  25  27
ATOM     27  O   UNL     1       7.868   8.973  17.589  0.00  0.00    +0.000 OA
BRANCH  27  28
ATOM     28  C   UNL     1       8.659   9.603  18.606  0.00  0.00    +0.000 C 
BRANCH  28  29
ATOM     29  C   UNL     1       9.517  10.689  17.975  0.00  0.00    +0.000 C 
BRANCH  29  30
ATOM     30  N   UNL     1       8.926  12.002  18.149  0.00  0.00    +0.000 N 
ATOM     31  C   UNL     1       9.212  12.912  19.124  0.00  0.00    +0.000 A 
ATOM     32  C   UNL     1       8.421  14.009  18.863  0.00  0.00    +0.000 A 
ATOM     33  C   UNL     1       7.699  13.663  17.711  0.00  0.00    +0.000 A 
ATOM     34  N   UNL     1       7.998  12.437  17.274  0.00  0.00    +0.000 NA
ENDBRANCH  29  30
ENDBRANCH  28  29
ENDBRANCH  27  28
ENDBRANCH  25  27
ENDBRANCH  19  21
ENDBRANCH   5  19
TORSDOF 7
ENDMDL
MODEL 2
REMARK VINA RESULT:      -9.1      0.983      1.306
REMARK  Name = 
REMARK  9 active torsions:
REMARK  status: ('A' for Active; 'I' for Inactive)
REMARK    1  A    between atoms: C_1  and  C_2
REMARK    2  A    between atoms: N_5  and  C_6
REMARK    3  A    between atoms: C_6  and  C_7
REMARK    4  A    between atoms: C_6  and  C_8
REMARK    5  A    between atoms: C_12  and  O_13
REMARK    6  A    between atoms: O_13  and  C_14
REMARK    7  A    between atoms: C_14  and  C_15
REMARK    8  A    between atoms: C_15  and  N_16
REMARK    9  A    between atoms: C_23  and  C_24
REMARK                            x       y       z     vdW  Elec       q    Type
REMARK                         _______ _______ _______ _____ _____    ______ ____
ROOT
ATOM      1  C   UNL     1       2.582   3.359  21.339  0.00  0.00    +0.000 C 
ATOM      2  C   UNL     1       2.996   4.185  20.160  0.00  0.00    +0.000 A 
ATOM      3  N   UNL     1       3.768   3.608  19.218  0.00  0.00    +0.000 NA
ATOM      4  C   UNL     1       4.072   4.342  18.137  0.00  0.00    +0.000 A 
ATOM      5  N   UNL     1       4.829   3.707  17.165  0.00  0.00    +0.000 N 
ATOM      6  C   UNL     1       3.587   5.622  17.986  0.00  0.00    +0.000 A 
ATOM      7  C   UNL     1       2.824   6.156  19.007  0.00  0.00    +0.000 A 
ATOM      8  N   UNL     1       2.532   5.444  20.111  0.00  0.00    +0.000 NA
ATOM      9  H   UNL     1       5.150   2.809  17.518  0.00  0.00    +0.000 HD
ENDROOT
BRANCH   7  10
ATOM     10  C   UNL     1       2.288   7.533  18.954  0.00  0.00    +0.000 A 
ATOM     11  C   UNL     1       2.414   8.306  17.789  0.00  0.00    +0.000 A 
ATOM     12  C   UNL     1       1.899   9.608  17.702  0.00  0.00    +0.000 A 
ATOM     13  C   UNL     1       1.239  10.173  18.809  0.00  0.00    +0.000 A 
ATOM     14  N   UNL     1       0.685  11.441  18.869  0.00  0.00    +0.000 NA
ATOM     15  C   UNL     1       0.158  11.631  20.057  0.00  0.00    +0.000 A 
ATOM     16  S   UNL     1       0.278  10.331  21.163  0.00  0.00    +0.000 S 
ATOM     17  C   UNL     1       1.116   9.410  19.971  0.00  0.00    +0.000 A 
ATOM     18  C   UNL     1       1.630   8.105  20.063  0.00  0.00    +0.000 A 
ENDBRANCH   7  10
BRANCH   5  19
ATOM     19  C   UNL     1       5.799   4.437  16.352  0.00  0.00    +0.000 C 
ATOM     20  C   UNL     1       5.091   5.222  15.247  0.00  0.00    +0.000 C 
BRANCH  19  21
ATOM     21  C   UNL     1       6.710   5.256  17.262  0.00  0.00    +0.000 A 
ATOM     22  C   UNL     1       7.099   4.848  18.546  0.00  0.00    +0.000 A 
ATOM     23  C   UNL     1       7.827   5.704  19.377  0.00  0.00    +0.000 A 
ATOM     24  C   UNL     1       8.156   6.989  18.947  0.00  0.00    +0.000 A 
ATOM     25  C   UNL     1       7.770   7.423  17.682  0.00  0.00    +0.000 A 
ATOM     26  C   UNL     1       7.091   6.544  16.833  0.00  0.00    +0.000 A 
BRANCH  25  27
ATOM     27  O   UNL     1       8.080   8.724  17.378  0.00  0.00    +0.000 OA
BRANCH  27  28
ATOM     28  C   UNL     1       8.834   9.411  18.385  0.00  0.00    +0.000 C 
BRANCH  28  29
ATOM     29  C   UNL     1       8.743  10.911  18.147  0.00  0.00    +0.000 C 
BRANCH  29  30
ATOM     30  N   UNL     1       9.800  11.624  18.837  0.00  0.00    +0.000 N 
ATOM     31  C   UNL     1      10.461  12.737  18.408  0.00  0.00    +0.000 A 
ATOM     32  C   UNL     1      11.354  13.059  19.407  0.00  0.00    +0.000 A 
ATOM     33  C   UNL     1      11.152  12.082  20.394  0.00  0.00    +0.000 A 
ATOM     34  N   UNL     1      10.210  11.199  20.049  0.00  0.00    +0.000 NA
ENDBRANCH  29  30
ENDBRANCH  28  29
ENDBRANCH  27  28
ENDBRANCH  25  27
ENDBRANCH  19  21
ENDBRANCH   5  19
TORSDOF 7
ENDMDL
MODEL 3
REMARK VINA RESULT:      -8.5      1.432      1.800
REMARK  Name = 
REMARK  9 active torsions:
REMARK  status: ('A' for Active; 'I' for Inactive)
REMARK    1  A    between atoms: C_1  and  C_2
REMARK    2  A    between atoms: N_5  and  C_6
REMARK    3  A    between atoms: C_6  and  C_7
REMARK    4  A    between atoms: C_6  and  C_8
REMARK    5  A    between atoms: C_12  and  O_13
REMARK    6  A    between atoms: O_13  and  C_14
REMARK    7  A    between atoms: C_14  and  C_15
REMARK    8  A    between atoms: C_15  and  N_16
REMARK    9  A    between atoms: C_23  and  C_24
REMARK                            x       y       z     vdW  Elec       q    Type
REMARK                         _______ _______ _______ _____ _____    ______ ____
ROOT
ATOM      1  C   UNL     1       3.679   2.199  20.934  0.00  0.00    +0.000 C 
ATOM      2  C   UNL     1       3.831   3.281  19.909  0.00  0.00    +0.000 A 
ATOM      3  N   UNL     1       4.567   3.019  18.811  0.00  0.00    +0.000 NA
ATOM      4  C   UNL     1       4.634   3.975  17.873  0.00  0.00    +0.000 A 
ATOM      5  N   UNL     1       5.361   3.660  16.735  0.00  0.00    +0.000 N 
ATOM      6  C   UNL     1       3.953   5.163  18.016  0.00  0.00    +0.000 A 
ATOM      7  C   UNL     1       3.242   5.371  19.183  0.00  0.00    +0.000 A 
ATOM      8  N   UNL     1       3.184   4.434  20.146  0.00  0.00    +0.000 NA
ATOM      9  H   UNL     1       5.848   2.779  16.877  0.00  0.00    +0.000 HD
ENDROOT
BRANCH   7  10
ATOM     10  C   UNL     1       2.507   6.627  19.446  0.00  0.00    +0.000 A 
ATOM     11  C   UNL     1       1.795   6.802  20.643  0.00  0.00    +0.000 A 
ATOM     12  C   UNL     1       1.105   7.990  20.930  0.00  0.00    +0.000 A 
ATOM     13  C   UNL     1       1.112   9.043  19.998  0.00  0.00    +0.000 A 
ATOM     14  N   UNL     1       0.476  10.265  20.142  0.00  0.00    +0.000 NA
ATOM     15  C   UNL     1       0.692  11.000  19.074  0.00  0.00    +0.000 A 
ATOM     16  S   UNL     1       1.658  10.298  17.849  0.00  0.00    +0.000 S 
ATOM     17  C   UNL     1       1.814   8.872  18.804  0.00  0.00    +0.000 A 
ATOM     18  C   UNL     1       2.508   7.684  18.512  0.00  0.00    +0.000 A 
ENDBRANCH   7  10
BRANCH   5  19
ATOM     19  C   UNL     1       6.115   4.675  16.003  0.00  0.00    +0.000 C 
ATOM     20  C   UNL     1       5.183   5.494  15.108  0.00  0.00    +0.000 C 
BRANCH  19  21
ATOM     21  C   UNL     1       6.965   5.480  16.980  0.00  0.00    +0.000 A 
ATOM     22  C   UNL     1       7.505   4.952  18.161  0.00  0.00    +0.000 A 
ATOM     23  C   UNL     1       8.163   5.777  19.077  0.00  0.00    +0.000 A 
ATOM     24  C   UNL     1       8.272   7.146  18.838  0.00  0.00    +0.000 A 
ATOM     25  C   UNL     1       7.733   7.698  17.678  0.00  0.00    +0.000 A 
ATOM     26  C   UNL     1       7.124   6.861  16.739  0.00  0.00    +0.000 A 
BRANCH  25  27
ATOM     27  O   UNL     1       7.830   9.061  17.567  0.00  0.00    +0.000 OA
BRANCH  27  28
ATOM     28  C   UNL     1       8.611   9.693  18.590  0.00  0.00    +0.000 C 
BRANCH  28  29
ATOM     29  C   UNL     1       9.723  10.507  17.946  0.00  0.00    +0.000 C 
BRANCH  29  30
ATOM     30  N   UNL     1      10.376  11.371  18.910  0.00  0.00    +0.000 N 
ATOM     31  C   UNL     1      11.231  12.400  18.648  0.00  0.00    +0.000 A 
ATOM     32  C   UNL     1      11.569  12.935  19.871  0.00  0.00    +0.000 A 
ATOM     33  C   UNL     1      10.865  12.160  20.806  0.00  0.00    +0.000 A 
ATOM     34  N   UNL     1      10.140  11.200  20.226  0.00  0.00    +0.000 NA
ENDBRANCH  29  30
ENDBRANCH  28  29
ENDBRANCH  27  28
ENDBRANCH  25  27
ENDBRANCH  19  21
ENDBRANCH   5  19
TORSDOF 7
ENDMDL
MODEL 4
REMARK VINA RESULT:      -8.4      4.042      7.605
REMARK  Name = 
REMARK  9 active torsions:
REMARK  status: ('A' for Active; 'I' for Inactive)
REMARK    1  A    between atoms: C_1  and  C_2
REMARK    2  A    between atoms: N_5  and  C_6
REMARK    3  A    between atoms: C_6  and  C_7
REMARK    4  A    between atoms: C_6  and  C_8
REMARK    5  A    between atoms: C_12  and  O_13
REMARK    6  A    between atoms: O_13  and  C_14
REMARK    7  A    between atoms: C_14  and  C_15
REMARK    8  A    between atoms: C_15  and  N_16
REMARK    9  A    between atoms: C_23  and  C_24
REMARK                            x       y       z     vdW  Elec       q    Type
REMARK                         _______ _______ _______ _____ _____    ______ ____
ROOT
ATOM      1  C   UNL     1       1.215   2.808  20.010  0.00  0.00    +0.000 C 
ATOM      2  C   UNL     1       1.849   4.139  19.746  0.00  0.00    +0.000 A 
ATOM      3  N   UNL     1       1.409   5.204  20.446  0.00  0.00    +0.000 NA
ATOM      4  C   UNL     1       2.036   6.373  20.245  0.00  0.00    +0.000 A 
ATOM      5  N   UNL     1       1.591   7.439  21.011  0.00  0.00    +0.000 N 
ATOM      6  C   UNL     1       3.104   6.470  19.381  0.00  0.00    +0.000 A 
ATOM      7  C   UNL     1       3.479   5.341  18.678  0.00  0.00    +0.000 A 
ATOM      8  N   UNL     1       2.846   4.166  18.847  0.00  0.00    +0.000 NA
ATOM      9  H   UNL     1       0.746   7.170  21.508  0.00  0.00    +0.000 HD
ENDROOT
BRANCH   7  10
ATOM     10  C   UNL     1       4.590   5.353  17.701  0.00  0.00    +0.000 A 
ATOM     11  C   UNL     1       5.786   6.030  17.987  0.00  0.00    +0.000 A 
ATOM     12  C   UNL     1       6.864   6.043  17.088  0.00  0.00    +0.000 A 
ATOM     13  C   UNL     1       6.757   5.366  15.860  0.00  0.00    +0.000 A 
ATOM     14  N   UNL     1       7.732   5.295  14.879  0.00  0.00    +0.000 NA
ATOM     15  C   UNL     1       7.284   4.588  13.867  0.00  0.00    +0.000 A 
ATOM     16  S   UNL     1       5.698   3.962  14.016  0.00  0.00    +0.000 S 
ATOM     17  C   UNL     1       5.568   4.696  15.570  0.00  0.00    +0.000 A 
ATOM     18  C   UNL     1       4.484   4.680  16.467  0.00  0.00    +0.000 A 
ENDBRANCH   7  10
BRANCH   5  19
ATOM     19  C   UNL     1       1.602   8.807  20.498  0.00  0.00    +0.000 C 
ATOM     20  C   UNL     1       1.223   8.828  19.016  0.00  0.00    +0.000 C 
BRANCH  19  21
ATOM     21  C   UNL     1       0.758   9.696  21.406  0.00  0.00    +0.000 A 
ATOM     22  C   UNL     1       0.043   9.221  22.515  0.00  0.00    +0.000 A 
ATOM     23  C   UNL     1      -0.815  10.065  23.226  0.00  0.00    +0.000 A 
ATOM     24  C   UNL     1      -0.988  11.390  22.827  0.00  0.00    +0.000 A 
ATOM     25  C   UNL     1      -0.300  11.882  21.721  0.00  0.00    +0.000 A 
ATOM     26  C   UNL     1       0.598  11.050  21.047  0.00  0.00    +0.000 A 
BRANCH  25  27
ATOM     27  O   UNL     1      -0.590  13.174  21.366  0.00  0.00    +0.000 OA
BRANCH  27  28
ATOM     28  C   UNL     1      -0.870  13.364  19.972  0.00  0.00    +0.000 C 
BRANCH  28  29
ATOM     29  C   UNL     1      -0.525  14.793  19.579  0.00  0.00    +0.000 C 
BRANCH  29  30
ATOM     30  N   UNL     1       0.857  14.909  19.156  0.00  0.00    +0.000 N 
ATOM     31  C   UNL     1       1.712  15.941  19.408  0.00  0.00    +0.000 A 
ATOM     32  C   UNL     1       2.912  15.591  18.829  0.00  0.00    +0.000 A 
ATOM     33  C   UNL     1       2.677  14.331  18.256  0.00  0.00    +0.000 A 
ATOM     34  N   UNL     1       1.423  13.913  18.447  0.00  0.00    +0.000 NA
ENDBRANCH  29  30
ENDBRANCH  28  29
ENDBRANCH  27  28
ENDBRANCH  25  27
ENDBRANCH  19  21
ENDBRANCH   5  19
TORSDOF 7
ENDMDL
MODEL 5
REMARK VINA RESULT:      -8.2      4.268      8.211
REMARK  Name = 
REMARK  9 active torsions:
REMARK  status: ('A' for Active; 'I' for Inactive)
REMARK    1  A    between atoms: C_1  and  C_2
REMARK    2  A    between atoms: N_5  and  C_6
REMARK    3  A    between atoms: C_6  and  C_7
REMARK    4  A    between atoms: C_6  and  C_8
REMARK    5  A    between atoms: C_12  and  O_13
REMARK    6  A    between atoms: O_13  and  C_14
REMARK    7  A    between atoms: C_14  and  C_15
REMARK    8  A    between atoms: C_15  and  N_16
REMARK    9  A    between atoms: C_23  and  C_24
REMARK                            x       y       z     vdW  Elec       q    Type
REMARK                         _______ _______ _______ _____ _____    ______ ____
ROOT
ATOM      1  C   UNL     1       1.580   2.928  20.606  0.00  0.00    +0.000 C 
ATOM      2  C   UNL     1       2.066   4.272  20.157  0.00  0.00    +0.000 A 
ATOM      3  N   UNL     1       1.535   5.368  20.734  0.00  0.00    +0.000 NA
ATOM      4  C   UNL     1       2.032   6.559  20.368  0.00  0.00    +0.000 A 
ATOM      5  N   UNL     1       1.496   7.663  21.012  0.00  0.00    +0.000 N 
ATOM      6  C   UNL     1       3.064   6.652  19.462  0.00  0.00    +0.000 A 
ATOM      7  C   UNL     1       3.539   5.486  18.892  0.00  0.00    +0.000 A 
ATOM      8  N   UNL     1       3.035   4.285  19.226  0.00  0.00    +0.000 NA
ATOM      9  H   UNL     1       0.694   7.377  21.568  0.00  0.00    +0.000 HD
ENDROOT
BRANCH   7  10
ATOM     10  C   UNL     1       4.620   5.485  17.883  0.00  0.00    +0.000 A 
ATOM     11  C   UNL     1       5.842   6.125  18.144  0.00  0.00    +0.000 A 
ATOM     12  C   UNL     1       6.894   6.124  17.214  0.00  0.00    +0.000 A 
ATOM     13  C   UNL     1       6.732   5.473  15.978  0.00  0.00    +0.000 A 
ATOM     14  N   UNL     1       7.676   5.393  14.967  0.00  0.00    +0.000 NA
ATOM     15  C   UNL     1       7.179   4.716  13.957  0.00  0.00    +0.000 A 
ATOM     16  S   UNL     1       5.582   4.131  14.143  0.00  0.00    +0.000 S 
ATOM     17  C   UNL     1       5.517   4.841  15.712  0.00  0.00    +0.000 A 
ATOM     18  C   UNL     1       4.461   4.838  16.640  0.00  0.00    +0.000 A 
ENDBRANCH   7  10
BRANCH   5  19
ATOM     19  C   UNL     1       1.353   8.949  20.334  0.00  0.00    +0.000 C 
ATOM     20  C   UNL     1       0.715   8.763  18.956  0.00  0.00    +0.000 C 
BRANCH  19  21
ATOM     21  C   UNL     1       0.647   9.935  21.259  0.00  0.00    +0.000 A 
ATOM     22  C   UNL     1      -0.324   9.562  22.199  0.00  0.00    +0.000 A 
ATOM     23  C   UNL     1      -1.026  10.530  22.923  0.00  0.00    +0.000 A 
ATOM     24  C   UNL     1      -0.785  11.886  22.702  0.00  0.00    +0.000 A 
ATOM     25  C   UNL     1       0.164  12.283  21.764  0.00  0.00    +0.000 A 
ATOM     26  C   UNL     1       0.903  11.311  21.083  0.00  0.00    +0.000 A 
BRANCH  25  27
ATOM     27  O   UNL     1       0.280  13.635  21.568  0.00  0.00    +0.000 OA
BRANCH  27  28
ATOM     28  C   UNL     1       0.149  14.056  20.203  0.00  0.00    +0.000 C 
BRANCH  28  29
ATOM     29  C   UNL     1      -1.325  14.110  19.831  0.00  0.00    +0.000 C 
BRANCH  29  30
ATOM     30  N   UNL     1      -1.745  12.903  19.146  0.00  0.00    +0.000 N 
ATOM     31  C   UNL     1      -2.830  12.128  19.431  0.00  0.00    +0.000 A 
ATOM     32  C   UNL     1      -2.828  11.114  18.499  0.00  0.00    +0.000 A 
ATOM     33  C   UNL     1      -1.705  11.368  17.697  0.00  0.00    +0.000 A 
ATOM     34  N   UNL     1      -1.036  12.455  18.091  0.00  0.00    +0.000 NA
ENDBRANCH  29  30
ENDBRANCH  28  29
ENDBRANCH  27  28
ENDBRANCH  25  27
ENDBRANCH  19  21
ENDBRANCH   5  19
TORSDOF 7
ENDMDL
MODEL 6
REMARK VINA RESULT:      -8.1      4.043      7.626
REMARK  Name = 
REMARK  9 active torsions:
REMARK  status: ('A' for Active; 'I' for Inactive)
REMARK    1  A    between atoms: C_1  and  C_2
REMARK    2  A    between atoms: N_5  and  C_6
REMARK    3  A    between atoms: C_6  and  C_7
REMARK    4  A    between atoms: C_6  and  C_8
REMARK    5  A    between atoms: C_12  and  O_13
REMARK    6  A    between atoms: O_13  and  C_14
REMARK    7  A    between atoms: C_14  and  C_15
REMARK    8  A    between atoms: C_15  and  N_16
REMARK    9  A    between atoms: C_23  and  C_24
REMARK                            x       y       z     vdW  Elec       q    Type
REMARK                         _______ _______ _______ _____ _____    ______ ____
ROOT
ATOM      1  C   UNL     1      -2.730  10.349  16.994  0.00  0.00    +0.000 C 
ATOM      2  C   UNL     1      -1.450  10.369  17.771  0.00  0.00    +0.000 A 
ATOM      3  N   UNL     1      -0.505   9.457  17.467  0.00  0.00    +0.000 NA
ATOM      4  C   UNL     1       0.661   9.535  18.126  0.00  0.00    +0.000 A 
ATOM      5  N   UNL     1       1.628   8.612  17.760  0.00  0.00    +0.000 N 
ATOM      6  C   UNL     1       0.890  10.527  19.054  0.00  0.00    +0.000 A 
ATOM      7  C   UNL     1      -0.137  11.409  19.333  0.00  0.00    +0.000 A 
ATOM      8  N   UNL     1      -1.322  11.330  18.701  0.00  0.00    +0.000 NA
ATOM      9  H   UNL     1       1.221   7.925  17.130  0.00  0.00    +0.000 HD
ENDROOT
BRANCH   7  10
ATOM     10  C   UNL     1      -0.001  12.485  20.338  0.00  0.00    +0.000 A 
ATOM     11  C   UNL     1       1.086  13.373  20.293  0.00  0.00    +0.000 A 
ATOM     12  C   UNL     1       1.231  14.416  21.220  0.00  0.00    +0.000 A 
ATOM     13  C   UNL     1       0.272  14.587  22.235  0.00  0.00    +0.000 A 
ATOM     14  N   UNL     1       0.287  15.564  23.217  0.00  0.00    +0.000 NA
ATOM     15  C   UNL     1      -0.760  15.417  23.996  0.00  0.00    +0.000 A 
ATOM     16  S   UNL     1      -1.821  14.129  23.614  0.00  0.00    +0.000 S 
ATOM     17  C   UNL     1      -0.807  13.703  22.287  0.00  0.00    +0.000 A 
ATOM     18  C   UNL     1      -0.958  12.657  21.359  0.00  0.00    +0.000 A 
ENDBRANCH   7  10
BRANCH   5  19
ATOM     19  C   UNL     1       2.582   8.078  18.729  0.00  0.00    +0.000 C 
ATOM     20  C   UNL     1       1.848   7.476  19.929  0.00  0.00    +0.000 C 
BRANCH  19  21
ATOM     21  C   UNL     1       3.559   7.146  18.019  0.00  0.00    +0.000 A 
ATOM     22  C   UNL     1       4.182   7.453  16.801  0.00  0.00    +0.000 A 
ATOM     23  C   UNL     1       4.964   6.502  16.140  0.00  0.00    +0.000 A 
ATOM     24  C   UNL     1       5.116   5.222  16.674  0.00  0.00    +0.000 A 
ATOM     25  C   UNL     1       4.497   4.889  17.876  0.00  0.00    +0.000 A 
ATOM     26  C   UNL     1       3.762   5.860  18.561  0.00  0.00    +0.000 A 
BRANCH  25  27
ATOM     27  O   UNL     1       4.648   3.588  18.283  0.00  0.00    +0.000 OA
BRANCH  27  28
ATOM     28  C   UNL     1       3.827   2.642  17.585  0.00  0.00    +0.000 C 
BRANCH  28  29
ATOM     29  C   UNL     1       3.140   1.732  18.592  0.00  0.00    +0.000 C 
BRANCH  29  30
ATOM     30  N   UNL     1       2.468   2.495  19.626  0.00  0.00    +0.000 N 
ATOM     31  C   UNL     1       1.271   3.142  19.527  0.00  0.00    +0.000 A 
ATOM     32  C   UNL     1       1.037   3.700  20.764  0.00  0.00    +0.000 A 
ATOM     33  C   UNL     1       2.148   3.332  21.538  0.00  0.00    +0.000 A 
ATOM     34  N   UNL     1       3.028   2.602  20.847  0.00  0.00    +0.000 NA
ENDBRANCH  29  30
ENDBRANCH  28  29
ENDBRANCH  27  28
ENDBRANCH  25  27
ENDBRANCH  19  21
ENDBRANCH   5  19
TORSDOF 7
ENDMDL
MODEL 7
REMARK VINA RESULT:      -8.1      1.196      1.538
REMARK  Name = 
REMARK  9 active torsions:
REMARK  status: ('A' for Active; 'I' for Inactive)
REMARK    1  A    between atoms: C_1  and  C_2
REMARK    2  A    between atoms: N_5  and  C_6
REMARK    3  A    between atoms: C_6  and  C_7
REMARK    4  A    between atoms: C_6  and  C_8
REMARK    5  A    between atoms: C_12  and  O_13
REMARK    6  A    between atoms: O_13  and  C_14
REMARK    7  A    between atoms: C_14  and  C_15
REMARK    8  A    between atoms: C_15  and  N_16
REMARK    9  A    between atoms: C_23  and  C_24
REMARK                            x       y       z     vdW  Elec       q    Type
REMARK                         _______ _______ _______ _____ _____    ______ ____
ROOT
ATOM      1  C   UNL     1       3.090   1.926  19.787  0.00  0.00    +0.000 C 
ATOM      2  C   UNL     1       3.420   3.147  18.986  0.00  0.00    +0.000 A 
ATOM      3  N   UNL     1       4.196   3.002  17.893  0.00  0.00    +0.000 NA
ATOM      4  C   UNL     1       4.424   4.095  17.150  0.00  0.00    +0.000 A 
ATOM      5  N   UNL     1       5.188   3.905  16.009  0.00  0.00    +0.000 N 
ATOM      6  C   UNL     1       3.860   5.308  17.476  0.00  0.00    +0.000 A 
ATOM      7  C   UNL     1       3.098   5.386  18.626  0.00  0.00    +0.000 A 
ATOM      8  N   UNL     1       2.881   4.305  19.399  0.00  0.00    +0.000 NA
ATOM      9  H   UNL     1       5.572   2.963  16.011  0.00  0.00    +0.000 HD
ENDROOT
BRANCH   7  10
ATOM     10  C   UNL     1       2.480   6.650  19.080  0.00  0.00    +0.000 A 
ATOM     11  C   UNL     1       1.908   6.749  20.358  0.00  0.00    +0.000 A 
ATOM     12  C   UNL     1       1.332   7.941  20.823  0.00  0.00    +0.000 A 
ATOM     13  C   UNL     1       1.314   9.078  19.995  0.00  0.00    +0.000 A 
ATOM     14  N   UNL     1       0.780  10.315  20.317  0.00  0.00    +0.000 NA
ATOM     15  C   UNL     1       0.934  11.135  19.303  0.00  0.00    +0.000 A 
ATOM     16  S   UNL     1       1.720  10.501  17.921  0.00  0.00    +0.000 S 
ATOM     17  C   UNL     1       1.876   8.982  18.722  0.00  0.00    +0.000 A 
ATOM     18  C   UNL     1       2.455   7.791  18.250  0.00  0.00    +0.000 A 
ENDBRANCH   7  10
BRANCH   5  19
ATOM     19  C   UNL     1       6.089   4.942  15.510  0.00  0.00    +0.000 C 
ATOM     20  C   UNL     1       5.319   5.966  14.675  0.00  0.00    +0.000 C 
BRANCH  19  21
ATOM     21  C   UNL     1       6.898   5.512  16.671  0.00  0.00    +0.000 A 
ATOM     22  C   UNL     1       7.432   4.732  17.706  0.00  0.00    +0.000 A 
ATOM     23  C   UNL     1       8.051   5.331  18.806  0.00  0.00    +0.000 A 
ATOM     24  C   UNL     1       8.125   6.721  18.900  0.00  0.00    +0.000 A 
ATOM     25  C   UNL     1       7.590   7.519  17.892  0.00  0.00    +0.000 A 
ATOM     26  C   UNL     1       7.022   6.914  16.767  0.00  0.00    +0.000 A 
BRANCH  25  27
ATOM     27  O   UNL     1       7.650   8.872  18.108  0.00  0.00    +0.000 OA
BRANCH  27  28
ATOM     28  C   UNL     1       8.975   9.420  18.114  0.00  0.00    +0.000 C 
BRANCH  28  29
ATOM     29  C   UNL     1       9.088  10.451  19.227  0.00  0.00    +0.000 C 
BRANCH  29  30
ATOM     30  N   UNL     1       9.663  11.692  18.744  0.00  0.00    +0.000 N 
ATOM     31  C   UNL     1       9.481  12.941  19.260  0.00  0.00    +0.000 A 
ATOM     32  C   UNL     1      10.243  13.788  18.486  0.00  0.00    +0.000 A 
ATOM     33  C   UNL     1      10.847  12.953  17.533  0.00  0.00    +0.000 A 
ATOM     34  N   UNL     1      10.492  11.674  17.681  0.00  0.00    +0.000 NA
ENDBRANCH  29  30
ENDBRANCH  28  29
ENDBRANCH  27  28
ENDBRANCH  25  27
ENDBRANCH  19  21
ENDBRANCH   5  19
TORSDOF 7
ENDMDL
MODEL 8
REMARK VINA RESULT:      -8.0      4.361      7.870
REMARK  Name = 
REMARK  9 active torsions:
REMARK  status: ('A' for Active; 'I' for Inactive)
REMARK    1  A    between atoms: C_1  and  C_2
REMARK    2  A    between atoms: N_5  and  C_6
REMARK    3  A    between atoms: C_6  and  C_7
REMARK    4  A    between atoms: C_6  and  C_8
REMARK    5  A    between atoms: C_12  and  O_13
REMARK    6  A    between atoms: O_13  and  C_14
REMARK    7  A    between atoms: C_14  and  C_15
REMARK    8  A    between atoms: C_15  and  N_16
REMARK    9  A    between atoms: C_23  and  C_24
REMARK                            x       y       z     vdW  Elec       q    Type
REMARK                         _______ _______ _______ _____ _____    ______ ____
ROOT
ATOM      1  C   UNL     1       1.242   2.594  19.315  0.00  0.00    +0.000 C 
ATOM      2  C   UNL     1       1.905   3.929  19.169  0.00  0.00    +0.000 A 
ATOM      3  N   UNL     1       1.480   4.941  19.952  0.00  0.00    +0.000 NA
ATOM      4  C   UNL     1       2.131   6.109  19.856  0.00  0.00    +0.000 A 
ATOM      5  N   UNL     1       1.700   7.116  20.706  0.00  0.00    +0.000 N 
ATOM      6  C   UNL     1       3.210   6.256  19.013  0.00  0.00    +0.000 A 
ATOM      7  C   UNL     1       3.570   5.183  18.221  0.00  0.00    +0.000 A 
ATOM      8  N   UNL     1       2.911   4.011  18.284  0.00  0.00    +0.000 NA
ATOM      9  H   UNL     1       0.844   6.824  21.171  0.00  0.00    +0.000 HD
ENDROOT
BRANCH   7  10
ATOM     10  C   UNL     1       4.690   5.254  17.258  0.00  0.00    +0.000 A 
ATOM     11  C   UNL     1       5.840   6.003  17.553  0.00  0.00    +0.000 A 
ATOM     12  C   UNL     1       6.928   6.073  16.669  0.00  0.00    +0.000 A 
ATOM     13  C   UNL     1       6.877   5.383  15.444  0.00  0.00    +0.000 A 
ATOM     14  N   UNL     1       7.868   5.362  14.476  0.00  0.00    +0.000 NA
ATOM     15  C   UNL     1       7.476   4.622  13.465  0.00  0.00    +0.000 A 
ATOM     16  S   UNL     1       5.928   3.905  13.598  0.00  0.00    +0.000 S 
ATOM     17  C   UNL     1       5.734   4.641  15.145  0.00  0.00    +0.000 A 
ATOM     18  C   UNL     1       4.642   4.567  16.028  0.00  0.00    +0.000 A 
ENDBRANCH   7  10
BRANCH   5  19
ATOM     19  C   UNL     1       1.743   8.522  20.310  0.00  0.00    +0.000 C 
ATOM     20  C   UNL     1       1.388   8.675  18.830  0.00  0.00    +0.000 C 
BRANCH  19  21
ATOM     21  C   UNL     1       0.901   9.348  21.278  0.00  0.00    +0.000 A 
ATOM     22  C   UNL     1       0.475   8.884  22.530  0.00  0.00    +0.000 A 
ATOM     23  C   UNL     1      -0.402   9.641  23.311  0.00  0.00    +0.000 A 
ATOM     24  C   UNL     1      -0.885  10.863  22.843  0.00  0.00    +0.000 A 
ATOM     25  C   UNL     1      -0.487  11.340  21.597  0.00  0.00    +0.000 A 
ATOM     26  C   UNL     1       0.434  10.606  20.844  0.00  0.00    +0.000 A 
BRANCH  25  27
ATOM     27  O   UNL     1      -1.068  12.515  21.195  0.00  0.00    +0.000 OA
BRANCH  27  28
ATOM     28  C   UNL     1      -0.874  13.617  22.092  0.00  0.00    +0.000 C 
BRANCH  28  29
ATOM     29  C   UNL     1       0.452  14.294  21.778  0.00  0.00    +0.000 C 
BRANCH  29  30
ATOM     30  N   UNL     1       0.376  15.070  20.555  0.00  0.00    +0.000 N 
ATOM     31  C   UNL     1       1.323  15.165  19.579  0.00  0.00    +0.000 A 
ATOM     32  C   UNL     1       0.793  15.992  18.613  0.00  0.00    +0.000 A 
ATOM     33  C   UNL     1      -0.477  16.340  19.100  0.00  0.00    +0.000 A 
ATOM     34  N   UNL     1      -0.734  15.786  20.288  0.00  0.00    +0.000 NA
ENDBRANCH  29  30
ENDBRANCH  28  29
ENDBRANCH  27  28
ENDBRANCH  25  27
ENDBRANCH  19  21
ENDBRANCH   5  19
TORSDOF 7
ENDMDL
MODEL 9
REMARK VINA RESULT:      -7.8      3.133      7.198
REMARK  Name = 
REMARK  9 active torsions:
REMARK  status: ('A' for Active; 'I' for Inactive)
REMARK    1  A    between atoms: C_1  and  C_2
REMARK    2  A    between atoms: N_5  and  C_6
REMARK    3  A    between atoms: C_6  and  C_7
REMARK    4  A    between atoms: C_6  and  C_8
REMARK    5  A    between atoms: C_12  and  O_13
REMARK    6  A    between atoms: O_13  and  C_14
REMARK    7  A    between atoms: C_14  and  C_15
REMARK    8  A    between atoms: C_15  and  N_16
REMARK    9  A    between atoms: C_23  and  C_24
REMARK                            x       y       z     vdW  Elec       q    Type
REMARK                         _______ _______ _______ _____ _____    ______ ____
ROOT
ATOM      1  C   UNL     1      -0.626   9.022  23.123  0.00  0.00    +0.000 C 
ATOM      2  C   UNL     1       0.028   9.447  21.845  0.00  0.00    +0.000 A 
ATOM      3  N   UNL     1      -0.052  10.745  21.488  0.00  0.00    +0.000 NA
ATOM      4  C   UNL     1       0.598  11.119  20.377  0.00  0.00    +0.000 A 
ATOM      5  N   UNL     1       0.534  12.467  20.061  0.00  0.00    +0.000 N 
ATOM      6  C   UNL     1       1.342  10.217  19.649  0.00  0.00    +0.000 A 
ATOM      7  C   UNL     1       1.355   8.898  20.061  0.00  0.00    +0.000 A 
ATOM      8  N   UNL     1       0.687   8.499  21.158  0.00  0.00    +0.000 NA
ATOM      9  H   UNL     1      -0.135  12.928  20.673  0.00  0.00    +0.000 HD
ENDROOT
BRANCH   7  10
ATOM     10  C   UNL     1       2.095   7.849  19.326  0.00  0.00    +0.000 A 
ATOM     11  C   UNL     1       2.656   8.118  18.068  0.00  0.00    +0.000 A 
ATOM     12  C   UNL     1       3.380   7.149  17.355  0.00  0.00    +0.000 A 
ATOM     13  C   UNL     1       3.551   5.864  17.902  0.00  0.00    +0.000 A 
ATOM     14  N   UNL     1       4.235   4.812  17.316  0.00  0.00    +0.000 NA
ATOM     15  C   UNL     1       4.186   3.764  18.106  0.00  0.00    +0.000 A 
ATOM     16  S   UNL     1       3.343   3.960  19.582  0.00  0.00    +0.000 S 
ATOM     17  C   UNL     1       2.991   5.592  19.150  0.00  0.00    +0.000 A 
ATOM     18  C   UNL     1       2.265   6.559  19.868  0.00  0.00    +0.000 A 
ENDBRANCH   7  10
BRANCH   5  19
ATOM     19  C   UNL     1       0.526  12.928  18.675  0.00  0.00    +0.000 C 
ATOM     20  C   UNL     1      -0.902  12.958  18.126  0.00  0.00    +0.000 C 
BRANCH  19  21
ATOM     21  C   UNL     1       1.299  14.240  18.572  0.00  0.00    +0.000 A 
ATOM     22  C   UNL     1       0.711  15.504  18.726  0.00  0.00    +0.000 A 
ATOM     23  C   UNL     1       1.449  16.667  18.489  0.00  0.00    +0.000 A 
ATOM     24  C   UNL     1       2.778  16.585  18.074  0.00  0.00    +0.000 A 
ATOM     25  C   UNL     1       3.380  15.341  17.901  0.00  0.00    +0.000 A 
ATOM     26  C   UNL     1       2.655  14.182  18.192  0.00  0.00    +0.000 A 
BRANCH  25  27
ATOM     27  O   UNL     1       4.665  15.363  17.423  0.00  0.00    +0.000 OA
BRANCH  27  28
ATOM     28  C   UNL     1       5.593  14.557  18.163  0.00  0.00    +0.000 C 
BRANCH  28  29
ATOM     29  C   UNL     1       7.009  14.867  17.702  0.00  0.00    +0.000 C 
BRANCH  29  30
ATOM     30  N   UNL     1       7.927  13.801  18.051  0.00  0.00    +0.000 N 
ATOM     31  C   UNL     1       8.141  12.640  17.368  0.00  0.00    +0.000 A 
ATOM     32  C   UNL     1       9.113  11.960  18.068  0.00  0.00    +0.000 A 
ATOM     33  C   UNL     1       9.420  12.795  19.154  0.00  0.00    +0.000 A 
ATOM     34  N   UNL     1       8.695  13.916  19.153  0.00  0.00    +0.000 NA
ENDBRANCH  29  30
ENDBRANCH  28  29
ENDBRANCH  27  28
ENDBRANCH  25  27
ENDBRANCH  19  21
ENDBRANCH   5  19
TORSDOF 7
ENDMDL
