MODEL 1
REMARK VINA RESULT:      -7.7      0.000      0.000
REMARK  Name = 
REMARK  6 active torsions:
REMARK  status: ('A' for Active; 'I' for Inactive)
REMARK    1  A    between atoms: O_1  and  C_2
REMARK    2  A    between atoms: C_2  and  C_3
REMARK    3  A    between atoms: C_3  and  C_4
REMARK    4  A    between atoms: C_4  and  N_5
REMARK    5  A    between atoms: C_8  and  C_9
REMARK    6  A    between atoms: N_14  and  C_15
REMARK                            x       y       z     vdW  Elec       q    Type
REMARK                         _______ _______ _______ _____ _____    ______ ____
ROOT
ATOM      1  C   UNL     1       2.650   5.697  19.571  0.00  0.00    +0.000 A 
ATOM      2  N   UNL     1       1.942   4.943  20.408  0.00  0.00    +0.000 NA
ATOM      3  C   UNL     1       2.434   3.719  20.573  0.00  0.00    +0.000 A 
ATOM      4  N   UNL     1       3.547   3.228  20.028  0.00  0.00    +0.000 NA
ATOM      5  C   UNL     1       4.168   4.057  19.195  0.00  0.00    +0.000 A 
ATOM      6  N   UNL     1       5.340   3.608  18.586  0.00  0.00    +0.000 N 
ATOM      7  N   UNL     1       3.749   5.292  18.941  0.00  0.00    +0.000 NA
ATOM      8  H   UNL     1       5.672   2.738  18.971  0.00  0.00    +0.000 HD
ENDROOT
BRANCH   1  12
ATOM      9  N   UNL     1       0.845   9.926  21.289  0.00  0.00    +0.000 N 
ATOM     10  C   UNL     1       1.290   9.166  20.187  0.00  0.00    +0.000 A 
ATOM     11  C   UNL     1       1.783   7.887  20.419  0.00  0.00    +0.000 A 
ATOM     12  C   UNL     1       2.252   7.094  19.354  0.00  0.00    +0.000 A 
ATOM     13  C   UNL     1       2.266   7.672  18.085  0.00  0.00    +0.000 A 
ATOM     14  C   UNL     1       1.793   8.963  17.939  0.00  0.00    +0.000 A 
ATOM     15  N   UNL     1       1.303   9.705  18.952  0.00  0.00    +0.000 NA
ATOM     16  H   UNL     1       0.409   9.312  21.970  0.00  0.00    +0.000 HD
BRANCH   9  17
ATOM     17  C   UNL     1      -0.045  11.021  20.909  0.00  0.00    +0.000 C 
BRANCH  17  18
ATOM     18  C   UNL     1      -0.642  11.662  22.158  0.00  0.00    +0.000 C 
BRANCH  18  19
ATOM     19  C   UNL     1      -1.158  10.599  23.118  0.00  0.00    +0.000 C 
BRANCH  19  20
ATOM     20  O   UNL     1      -0.069  10.076  23.865  0.00  0.00    +0.000 OA
ATOM     21  H   UNL     1       0.623  10.761  23.882  0.00  0.00    +0.000 HD
ENDBRANCH  19  20
ENDBRANCH  18  19
ENDBRANCH  17  18
ENDBRANCH   9  17
ENDBRANCH   1  12
BRANCH   6  22
ATOM     22  C   UNL     1       5.953   4.094  17.422  0.00  0.00    +0.000 A 
ATOM     23  C   UNL     1       6.904   5.118  17.504  0.00  0.00    +0.000 A 
ATOM     24  C   UNL     1       7.441   5.693  16.346  0.00  0.00    +0.000 A 
ATOM     25  C   UNL     1       7.034   5.248  15.088  0.00  0.00    +0.000 A 
ATOM     26  C   UNL     1       6.096   4.227  14.995  0.00  0.00    +0.000 A 
ATOM     27 CL   UNL     1       5.572   3.671  13.453  0.00  0.00    +0.000 Cl
ATOM     28  C   UNL     1       5.561   3.657  16.148  0.00  0.00    +0.000 A 
ENDBRANCH   6  22
TORSDOF 6
ENDMDL
MODEL 2
REMARK VINA RESULT:      -7.6      1.078      1.228
REMARK  Name = 
REMARK  6 active torsions:
REMARK  status: ('A' for Active; 'I' for Inactive)
REMARK    1  A    between atoms: O_1  and  C_2
REMARK    2  A    between atoms: C_2  and  C_3
REMARK    3  A    between atoms: C_3  and  C_4
REMARK    4  A    between atoms: C_4  and  N_5
REMARK    5  A    between atoms: C_8  and  C_9
REMARK    6  A    between atoms: N_14  and  C_15
REMARK                            x       y       z     vdW  Elec       q    Type
REMARK                         _______ _______ _______ _____ _____    ______ ____
ROOT
ATOM      1  C   UNL     1       2.478   5.842  19.884  0.00  0.00    +0.000 A 
ATOM      2  N   UNL     1       1.755   5.083  20.703  0.00  0.00    +0.000 NA
ATOM      3  C   UNL     1       2.243   3.858  20.869  0.00  0.00    +0.000 A 
ATOM      4  N   UNL     1       3.364   3.370  20.339  0.00  0.00    +0.000 NA
ATOM      5  C   UNL     1       4.000   4.202  19.522  0.00  0.00    +0.000 A 
ATOM      6  N   UNL     1       5.181   3.756  18.929  0.00  0.00    +0.000 N 
ATOM      7  N   UNL     1       3.586   5.440  19.269  0.00  0.00    +0.000 NA
ATOM      8  H   UNL     1       5.506   2.883  19.314  0.00  0.00    +0.000 HD
ENDROOT
BRANCH   1  12
ATOM      9  N   UNL     1       0.295   9.942  21.469  0.00  0.00    +0.000 N 
ATOM     10  C   UNL     1       0.940   9.249  20.424  0.00  0.00    +0.000 A 
ATOM     11  C   UNL     1       1.421   7.969  20.675  0.00  0.00    +0.000 A 
ATOM     12  C   UNL     1       2.084   7.240  19.669  0.00  0.00    +0.000 A 
ATOM     13  C   UNL     1       2.297   7.884  18.450  0.00  0.00    +0.000 A 
ATOM     14  C   UNL     1       1.822   9.172  18.287  0.00  0.00    +0.000 A 
ATOM     15  N   UNL     1       1.147   9.851  19.237  0.00  0.00    +0.000 NA
ATOM     16  H   UNL     1      -0.234   9.286  22.036  0.00  0.00    +0.000 HD
BRANCH   9  17
ATOM     17  C   UNL     1      -0.547  11.039  20.996  0.00  0.00    +0.000 C 
BRANCH  17  18
ATOM     18  C   UNL     1      -0.388  12.249  21.913  0.00  0.00    +0.000 C 
BRANCH  18  19
ATOM     19  C   UNL     1       0.541  13.282  21.290  0.00  0.00    +0.000 C 
BRANCH  19  20
ATOM     20  O   UNL     1       1.585  12.613  20.596  0.00  0.00    +0.000 OA
ATOM     21  H   UNL     1       1.508  11.665  20.806  0.00  0.00    +0.000 HD
ENDBRANCH  19  20
ENDBRANCH  18  19
ENDBRANCH  17  18
ENDBRANCH   9  17
ENDBRANCH   1  12
BRANCH   6  22
ATOM     22  C   UNL     1       5.814   4.248  17.778  0.00  0.00    +0.000 A 
ATOM     23  C   UNL     1       6.806   5.231  17.888  0.00  0.00    +0.000 A 
ATOM     24  C   UNL     1       7.365   5.815  16.746  0.00  0.00    +0.000 A 
ATOM     25  C   UNL     1       6.941   5.422  15.476  0.00  0.00    +0.000 A 
ATOM     26  C   UNL     1       5.962   4.443  15.356  0.00  0.00    +0.000 A 
ATOM     27 CL   UNL     1       5.417   3.952  13.800  0.00  0.00    +0.000 Cl
ATOM     28  C   UNL     1       5.404   3.864  16.493  0.00  0.00    +0.000 A 
ENDBRANCH   6  22
TORSDOF 6
ENDMDL
MODEL 3
REMARK VINA RESULT:      -7.6      1.100      1.141
REMARK  Name = 
REMARK  6 active torsions:
REMARK  status: ('A' for Active; 'I' for Inactive)
REMARK    1  A    between atoms: O_1  and  C_2
REMARK    2  A    between atoms: C_2  and  C_3
REMARK    3  A    between atoms: C_3  and  C_4
REMARK    4  A    between atoms: C_4  and  N_5
REMARK    5  A    between atoms: C_8  and  C_9
REMARK    6  A    between atoms: N_14  and  C_15
REMARK                            x       y       z     vdW  Elec       q    Type
REMARK                         _______ _______ _______ _____ _____    ______ ____
ROOT
ATOM      1  C   UNL     1       2.390   5.629  20.080  0.00  0.00    +0.000 A 
ATOM      2  N   UNL     1       1.646   4.796  20.803  0.00  0.00    +0.000 NA
ATOM      3  C   UNL     1       2.130   3.559  20.861  0.00  0.00    +0.000 A 
ATOM      4  N   UNL     1       3.265   3.122  20.316  0.00  0.00    +0.000 NA
ATOM      5  C   UNL     1       3.921   4.029  19.601  0.00  0.00    +0.000 A 
ATOM      6  N   UNL     1       5.118   3.640  18.999  0.00  0.00    +0.000 N 
ATOM      7  N   UNL     1       3.514   5.286  19.459  0.00  0.00    +0.000 NA
ATOM      8  H   UNL     1       5.433   2.733  19.306  0.00  0.00    +0.000 HD
ENDROOT
BRANCH   1  12
ATOM      9  N   UNL     1       0.454   9.649  22.126  0.00  0.00    +0.000 N 
ATOM     10  C   UNL     1       0.977   9.014  20.981  0.00  0.00    +0.000 A 
ATOM     11  C   UNL     1       1.458   7.716  21.103  0.00  0.00    +0.000 A 
ATOM     12  C   UNL     1       2.002   7.043  19.992  0.00  0.00    +0.000 A 
ATOM     13  C   UNL     1       2.102   7.758  18.799  0.00  0.00    +0.000 A 
ATOM     14  C   UNL     1       1.635   9.059  18.764  0.00  0.00    +0.000 A 
ATOM     15  N   UNL     1       1.073   9.687  19.817  0.00  0.00    +0.000 NA
ATOM     16  H   UNL     1      -0.025   8.965  22.704  0.00  0.00    +0.000 HD
BRANCH   9  17
ATOM     17  C   UNL     1      -0.411  10.783  21.810  0.00  0.00    +0.000 C 
BRANCH  17  18
ATOM     18  C   UNL     1      -1.274  11.131  23.019  0.00  0.00    +0.000 C 
BRANCH  18  19
ATOM     19  C   UNL     1      -2.127  12.361  22.740  0.00  0.00    +0.000 C 
BRANCH  19  20
ATOM     20  O   UNL     1      -3.486  12.062  23.027  0.00  0.00    +0.000 OA
ATOM     21  H   UNL     1      -3.924  11.874  22.178  0.00  0.00    +0.000 HD
ENDBRANCH  19  20
ENDBRANCH  18  19
ENDBRANCH  17  18
ENDBRANCH   9  17
ENDBRANCH   1  12
BRANCH   6  22
ATOM     22  C   UNL     1       5.781   4.240  17.918  0.00  0.00    +0.000 A 
ATOM     23  C   UNL     1       6.677   5.292  18.142  0.00  0.00    +0.000 A 
ATOM     24  C   UNL     1       7.259   5.978  17.069  0.00  0.00    +0.000 A 
ATOM     25  C   UNL     1       6.953   5.618  15.756  0.00  0.00    +0.000 A 
ATOM     26  C   UNL     1       6.071   4.570  15.524  0.00  0.00    +0.000 A 
ATOM     27 CL   UNL     1       5.672   4.116  13.913  0.00  0.00    +0.000 Cl
ATOM     28  C   UNL     1       5.490   3.890  16.592  0.00  0.00    +0.000 A 
ENDBRANCH   6  22
TORSDOF 6
ENDMDL
MODEL 4
REMARK VINA RESULT:      -7.5      1.865      2.068
REMARK  Name = 
REMARK  6 active torsions:
REMARK  status: ('A' for Active; 'I' for Inactive)
REMARK    1  A    between atoms: O_1  and  C_2
REMARK    2  A    between atoms: C_2  and  C_3
REMARK    3  A    between atoms: C_3  and  C_4
REMARK    4  A    between atoms: C_4  and  N_5
REMARK    5  A    between atoms: C_8  and  C_9
REMARK    6  A    between atoms: N_14  and  C_15
REMARK                            x       y       z     vdW  Elec       q    Type
REMARK                         _______ _______ _______ _____ _____    ______ ____
ROOT
ATOM      1  C   UNL     1       2.244   6.468  19.721  0.00  0.00    +0.000 A 
ATOM      2  N   UNL     1       1.379   5.864  20.532  0.00  0.00    +0.000 NA
ATOM      3  C   UNL     1       1.730   4.623  20.859  0.00  0.00    +0.000 A 
ATOM      4  N   UNL     1       2.841   3.987  20.491  0.00  0.00    +0.000 NA
ATOM      5  C   UNL     1       3.626   4.674  19.667  0.00  0.00    +0.000 A 
ATOM      6  N   UNL     1       4.807   4.067  19.238  0.00  0.00    +0.000 N 
ATOM      7  N   UNL     1       3.358   5.910  19.260  0.00  0.00    +0.000 NA
ATOM      8  H   UNL     1       5.009   3.213  19.733  0.00  0.00    +0.000 HD
ENDROOT
BRANCH   1  12
ATOM      9  N   UNL     1       0.167  10.830  20.593  0.00  0.00    +0.000 N 
ATOM     10  C   UNL     1       0.921  10.007  19.732  0.00  0.00    +0.000 A 
ATOM     11  C   UNL     1       1.246   8.723  20.156  0.00  0.00    +0.000 A 
ATOM     12  C   UNL     1       2.008   7.867  19.338  0.00  0.00    +0.000 A 
ATOM     13  C   UNL     1       2.477   8.386  18.132  0.00  0.00    +0.000 A 
ATOM     14  C   UNL     1       2.143   9.684  17.794  0.00  0.00    +0.000 A 
ATOM     15  N   UNL     1       1.375  10.488  18.558  0.00  0.00    +0.000 NA
ATOM     16  H   UNL     1      -0.501  10.263  21.106  0.00  0.00    +0.000 HD
BRANCH   9  17
ATOM     17  C   UNL     1      -0.489  11.937  19.901  0.00  0.00    +0.000 C 
BRANCH  17  18
ATOM     18  C   UNL     1      -1.878  11.507  19.435  0.00  0.00    +0.000 C 
BRANCH  18  19
ATOM     19  C   UNL     1      -2.005  11.634  17.924  0.00  0.00    +0.000 C 
BRANCH  19  20
ATOM     20  O   UNL     1      -1.194  12.711  17.476  0.00  0.00    +0.000 OA
ATOM     21  H   UNL     1      -0.297  12.358  17.338  0.00  0.00    +0.000 HD
ENDBRANCH  19  20
ENDBRANCH  18  19
ENDBRANCH  17  18
ENDBRANCH   9  17
ENDBRANCH   1  12
BRANCH   6  22
ATOM     22  C   UNL     1       5.585   4.382  18.115  0.00  0.00    +0.000 A 
ATOM     23  C   UNL     1       6.743   5.156  18.258  0.00  0.00    +0.000 A 
ATOM     24  C   UNL     1       7.467   5.576  17.136  0.00  0.00    +0.000 A 
ATOM     25  C   UNL     1       7.044   5.224  15.854  0.00  0.00    +0.000 A 
ATOM     26  C   UNL     1       5.900   4.449  15.701  0.00  0.00    +0.000 A 
ATOM     27 CL   UNL     1       5.355   4.013  14.129  0.00  0.00    +0.000 Cl
ATOM     28  C   UNL     1       5.179   4.034  16.818  0.00  0.00    +0.000 A 
ENDBRANCH   6  22
TORSDOF 6
ENDMDL
MODEL 5
REMARK VINA RESULT:      -7.3      4.501      6.459
REMARK  Name = 
REMARK  6 active torsions:
REMARK  status: ('A' for Active; 'I' for Inactive)
REMARK    1  A    between atoms: O_1  and  C_2
REMARK    2  A    between atoms: C_2  and  C_3
REMARK    3  A    between atoms: C_3  and  C_4
REMARK    4  A    between atoms: C_4  and  N_5
REMARK    5  A    between atoms: C_8  and  C_9
REMARK    6  A    between atoms: N_14  and  C_15
REMARK                            x       y       z     vdW  Elec       q    Type
REMARK                         _______ _______ _______ _____ _____    ______ ____
ROOT
ATOM      1  C   UNL     1      -0.584  10.199  20.210  0.00  0.00    +0.000 A 
ATOM      2  N   UNL     1      -0.740  10.961  21.290  0.00  0.00    +0.000 NA
ATOM      3  C   UNL     1       0.090  10.657  22.284  0.00  0.00    +0.000 A 
ATOM      4  N   UNL     1       1.043   9.725  22.268  0.00  0.00    +0.000 NA
ATOM      5  C   UNL     1       1.101   9.011  21.150  0.00  0.00    +0.000 A 
ATOM      6  N   UNL     1       2.074   8.015  21.065  0.00  0.00    +0.000 N 
ATOM      7  N   UNL     1       0.305   9.216  20.106  0.00  0.00    +0.000 NA
ATOM      8  H   UNL     1       2.738   8.051  21.823  0.00  0.00    +0.000 HD
ENDROOT
BRANCH   1  12
ATOM      9  N   UNL     1      -4.472  12.327  18.101  0.00  0.00    +0.000 N 
ATOM     10  C   UNL     1      -3.358  11.470  17.984  0.00  0.00    +0.000 A 
ATOM     11  C   UNL     1      -2.525  11.311  19.086  0.00  0.00    +0.000 A 
ATOM     12  C   UNL     1      -1.393  10.476  19.016  0.00  0.00    +0.000 A 
ATOM     13  C   UNL     1      -1.110   9.886  17.785  0.00  0.00    +0.000 A 
ATOM     14  C   UNL     1      -1.964  10.121  16.724  0.00  0.00    +0.000 A 
ATOM     15  N   UNL     1      -3.074  10.883  16.805  0.00  0.00    +0.000 NA
ATOM     16  H   UNL     1      -4.853  12.262  19.040  0.00  0.00    +0.000 HD
BRANCH   9  17
ATOM     17  C   UNL     1      -5.497  12.077  17.090  0.00  0.00    +0.000 C 
BRANCH  17  18
ATOM     18  C   UNL     1      -6.884  12.224  17.709  0.00  0.00    +0.000 C 
BRANCH  18  19
ATOM     19  C   UNL     1      -7.417  13.636  17.512  0.00  0.00    +0.000 C 
BRANCH  19  20
ATOM     20  O   UNL     1      -6.438  14.416  16.841  0.00  0.00    +0.000 OA
ATOM     21  H   UNL     1      -6.746  14.540  15.925  0.00  0.00    +0.000 HD
ENDBRANCH  19  20
ENDBRANCH  18  19
ENDBRANCH  17  18
ENDBRANCH   9  17
ENDBRANCH   1  12
BRANCH   6  22
ATOM     22  C   UNL     1       2.106   6.903  20.211  0.00  0.00    +0.000 A 
ATOM     23  C   UNL     1       2.523   7.051  18.882  0.00  0.00    +0.000 A 
ATOM     24  C   UNL     1       2.451   5.978  17.985  0.00  0.00    +0.000 A 
ATOM     25  C   UNL     1       1.963   4.741  18.407  0.00  0.00    +0.000 A 
ATOM     26  C   UNL     1       1.554   4.582  19.726  0.00  0.00    +0.000 A 
ATOM     27 CL   UNL     1       0.940   3.068  20.264  0.00  0.00    +0.000 Cl
ATOM     28  C   UNL     1       1.623   5.650  20.617  0.00  0.00    +0.000 A 
ENDBRANCH   6  22
TORSDOF 6
ENDMDL
MODEL 6
REMARK VINA RESULT:      -7.3      1.769      2.042
REMARK  Name = 
REMARK  6 active torsions:
REMARK  status: ('A' for Active; 'I' for Inactive)
REMARK    1  A    between atoms: O_1  and  C_2
REMARK    2  A    between atoms: C_2  and  C_3
REMARK    3  A    between atoms: C_3  and  C_4
REMARK    4  A    between atoms: C_4  and  N_5
REMARK    5  A    between atoms: C_8  and  C_9
REMARK    6  A    between atoms: N_14  and  C_15
REMARK                            x       y       z     vdW  Elec       q    Type
REMARK                         _______ _______ _______ _____ _____    ______ ____
ROOT
ATOM      1  C   UNL     1       2.132   5.966  20.126  0.00  0.00    +0.000 A 
ATOM      2  N   UNL     1       1.354   5.123  20.799  0.00  0.00    +0.000 NA
ATOM      3  C   UNL     1       1.808   3.873  20.817  0.00  0.00    +0.000 A 
ATOM      4  N   UNL     1       2.944   3.432  20.278  0.00  0.00    +0.000 NA
ATOM      5  C   UNL     1       3.636   4.350  19.614  0.00  0.00    +0.000 A 
ATOM      6  N   UNL     1       4.836   3.957  19.020  0.00  0.00    +0.000 N 
ATOM      7  N   UNL     1       3.261   5.621  19.514  0.00  0.00    +0.000 NA
ATOM      8  H   UNL     1       5.123   3.032  19.296  0.00  0.00    +0.000 HD
ENDROOT
BRANCH   1  12
ATOM      9  N   UNL     1       0.325   9.966  22.323  0.00  0.00    +0.000 N 
ATOM     10  C   UNL     1       0.816   9.355  21.151  0.00  0.00    +0.000 A 
ATOM     11  C   UNL     1       1.267   8.042  21.226  0.00  0.00    +0.000 A 
ATOM     12  C   UNL     1       1.778   7.391  20.087  0.00  0.00    +0.000 A 
ATOM     13  C   UNL     1       1.879   8.140  18.915  0.00  0.00    +0.000 A 
ATOM     14  C   UNL     1       1.445   9.453  18.927  0.00  0.00    +0.000 A 
ATOM     15  N   UNL     1       0.913  10.061  20.007  0.00  0.00    +0.000 NA
ATOM     16  H   UNL     1      -0.163   9.277  22.886  0.00  0.00    +0.000 HD
BRANCH   9  17
ATOM     17  C   UNL     1      -0.516  11.131  22.054  0.00  0.00    +0.000 C 
BRANCH  17  18
ATOM     18  C   UNL     1      -1.555  11.287  23.161  0.00  0.00    +0.000 C 
BRANCH  18  19
ATOM     19  C   UNL     1      -2.640  12.272  22.749  0.00  0.00    +0.000 C 
BRANCH  19  20
ATOM     20  O   UNL     1      -3.776  12.090  23.582  0.00  0.00    +0.000 OA
ATOM     21  H   UNL     1      -4.517  11.828  23.006  0.00  0.00    +0.000 HD
ENDBRANCH  19  20
ENDBRANCH  18  19
ENDBRANCH  17  18
ENDBRANCH   9  17
ENDBRANCH   1  12
BRANCH   6  22
ATOM     22  C   UNL     1       5.535   4.584  17.978  0.00  0.00    +0.000 A 
ATOM     23  C   UNL     1       5.631   3.965  16.726  0.00  0.00    +0.000 A 
ATOM     24  C   UNL     1       6.420   4.519  15.712  0.00  0.00    +0.000 A 
ATOM     25  C   UNL     1       7.122   5.704  15.936  0.00  0.00    +0.000 A 
ATOM     26  C   UNL     1       7.027   6.331  17.172  0.00  0.00    +0.000 A 
ATOM     27 CL   UNL     1       7.892   7.787  17.473  0.00  0.00    +0.000 Cl
ATOM     28  C   UNL     1       6.244   5.777  18.182  0.00  0.00    +0.000 A 
ENDBRANCH   6  22
TORSDOF 6
ENDMDL
MODEL 7
REMARK VINA RESULT:      -7.2      4.219      6.211
REMARK  Name = 
REMARK  6 active torsions:
REMARK  status: ('A' for Active; 'I' for Inactive)
REMARK    1  A    between atoms: O_1  and  C_2
REMARK    2  A    between atoms: C_2  and  C_3
REMARK    3  A    between atoms: C_3  and  C_4
REMARK    4  A    between atoms: C_4  and  N_5
REMARK    5  A    between atoms: C_8  and  C_9
REMARK    6  A    between atoms: N_14  and  C_15
REMARK                            x       y       z     vdW  Elec       q    Type
REMARK                         _______ _______ _______ _____ _____    ______ ____
ROOT
ATOM      1  C   UNL     1      -0.523  10.169  20.176  0.00  0.00    +0.000 A 
ATOM      2  N   UNL     1      -0.645  10.942  21.253  0.00  0.00    +0.000 NA
ATOM      3  C   UNL     1       0.204  10.637  22.230  0.00  0.00    +0.000 A 
ATOM      4  N   UNL     1       1.146   9.695  22.200  0.00  0.00    +0.000 NA
ATOM      5  C   UNL     1       1.170   8.970  21.088  0.00  0.00    +0.000 A 
ATOM      6  N   UNL     1       2.131   7.963  20.989  0.00  0.00    +0.000 N 
ATOM      7  N   UNL     1       0.353   9.175  20.061  0.00  0.00    +0.000 NA
ATOM      8  H   UNL     1       2.812   7.999  21.731  0.00  0.00    +0.000 HD
ENDROOT
BRANCH   1  12
ATOM      9  N   UNL     1      -4.414  12.351  18.131  0.00  0.00    +0.000 N 
ATOM     10  C   UNL     1      -3.325  11.467  18.001  0.00  0.00    +0.000 A 
ATOM     11  C   UNL     1      -2.466  11.307  19.083  0.00  0.00    +0.000 A 
ATOM     12  C   UNL     1      -1.356  10.444  18.999  0.00  0.00    +0.000 A 
ATOM     13  C   UNL     1      -1.120   9.826  17.772  0.00  0.00    +0.000 A 
ATOM     14  C   UNL     1      -1.996  10.063  16.729  0.00  0.00    +0.000 A 
ATOM     15  N   UNL     1      -3.085  10.853  16.825  0.00  0.00    +0.000 NA
ATOM     16  H   UNL     1      -4.772  12.312  19.081  0.00  0.00    +0.000 HD
BRANCH   9  17
ATOM     17  C   UNL     1      -5.472  12.108  17.152  0.00  0.00    +0.000 C 
BRANCH  17  18
ATOM     18  C   UNL     1      -6.738  11.638  17.861  0.00  0.00    +0.000 C 
BRANCH  18  19
ATOM     19  C   UNL     1      -6.429  10.500  18.824  0.00  0.00    +0.000 C 
BRANCH  19  20
ATOM     20  O   UNL     1      -7.648   9.930  19.280  0.00  0.00    +0.000 OA
ATOM     21  H   UNL     1      -7.548   8.963  19.236  0.00  0.00    +0.000 HD
ENDBRANCH  19  20
ENDBRANCH  18  19
ENDBRANCH  17  18
ENDBRANCH   9  17
ENDBRANCH   1  12
BRANCH   6  22
ATOM     22  C   UNL     1       2.131   6.843  20.144  0.00  0.00    +0.000 A 
ATOM     23  C   UNL     1       2.518   6.975  18.805  0.00  0.00    +0.000 A 
ATOM     24  C   UNL     1       2.414   5.895  17.920  0.00  0.00    +0.000 A 
ATOM     25  C   UNL     1       1.922   4.667  18.364  0.00  0.00    +0.000 A 
ATOM     26  C   UNL     1       1.542   4.524  19.693  0.00  0.00    +0.000 A 
ATOM     27 CL   UNL     1       0.923   3.022  20.259  0.00  0.00    +0.000 Cl
ATOM     28  C   UNL     1       1.643   5.600  20.572  0.00  0.00    +0.000 A 
ENDBRANCH   6  22
TORSDOF 6
ENDMDL
MODEL 8
REMARK VINA RESULT:      -7.2      4.174      8.316
REMARK  Name = 
REMARK  6 active torsions:
REMARK  status: ('A' for Active; 'I' for Inactive)
REMARK    1  A    between atoms: O_1  and  C_2
REMARK    2  A    between atoms: C_2  and  C_3
REMARK    3  A    between atoms: C_3  and  C_4
REMARK    4  A    between atoms: C_4  and  N_5
REMARK    5  A    between atoms: C_8  and  C_9
REMARK    6  A    between atoms: N_14  and  C_15
REMARK                            x       y       z     vdW  Elec       q    Type
REMARK                         _______ _______ _______ _____ _____    ______ ____
ROOT
ATOM      1  C   UNL     1       4.495   3.868  19.189  0.00  0.00    +0.000 A 
ATOM      2  N   UNL     1       4.641   2.692  19.792  0.00  0.00    +0.000 NA
ATOM      3  C   UNL     1       3.731   2.455  20.733  0.00  0.00    +0.000 A 
ATOM      4  N   UNL     1       2.713   3.246  21.072  0.00  0.00    +0.000 NA
ATOM      5  C   UNL     1       2.670   4.404  20.422  0.00  0.00    +0.000 A 
ATOM      6  N   UNL     1       1.631   5.283  20.728  0.00  0.00    +0.000 N 
ATOM      7  N   UNL     1       3.542   4.749  19.481  0.00  0.00    +0.000 NA
ATOM      8  H   UNL     1       0.927   4.866  21.316  0.00  0.00    +0.000 HD
ENDROOT
BRANCH   1  12
ATOM      9  N   UNL     1       5.395   4.215  14.377  0.00  0.00    +0.000 N 
ATOM     10  C   UNL     1       5.867   4.327  15.700  0.00  0.00    +0.000 A 
ATOM     11  C   UNL     1       4.975   4.111  16.744  0.00  0.00    +0.000 A 
ATOM     12  C   UNL     1       5.394   4.223  18.084  0.00  0.00    +0.000 A 
ATOM     13  C   UNL     1       6.709   4.628  18.309  0.00  0.00    +0.000 A 
ATOM     14  C   UNL     1       7.528   4.861  17.220  0.00  0.00    +0.000 A 
ATOM     15  N   UNL     1       7.138   4.709  15.938  0.00  0.00    +0.000 NA
ATOM     16  H   UNL     1       4.699   3.478  14.326  0.00  0.00    +0.000 HD
BRANCH   9  17
ATOM     17  C   UNL     1       6.464   4.010  13.401  0.00  0.00    +0.000 C 
BRANCH  17  18
ATOM     18  C   UNL     1       5.938   3.202  12.217  0.00  0.00    +0.000 C 
BRANCH  18  19
ATOM     19  C   UNL     1       7.086   2.590  11.427  0.00  0.00    +0.000 C 
BRANCH  19  20
ATOM     20  O   UNL     1       6.823   1.210  11.215  0.00  0.00    +0.000 OA
ATOM     21  H   UNL     1       5.882   1.062  11.417  0.00  0.00    +0.000 HD
ENDBRANCH  19  20
ENDBRANCH  18  19
ENDBRANCH  17  18
ENDBRANCH   9  17
ENDBRANCH   1  12
BRANCH   6  22
ATOM     22  C   UNL     1       1.569   6.665  20.499  0.00  0.00    +0.000 A 
ATOM     23  C   UNL     1       0.985   7.508  21.453  0.00  0.00    +0.000 A 
ATOM     24  C   UNL     1       0.810   8.872  21.191  0.00  0.00    +0.000 A 
ATOM     25  C   UNL     1       1.219   9.412  19.971  0.00  0.00    +0.000 A 
ATOM     26  C   UNL     1       1.806   8.586  19.022  0.00  0.00    +0.000 A 
ATOM     27 CL   UNL     1       2.309   9.229  17.507  0.00  0.00    +0.000 Cl
ATOM     28  C   UNL     1       1.978   7.228  19.281  0.00  0.00    +0.000 A 
ENDBRANCH   6  22
TORSDOF 6
ENDMDL
MODEL 9
REMARK VINA RESULT:      -7.2      1.661      1.979
REMARK  Name = 
REMARK  6 active torsions:
REMARK  status: ('A' for Active; 'I' for Inactive)
REMARK    1  A    between atoms: O_1  and  C_2
REMARK    2  A    between atoms: C_2  and  C_3
REMARK    3  A    between atoms: C_3  and  C_4
REMARK    4  A    between atoms: C_4  and  N_5
REMARK    5  A    between atoms: C_8  and  C_9
REMARK    6  A    between atoms: N_14  and  C_15
REMARK                            x       y       z     vdW  Elec       q    Type
REMARK                         _______ _______ _______ _____ _____    ______ ____
ROOT
ATOM      1  C   UNL     1       2.175   5.974  20.073  0.00  0.00    +0.000 A 
ATOM      2  N   UNL     1       1.431   5.167  20.825  0.00  0.00    +0.000 NA
ATOM      3  C   UNL     1       1.916   3.933  20.927  0.00  0.00    +0.000 A 
ATOM      4  N   UNL     1       3.051   3.478  20.398  0.00  0.00    +0.000 NA
ATOM      5  C   UNL     1       3.707   4.358  19.651  0.00  0.00    +0.000 A 
ATOM      6  N   UNL     1       4.904   3.949  19.062  0.00  0.00    +0.000 N 
ATOM      7  N   UNL     1       3.299   5.609  19.464  0.00  0.00    +0.000 NA
ATOM      8  H   UNL     1       5.219   3.053  19.401  0.00  0.00    +0.000 HD
ENDROOT
BRANCH   1  12
ATOM      9  N   UNL     1      -0.053   9.971  21.848  0.00  0.00    +0.000 N 
ATOM     10  C   UNL     1       0.620   9.343  20.781  0.00  0.00    +0.000 A 
ATOM     11  C   UNL     1       1.096   8.049  20.965  0.00  0.00    +0.000 A 
ATOM     12  C   UNL     1       1.786   7.384  19.934  0.00  0.00    +0.000 A 
ATOM     13  C   UNL     1       2.031   8.100  18.763  0.00  0.00    +0.000 A 
ATOM     14  C   UNL     1       1.559   9.396  18.667  0.00  0.00    +0.000 A 
ATOM     15  N   UNL     1       0.859  10.017  19.638  0.00  0.00    +0.000 NA
ATOM     16  H   UNL     1      -0.596   9.282  22.360  0.00  0.00    +0.000 HD
BRANCH   9  17
ATOM     17  C   UNL     1      -0.883  11.096  21.421  0.00  0.00    +0.000 C 
BRANCH  17  18
ATOM     18  C   UNL     1      -0.793  12.225  22.444  0.00  0.00    +0.000 C 
BRANCH  18  19
ATOM     19  C   UNL     1       0.131  13.330  21.950  0.00  0.00    +0.000 C 
BRANCH  19  20
ATOM     20  O   UNL     1       1.187  12.753  21.196  0.00  0.00    +0.000 OA
ATOM     21  H   UNL     1       1.264  13.264  20.370  0.00  0.00    +0.000 HD
ENDBRANCH  19  20
ENDBRANCH  18  19
ENDBRANCH  17  18
ENDBRANCH   9  17
ENDBRANCH   1  12
BRANCH   6  22
ATOM     22  C   UNL     1       5.566   4.510  17.961  0.00  0.00    +0.000 A 
ATOM     23  C   UNL     1       5.652   3.799  16.758  0.00  0.00    +0.000 A 
ATOM     24  C   UNL     1       6.406   4.293  15.687  0.00  0.00    +0.000 A 
ATOM     25  C   UNL     1       7.084   5.507  15.805  0.00  0.00    +0.000 A 
ATOM     26  C   UNL     1       6.998   6.224  16.992  0.00  0.00    +0.000 A 
ATOM     27 CL   UNL     1       7.834   7.718  17.162  0.00  0.00    +0.000 Cl
ATOM     28  C   UNL     1       6.250   5.731  18.058  0.00  0.00    +0.000 A 
ENDBRANCH   6  22
TORSDOF 6
ENDMDL
