MODEL 1
REMARK VINA RESULT:      -7.1      0.000      0.000
REMARK  Name = 
REMARK  4 active torsions:
REMARK  status: ('A' for Active; 'I' for Inactive)
REMARK    1  A    between atoms: C_1  and  C_2
REMARK    2  A    between atoms: C_7  and  C_9
REMARK    3  A    between atoms: C_9  and  S_10
REMARK    4  A    between atoms: S_10  and  C_11
REMARK                            x       y       z     vdW  Elec       q    Type
REMARK                         _______ _______ _______ _____ _____    ______ ____
ROOT
ATOM      1  C   UNL     1       7.897   7.838  17.595  0.00  0.00    +0.000 C 
ATOM      2  C   UNL     1       7.245   6.562  17.980  0.00  0.00    +0.000 A 
ATOM      3  C   UNL     1       7.472   5.769  19.087  0.00  0.00    +0.000 A 
ATOM      4  N   UNL     1       6.650   4.670  19.212  0.00  0.00    +0.000 NA
ATOM      5  C   UNL     1       5.831   4.620  18.194  0.00  0.00    +0.000 A 
ATOM      6  N   UNL     1       4.849   3.710  17.929  0.00  0.00    +0.000 N 
ATOM      7  C   UNL     1       4.487   2.731  18.831  0.00  0.00    +0.000 C 
ATOM      8  O   UNL     1       4.860   2.652  20.000  0.00  0.00    +0.000 OA
ATOM      9  S   UNL     1       6.010   5.849  17.019  0.00  0.00    +0.000 S 
ATOM     10  H   UNL     1       4.414   3.743  17.017  0.00  0.00    +0.000 HD
ENDROOT
BRANCH   7  11
ATOM     11  C   UNL     1       3.433   1.754  18.318  0.00  0.00    +0.000 C 
BRANCH  11  12
ATOM     12  S   UNL     1       1.747   2.295  18.751  0.00  0.00    +0.000 S 
BRANCH  12  13
ATOM     13  C   UNL     1       1.899   4.060  18.984  0.00  0.00    +0.000 A 
ATOM     14  C   UNL     1       2.076   5.009  17.975  0.00  0.00    +0.000 A 
ATOM     15  C   UNL     1       2.181   6.371  18.289  0.00  0.00    +0.000 A 
ATOM     16  C   UNL     1       2.112   6.795  19.618  0.00  0.00    +0.000 A 
ATOM     17  C   UNL     1       1.938   5.858  20.631  0.00  0.00    +0.000 A 
ATOM     18  C   UNL     1       1.833   4.504  20.313  0.00  0.00    +0.000 A 
ENDBRANCH  12  13
ENDBRANCH  11  12
ENDBRANCH   7  11
TORSDOF 3
ENDMDL
MODEL 2
REMARK VINA RESULT:      -6.8      0.474      1.231
REMARK  Name = 
REMARK  4 active torsions:
REMARK  status: ('A' for Active; 'I' for Inactive)
REMARK    1  A    between atoms: C_1  and  C_2
REMARK    2  A    between atoms: C_7  and  C_9
REMARK    3  A    between atoms: C_9  and  S_10
REMARK    4  A    between atoms: S_10  and  C_11
REMARK                            x       y       z     vdW  Elec       q    Type
REMARK                         _______ _______ _______ _____ _____    ______ ____
ROOT
ATOM      1  C   UNL     1       8.006   8.056  17.645  0.00  0.00    +0.000 C 
ATOM      2  C   UNL     1       7.379   6.762  18.013  0.00  0.00    +0.000 A 
ATOM      3  C   UNL     1       7.724   5.885  19.022  0.00  0.00    +0.000 A 
ATOM      4  N   UNL     1       6.900   4.790  19.167  0.00  0.00    +0.000 NA
ATOM      5  C   UNL     1       5.962   4.826  18.258  0.00  0.00    +0.000 A 
ATOM      6  N   UNL     1       4.935   3.950  18.050  0.00  0.00    +0.000 N 
ATOM      7  C   UNL     1       4.666   2.911  18.915  0.00  0.00    +0.000 C 
ATOM      8  O   UNL     1       5.178   2.739  20.020  0.00  0.00    +0.000 OA
ATOM      9  S   UNL     1       6.022   6.138  17.163  0.00  0.00    +0.000 S 
ATOM     10  H   UNL     1       4.394   4.058  17.203  0.00  0.00    +0.000 HD
ENDROOT
BRANCH   7  11
ATOM     11  C   UNL     1       3.537   1.988  18.466  0.00  0.00    +0.000 C 
BRANCH  11  12
ATOM     12  S   UNL     1       2.139   2.927  17.766  0.00  0.00    +0.000 S 
BRANCH  12  13
ATOM     13  C   UNL     1       2.059   4.405  18.767  0.00  0.00    +0.000 A 
ATOM     14  C   UNL     1       1.755   4.460  20.128  0.00  0.00    +0.000 A 
ATOM     15  C   UNL     1       1.726   5.688  20.802  0.00  0.00    +0.000 A 
ATOM     16  C   UNL     1       1.999   6.874  20.117  0.00  0.00    +0.000 A 
ATOM     17  C   UNL     1       2.301   6.832  18.761  0.00  0.00    +0.000 A 
ATOM     18  C   UNL     1       2.331   5.607  18.094  0.00  0.00    +0.000 A 
ENDBRANCH  12  13
ENDBRANCH  11  12
ENDBRANCH   7  11
TORSDOF 3
ENDMDL
MODEL 3
REMARK VINA RESULT:      -6.6      3.475      4.505
REMARK  Name = 
REMARK  4 active torsions:
REMARK  status: ('A' for Active; 'I' for Inactive)
REMARK    1  A    between atoms: C_1  and  C_2
REMARK    2  A    between atoms: C_7  and  C_9
REMARK    3  A    between atoms: C_9  and  S_10
REMARK    4  A    between atoms: S_10  and  C_11
REMARK                            x       y       z     vdW  Elec       q    Type
REMARK                         _______ _______ _______ _____ _____    ______ ____
ROOT
ATOM      1  C   UNL     1       5.955   3.047  11.843  0.00  0.00    +0.000 C 
ATOM      2  C   UNL     1       6.425   3.818  13.021  0.00  0.00    +0.000 A 
ATOM      3  C   UNL     1       7.368   4.824  13.082  0.00  0.00    +0.000 A 
ATOM      4  N   UNL     1       7.539   5.407  14.320  0.00  0.00    +0.000 NA
ATOM      5  C   UNL     1       6.754   4.825  15.188  0.00  0.00    +0.000 A 
ATOM      6  N   UNL     1       6.595   5.096  16.516  0.00  0.00    +0.000 N 
ATOM      7  C   UNL     1       7.193   6.179  17.125  0.00  0.00    +0.000 C 
ATOM      8  O   UNL     1       7.781   7.096  16.553  0.00  0.00    +0.000 OA
ATOM      9  S   UNL     1       5.796   3.538  14.596  0.00  0.00    +0.000 S 
ATOM     10  H   UNL     1       6.053   4.443  17.065  0.00  0.00    +0.000 HD
ENDROOT
BRANCH   7  11
ATOM     11  C   UNL     1       6.971   6.264  18.632  0.00  0.00    +0.000 C 
BRANCH  11  12
ATOM     12  S   UNL     1       6.183   4.752  19.281  0.00  0.00    +0.000 S 
BRANCH  12  13
ATOM     13  C   UNL     1       4.487   4.870  18.729  0.00  0.00    +0.000 A 
ATOM     14  C   UNL     1       3.732   6.041  18.643  0.00  0.00    +0.000 A 
ATOM     15  C   UNL     1       2.406   6.001  18.191  0.00  0.00    +0.000 A 
ATOM     16  C   UNL     1       1.824   4.786  17.824  0.00  0.00    +0.000 A 
ATOM     17  C   UNL     1       2.566   3.613  17.909  0.00  0.00    +0.000 A 
ATOM     18  C   UNL     1       3.886   3.658  18.357  0.00  0.00    +0.000 A 
ENDBRANCH  12  13
ENDBRANCH  11  12
ENDBRANCH   7  11
TORSDOF 3
ENDMDL
MODEL 4
REMARK VINA RESULT:      -6.5      3.472      4.496
REMARK  Name = 
REMARK  4 active torsions:
REMARK  status: ('A' for Active; 'I' for Inactive)
REMARK    1  A    between atoms: C_1  and  C_2
REMARK    2  A    between atoms: C_7  and  C_9
REMARK    3  A    between atoms: C_9  and  S_10
REMARK    4  A    between atoms: S_10  and  C_11
REMARK                            x       y       z     vdW  Elec       q    Type
REMARK                         _______ _______ _______ _____ _____    ______ ____
ROOT
ATOM      1  C   UNL     1       5.976   3.096  11.847  0.00  0.00    +0.000 C 
ATOM      2  C   UNL     1       6.434   3.863  13.032  0.00  0.00    +0.000 A 
ATOM      3  C   UNL     1       7.412   4.834  13.115  0.00  0.00    +0.000 A 
ATOM      4  N   UNL     1       7.562   5.425  14.351  0.00  0.00    +0.000 NA
ATOM      5  C   UNL     1       6.725   4.884  15.197  0.00  0.00    +0.000 A 
ATOM      6  N   UNL     1       6.531   5.178  16.517  0.00  0.00    +0.000 N 
ATOM      7  C   UNL     1       7.149   6.245  17.133  0.00  0.00    +0.000 C 
ATOM      8  O   UNL     1       7.791   7.132  16.572  0.00  0.00    +0.000 OA
ATOM      9  S   UNL     1       5.740   3.627  14.587  0.00  0.00    +0.000 S 
ATOM     10  H   UNL     1       5.946   4.553  17.053  0.00  0.00    +0.000 HD
ENDROOT
BRANCH   7  11
ATOM     11  C   UNL     1       6.878   6.357  18.631  0.00  0.00    +0.000 C 
BRANCH  11  12
ATOM     12  S   UNL     1       6.218   4.799  19.312  0.00  0.00    +0.000 S 
BRANCH  12  13
ATOM     13  C   UNL     1       4.532   4.743  18.724  0.00  0.00    +0.000 A 
ATOM     14  C   UNL     1       3.890   3.630  18.177  0.00  0.00    +0.000 A 
ATOM     15  C   UNL     1       2.557   3.715  17.752  0.00  0.00    +0.000 A 
ATOM     16  C   UNL     1       1.856   4.917  17.868  0.00  0.00    +0.000 A 
ATOM     17  C   UNL     1       2.487   6.032  18.407  0.00  0.00    +0.000 A 
ATOM     18  C   UNL     1       3.813   5.943  18.831  0.00  0.00    +0.000 A 
ENDBRANCH  12  13
ENDBRANCH  11  12
ENDBRANCH   7  11
TORSDOF 3
ENDMDL
MODEL 5
REMARK VINA RESULT:      -6.5      3.488      4.265
REMARK  Name = 
REMARK  4 active torsions:
REMARK  status: ('A' for Active; 'I' for Inactive)
REMARK    1  A    between atoms: C_1  and  C_2
REMARK    2  A    between atoms: C_7  and  C_9
REMARK    3  A    between atoms: C_9  and  S_10
REMARK    4  A    between atoms: S_10  and  C_11
REMARK                            x       y       z     vdW  Elec       q    Type
REMARK                         _______ _______ _______ _____ _____    ______ ____
ROOT
ATOM      1  C   UNL     1       6.869   3.241  11.636  0.00  0.00    +0.000 C 
ATOM      2  C   UNL     1       6.788   3.975  12.924  0.00  0.00    +0.000 A 
ATOM      3  C   UNL     1       7.612   4.970  13.411  0.00  0.00    +0.000 A 
ATOM      4  N   UNL     1       7.236   5.517  14.619  0.00  0.00    +0.000 NA
ATOM      5  C   UNL     1       6.157   4.919  15.051  0.00  0.00    +0.000 A 
ATOM      6  N   UNL     1       5.445   5.155  16.192  0.00  0.00    +0.000 N 
ATOM      7  C   UNL     1       5.723   6.216  17.028  0.00  0.00    +0.000 C 
ATOM      8  O   UNL     1       6.497   7.142  16.789  0.00  0.00    +0.000 OA
ATOM      9  S   UNL     1       5.548   3.658  14.071  0.00  0.00    +0.000 S 
ATOM     10  H   UNL     1       4.723   4.493  16.438  0.00  0.00    +0.000 HD
ENDROOT
BRANCH   7  11
ATOM     11  C   UNL     1       4.879   6.261  18.298  0.00  0.00    +0.000 C 
BRANCH  11  12
ATOM     12  S   UNL     1       5.154   4.791  19.341  0.00  0.00    +0.000 S 
BRANCH  12  13
ATOM     13  C   UNL     1       3.516   4.129  19.608  0.00  0.00    +0.000 A 
ATOM     14  C   UNL     1       3.080   2.850  19.255  0.00  0.00    +0.000 A 
ATOM     15  C   UNL     1       1.764   2.449  19.521  0.00  0.00    +0.000 A 
ATOM     16  C   UNL     1       0.871   3.326  20.141  0.00  0.00    +0.000 A 
ATOM     17  C   UNL     1       1.295   4.602  20.495  0.00  0.00    +0.000 A 
ATOM     18  C   UNL     1       2.606   4.997  20.230  0.00  0.00    +0.000 A 
ENDBRANCH  12  13
ENDBRANCH  11  12
ENDBRANCH   7  11
TORSDOF 3
ENDMDL
MODEL 6
REMARK VINA RESULT:      -6.4      3.114      4.841
REMARK  Name = 
REMARK  4 active torsions:
REMARK  status: ('A' for Active; 'I' for Inactive)
REMARK    1  A    between atoms: C_1  and  C_2
REMARK    2  A    between atoms: C_7  and  C_9
REMARK    3  A    between atoms: C_9  and  S_10
REMARK    4  A    between atoms: S_10  and  C_11
REMARK                            x       y       z     vdW  Elec       q    Type
REMARK                         _______ _______ _______ _____ _____    ______ ____
ROOT
ATOM      1  C   UNL     1       0.358  10.321  19.963  0.00  0.00    +0.000 C 
ATOM      2  C   UNL     1       1.219   9.406  19.173  0.00  0.00    +0.000 A 
ATOM      3  C   UNL     1       1.695   9.555  17.886  0.00  0.00    +0.000 A 
ATOM      4  N   UNL     1       2.543   8.561  17.446  0.00  0.00    +0.000 NA
ATOM      5  C   UNL     1       2.680   7.659  18.381  0.00  0.00    +0.000 A 
ATOM      6  N   UNL     1       3.435   6.521  18.370  0.00  0.00    +0.000 N 
ATOM      7  C   UNL     1       4.308   6.225  17.345  0.00  0.00    +0.000 C 
ATOM      8  O   UNL     1       4.637   6.983  16.433  0.00  0.00    +0.000 OA
ATOM      9  S   UNL     1       1.790   7.918  19.817  0.00  0.00    +0.000 S 
ATOM     10  H   UNL     1       3.300   5.864  19.126  0.00  0.00    +0.000 HD
ENDROOT
BRANCH   7  11
ATOM     11  C   UNL     1       4.993   4.867  17.466  0.00  0.00    +0.000 C 
BRANCH  11  12
ATOM     12  S   UNL     1       4.972   4.255  19.184  0.00  0.00    +0.000 S 
BRANCH  12  13
ATOM     13  C   UNL     1       3.289   3.708  19.433  0.00  0.00    +0.000 A 
ATOM     14  C   UNL     1       2.503   3.957  20.560  0.00  0.00    +0.000 A 
ATOM     15  C   UNL     1       1.191   3.472  20.634  0.00  0.00    +0.000 A 
ATOM     16  C   UNL     1       0.654   2.730  19.580  0.00  0.00    +0.000 A 
ATOM     17  C   UNL     1       1.428   2.474  18.454  0.00  0.00    +0.000 A 
ATOM     18  C   UNL     1       2.733   2.961  18.384  0.00  0.00    +0.000 A 
ENDBRANCH  12  13
ENDBRANCH  11  12
ENDBRANCH   7  11
TORSDOF 3
ENDMDL
MODEL 7
REMARK VINA RESULT:      -6.4      2.080      5.562
REMARK  Name = 
REMARK  4 active torsions:
REMARK  status: ('A' for Active; 'I' for Inactive)
REMARK    1  A    between atoms: C_1  and  C_2
REMARK    2  A    between atoms: C_7  and  C_9
REMARK    3  A    between atoms: C_9  and  S_10
REMARK    4  A    between atoms: S_10  and  C_11
REMARK                            x       y       z     vdW  Elec       q    Type
REMARK                         _______ _______ _______ _____ _____    ______ ____
ROOT
ATOM      1  C   UNL     1       1.514   2.525  21.958  0.00  0.00    +0.000 C 
ATOM      2  C   UNL     1       1.978   3.209  20.725  0.00  0.00    +0.000 A 
ATOM      3  C   UNL     1       1.755   4.508  20.315  0.00  0.00    +0.000 A 
ATOM      4  N   UNL     1       2.384   4.881  19.146  0.00  0.00    +0.000 NA
ATOM      5  C   UNL     1       3.049   3.864  18.666  0.00  0.00    +0.000 A 
ATOM      6  N   UNL     1       3.819   3.798  17.540  0.00  0.00    +0.000 N 
ATOM      7  C   UNL     1       4.115   4.911  16.783  0.00  0.00    +0.000 C 
ATOM      8  O   UNL     1       3.882   6.079  17.092  0.00  0.00    +0.000 OA
ATOM      9  S   UNL     1       2.941   2.405  19.550  0.00  0.00    +0.000 S 
ATOM     10  H   UNL     1       4.136   2.885  17.243  0.00  0.00    +0.000 HD
ENDROOT
BRANCH   7  11
ATOM     11  C   UNL     1       4.912   4.623  15.514  0.00  0.00    +0.000 C 
BRANCH  11  12
ATOM     12  S   UNL     1       6.629   4.138  15.894  0.00  0.00    +0.000 S 
BRANCH  12  13
ATOM     13  C   UNL     1       7.216   5.426  16.985  0.00  0.00    +0.000 A 
ATOM     14  C   UNL     1       7.268   6.790  16.692  0.00  0.00    +0.000 A 
ATOM     15  C   UNL     1       7.751   7.703  17.639  0.00  0.00    +0.000 A 
ATOM     16  C   UNL     1       8.190   7.257  18.887  0.00  0.00    +0.000 A 
ATOM     17  C   UNL     1       8.146   5.901  19.188  0.00  0.00    +0.000 A 
ATOM     18  C   UNL     1       7.662   4.995  18.244  0.00  0.00    +0.000 A 
ENDBRANCH  12  13
ENDBRANCH  11  12
ENDBRANCH   7  11
TORSDOF 3
ENDMDL
MODEL 8
REMARK VINA RESULT:      -6.3      2.207      2.378
REMARK  Name = 
REMARK  4 active torsions:
REMARK  status: ('A' for Active; 'I' for Inactive)
REMARK    1  A    between atoms: C_1  and  C_2
REMARK    2  A    between atoms: C_7  and  C_9
REMARK    3  A    between atoms: C_9  and  S_10
REMARK    4  A    between atoms: S_10  and  C_11
REMARK                            x       y       z     vdW  Elec       q    Type
REMARK                         _______ _______ _______ _____ _____    ______ ____
ROOT
ATOM      1  C   UNL     1       7.273   5.079  13.059  0.00  0.00    +0.000 C 
ATOM      2  C   UNL     1       6.956   4.762  14.474  0.00  0.00    +0.000 A 
ATOM      3  C   UNL     1       7.693   5.028  15.611  0.00  0.00    +0.000 A 
ATOM      4  N   UNL     1       7.098   4.677  16.803  0.00  0.00    +0.000 NA
ATOM      5  C   UNL     1       5.938   4.125  16.565  0.00  0.00    +0.000 A 
ATOM      6  N   UNL     1       5.018   3.646  17.454  0.00  0.00    +0.000 N 
ATOM      7  C   UNL     1       5.152   3.812  18.816  0.00  0.00    +0.000 C 
ATOM      8  O   UNL     1       5.985   4.521  19.379  0.00  0.00    +0.000 OA
ATOM      9  S   UNL     1       5.501   3.962  14.920  0.00  0.00    +0.000 S 
ATOM     10  H   UNL     1       4.242   3.116  17.083  0.00  0.00    +0.000 HD
ENDROOT
BRANCH   7  11
ATOM     11  C   UNL     1       4.071   3.130  19.649  0.00  0.00    +0.000 C 
BRANCH  11  12
ATOM     12  S   UNL     1       2.403   3.480  19.001  0.00  0.00    +0.000 S 
BRANCH  12  13
ATOM     13  C   UNL     1       2.232   5.251  19.163  0.00  0.00    +0.000 A 
ATOM     14  C   UNL     1       2.506   6.196  18.173  0.00  0.00    +0.000 A 
ATOM     15  C   UNL     1       2.329   7.563  18.426  0.00  0.00    +0.000 A 
ATOM     16  C   UNL     1       1.880   7.996  19.675  0.00  0.00    +0.000 A 
ATOM     17  C   UNL     1       1.607   7.064  20.669  0.00  0.00    +0.000 A 
ATOM     18  C   UNL     1       1.782   5.704  20.413  0.00  0.00    +0.000 A 
ENDBRANCH  12  13
ENDBRANCH  11  12
ENDBRANCH   7  11
TORSDOF 3
ENDMDL
MODEL 9
REMARK VINA RESULT:      -6.3      3.208      3.857
REMARK  Name = 
REMARK  4 active torsions:
REMARK  status: ('A' for Active; 'I' for Inactive)
REMARK    1  A    between atoms: C_1  and  C_2
REMARK    2  A    between atoms: C_7  and  C_9
REMARK    3  A    between atoms: C_9  and  S_10
REMARK    4  A    between atoms: S_10  and  C_11
REMARK                            x       y       z     vdW  Elec       q    Type
REMARK                         _______ _______ _______ _____ _____    ______ ____
ROOT
ATOM      1  C   UNL     1       6.376   3.586  12.022  0.00  0.00    +0.000 C 
ATOM      2  C   UNL     1       6.540   4.104  13.404  0.00  0.00    +0.000 A 
ATOM      3  C   UNL     1       7.493   4.970  13.900  0.00  0.00    +0.000 A 
ATOM      4  N   UNL     1       7.341   5.330  15.222  0.00  0.00    +0.000 NA
ATOM      5  C   UNL     1       6.300   4.718  15.723  0.00  0.00    +0.000 A 
ATOM      6  N   UNL     1       5.785   4.797  16.986  0.00  0.00    +0.000 N 
ATOM      7  C   UNL     1       6.257   5.695  17.920  0.00  0.00    +0.000 C 
ATOM      8  O   UNL     1       7.048   6.612  17.706  0.00  0.00    +0.000 OA
ATOM      9  S   UNL     1       5.466   3.661  14.671  0.00  0.00    +0.000 S 
ATOM     10  H   UNL     1       5.064   4.136  17.238  0.00  0.00    +0.000 HD
ENDROOT
BRANCH   7  11
ATOM     11  C   UNL     1       5.617   5.571  19.299  0.00  0.00    +0.000 C 
BRANCH  11  12
ATOM     12  S   UNL     1       3.864   5.081  19.185  0.00  0.00    +0.000 S 
BRANCH  12  13
ATOM     13  C   UNL     1       2.991   6.625  18.971  0.00  0.00    +0.000 A 
ATOM     14  C   UNL     1       3.001   7.422  17.825  0.00  0.00    +0.000 A 
ATOM     15  C   UNL     1       2.269   8.616  17.782  0.00  0.00    +0.000 A 
ATOM     16  C   UNL     1       1.521   9.024  18.889  0.00  0.00    +0.000 A 
ATOM     17  C   UNL     1       1.506   8.240  20.036  0.00  0.00    +0.000 A 
ATOM     18  C   UNL     1       2.235   7.051  20.074  0.00  0.00    +0.000 A 
ENDBRANCH  12  13
ENDBRANCH  11  12
ENDBRANCH   7  11
TORSDOF 3
ENDMDL
