MODEL 1
REMARK VINA RESULT:      -7.2      0.000      0.000
REMARK  Name = 
REMARK  11 active torsions:
REMARK  status: ('A' for Active; 'I' for Inactive)
REMARK    1  A    between atoms: C_2  and  C_21
REMARK    2  A    between atoms: N_3  and  C_4
REMARK    3  A    between atoms: C_4  and  C_5
REMARK    4  A    between atoms: C_5  and  C_6
REMARK    5  A    between atoms: C_6  and  C_7
REMARK    6  A    between atoms: C_7  and  N_8
REMARK    7  A    between atoms: C_11  and  C_12
REMARK    8  A    between atoms: C_12  and  C_13
REMARK    9  A    between atoms: C_24  and  C_25
REMARK   10  A    between atoms: C_25  and  O_26
REMARK   11  A    between atoms: O_26  and  N_27
REMARK                            x       y       z     vdW  Elec       q    Type
REMARK                         _______ _______ _______ _____ _____    ______ ____
ROOT
ATOM      1  C   UNL     1       2.389   4.678  21.231  0.00  0.00    +0.000 C 
ENDROOT
BRANCH   1   4
ATOM      2  O   UNL     1       3.374   6.592  19.439  0.00  0.00    +0.000 OA
ATOM      3  C   UNL     1       2.320   6.806  20.024  0.00  0.00    +0.000 C 
ATOM      4  N   UNL     1       1.751   5.938  20.932  0.00  0.00    +0.000 N 
ATOM      5  H   UNL     1       0.765   6.038  21.141  0.00  0.00    +0.000 HD
BRANCH   3   6
ATOM      6  C   UNL     1       1.546   8.044  19.756  0.00  0.00    +0.000 A 
ATOM      7  C   UNL     1       1.652   8.649  18.500  0.00  0.00    +0.000 A 
ATOM      8  C   UNL     1       0.933   9.814  18.225  0.00  0.00    +0.000 A 
ATOM      9  C   UNL     1       0.120  10.396  19.210  0.00  0.00    +0.000 A 
ATOM     10  C   UNL     1       0.023   9.784  20.469  0.00  0.00    +0.000 A 
ATOM     11  C   UNL     1       0.739   8.619  20.744  0.00  0.00    +0.000 A 
BRANCH   9  12
ATOM     12  C   UNL     1      -0.674  11.642  18.911  0.00  0.00    +0.000 C 
BRANCH  12  13
ATOM     13  O   UNL     1      -1.241  12.090  20.132  0.00  0.00    +0.000 OA
BRANCH  13  14
ATOM     14  N   UNL     1      -2.610  12.399  19.999  0.00  0.00    +0.000 N 
ATOM     15  O   UNL     1      -3.155  12.968  20.946  0.00  0.00    +0.000 OA
ATOM     16  O   UNL     1      -3.078  12.041  18.921  0.00  0.00    +0.000 OA
ENDBRANCH  13  14
ENDBRANCH  12  13
ENDBRANCH   9  12
ENDBRANCH   3   6
ENDBRANCH   1   4
BRANCH   1  17
ATOM     17  C   UNL     1       1.413   3.518  21.110  0.00  0.00    +0.000 C 
BRANCH  17  18
ATOM     18  C   UNL     1       0.536   3.691  19.871  0.00  0.00    +0.000 C 
BRANCH  18  19
ATOM     19  C   UNL     1       0.615   2.499  18.908  0.00  0.00    +0.000 C 
BRANCH  19  20
ATOM     20  N   UNL     1       1.763   2.547  17.985  0.00  0.00    +0.000 NA
ATOM     21  C   UNL     1       2.133   3.930  17.646  0.00  0.00    +0.000 C 
ATOM     22  C   UNL     1       3.331   3.975  16.702  0.00  0.00    +0.000 C 
ATOM     23  C   UNL     1       4.553   3.271  17.299  0.00  0.00    +0.000 C 
ATOM     24  C   UNL     1       4.135   1.834  17.653  0.00  0.00    +0.000 C 
ATOM     25  C   UNL     1       2.892   1.791  18.550  0.00  0.00    +0.000 C 
BRANCH  23  26
ATOM     26  C   UNL     1       5.135   3.988  18.540  0.00  0.00    +0.000 C 
BRANCH  26  27
ATOM     27  C   UNL     1       6.075   5.136  18.248  0.00  0.00    +0.000 A 
ATOM     28  C   UNL     1       5.901   5.910  17.090  0.00  0.00    +0.000 A 
ATOM     29  C   UNL     1       6.732   6.999  16.832  0.00  0.00    +0.000 A 
ATOM     30  C   UNL     1       7.746   7.329  17.728  0.00  0.00    +0.000 A 
ATOM     31  C   UNL     1       7.932   6.565  18.878  0.00  0.00    +0.000 A 
ATOM     32  C   UNL     1       7.100   5.475  19.140  0.00  0.00    +0.000 A 
ENDBRANCH  26  27
ENDBRANCH  23  26
ENDBRANCH  19  20
ENDBRANCH  18  19
ENDBRANCH  17  18
ENDBRANCH   1  17
TORSDOF 11
ENDMDL
MODEL 2
REMARK VINA RESULT:      -7.2      1.995      2.673
REMARK  Name = 
REMARK  11 active torsions:
REMARK  status: ('A' for Active; 'I' for Inactive)
REMARK    1  A    between atoms: C_2  and  C_21
REMARK    2  A    between atoms: N_3  and  C_4
REMARK    3  A    between atoms: C_4  and  C_5
REMARK    4  A    between atoms: C_5  and  C_6
REMARK    5  A    between atoms: C_6  and  C_7
REMARK    6  A    between atoms: C_7  and  N_8
REMARK    7  A    between atoms: C_11  and  C_12
REMARK    8  A    between atoms: C_12  and  C_13
REMARK    9  A    between atoms: C_24  and  C_25
REMARK   10  A    between atoms: C_25  and  O_26
REMARK   11  A    between atoms: O_26  and  N_27
REMARK                            x       y       z     vdW  Elec       q    Type
REMARK                         _______ _______ _______ _____ _____    ______ ____
ROOT
ATOM      1  C   UNL     1       2.115   6.416  20.194  0.00  0.00    +0.000 C 
ENDROOT
BRANCH   1   4
ATOM      2  O   UNL     1       1.505   8.944  19.154  0.00  0.00    +0.000 OA
ATOM      3  C   UNL     1       1.147   8.660  20.291  0.00  0.00    +0.000 C 
ATOM      4  N   UNL     1       1.402   7.452  20.903  0.00  0.00    +0.000 N 
ATOM      5  H   UNL     1       0.836   7.186  21.699  0.00  0.00    +0.000 HD
BRANCH   3   6
ATOM      6  C   UNL     1       0.358   9.628  21.095  0.00  0.00    +0.000 A 
ATOM      7  C   UNL     1       0.083  10.889  20.559  0.00  0.00    +0.000 A 
ATOM      8  C   UNL     1      -0.657  11.814  21.298  0.00  0.00    +0.000 A 
ATOM      9  C   UNL     1      -1.109  11.494  22.587  0.00  0.00    +0.000 A 
ATOM     10  C   UNL     1      -0.825  10.227  23.119  0.00  0.00    +0.000 A 
ATOM     11  C   UNL     1      -0.088   9.301  22.381  0.00  0.00    +0.000 A 
BRANCH   9  12
ATOM     12  C   UNL     1      -1.926  12.482  23.380  0.00  0.00    +0.000 C 
BRANCH  12  13
ATOM     13  O   UNL     1      -3.186  11.883  23.640  0.00  0.00    +0.000 OA
BRANCH  13  14
ATOM     14  N   UNL     1      -4.257  12.686  23.198  0.00  0.00    +0.000 N 
ATOM     15  O   UNL     1      -4.572  13.646  23.903  0.00  0.00    +0.000 OA
ATOM     16  O   UNL     1      -4.740  12.297  22.137  0.00  0.00    +0.000 OA
ENDBRANCH  13  14
ENDBRANCH  12  13
ENDBRANCH   9  12
ENDBRANCH   3   6
ENDBRANCH   1   4
BRANCH   1  17
ATOM     17  C   UNL     1       2.347   5.197  21.075  0.00  0.00    +0.000 C 
BRANCH  17  18
ATOM     18  C   UNL     1       1.110   4.300  21.073  0.00  0.00    +0.000 C 
BRANCH  18  19
ATOM     19  C   UNL     1       1.446   2.815  21.253  0.00  0.00    +0.000 C 
BRANCH  19  20
ATOM     20  N   UNL     1       2.180   2.222  20.121  0.00  0.00    +0.000 NA
ATOM     21  C   UNL     1       1.436   2.355  18.859  0.00  0.00    +0.000 C 
ATOM     22  C   UNL     1       2.208   1.753  17.687  0.00  0.00    +0.000 C 
ATOM     23  C   UNL     1       3.583   2.406  17.517  0.00  0.00    +0.000 C 
ATOM     24  C   UNL     1       4.333   2.262  18.852  0.00  0.00    +0.000 C 
ATOM     25  C   UNL     1       3.528   2.809  20.036  0.00  0.00    +0.000 C 
BRANCH  23  26
ATOM     26  C   UNL     1       3.515   3.890  17.088  0.00  0.00    +0.000 C 
BRANCH  26  27
ATOM     27  C   UNL     1       4.843   4.609  17.015  0.00  0.00    +0.000 A 
ATOM     28  C   UNL     1       5.828   4.176  16.115  0.00  0.00    +0.000 A 
ATOM     29  C   UNL     1       7.040   4.856  16.004  0.00  0.00    +0.000 A 
ATOM     30  C   UNL     1       7.282   5.979  16.792  0.00  0.00    +0.000 A 
ATOM     31  C   UNL     1       6.313   6.415  17.695  0.00  0.00    +0.000 A 
ATOM     32  C   UNL     1       5.098   5.737  17.805  0.00  0.00    +0.000 A 
ENDBRANCH  26  27
ENDBRANCH  23  26
ENDBRANCH  19  20
ENDBRANCH  18  19
ENDBRANCH  17  18
ENDBRANCH   1  17
TORSDOF 11
ENDMDL
MODEL 3
REMARK VINA RESULT:      -7.1      6.179     10.120
REMARK  Name = 
REMARK  11 active torsions:
REMARK  status: ('A' for Active; 'I' for Inactive)
REMARK    1  A    between atoms: C_2  and  C_21
REMARK    2  A    between atoms: N_3  and  C_4
REMARK    3  A    between atoms: C_4  and  C_5
REMARK    4  A    between atoms: C_5  and  C_6
REMARK    5  A    between atoms: C_6  and  C_7
REMARK    6  A    between atoms: C_7  and  N_8
REMARK    7  A    between atoms: C_11  and  C_12
REMARK    8  A    between atoms: C_12  and  C_13
REMARK    9  A    between atoms: C_24  and  C_25
REMARK   10  A    between atoms: C_25  and  O_26
REMARK   11  A    between atoms: O_26  and  N_27
REMARK                            x       y       z     vdW  Elec       q    Type
REMARK                         _______ _______ _______ _____ _____    ______ ____
ROOT
ATOM      1  C   UNL     1       7.847   7.694  17.192  0.00  0.00    +0.000 C 
ENDROOT
BRANCH   1   4
ATOM      2  O   UNL     1       5.533   6.805  15.890  0.00  0.00    +0.000 OA
ATOM      3  C   UNL     1       5.881   6.262  16.931  0.00  0.00    +0.000 C 
ATOM      4  N   UNL     1       6.995   6.626  17.657  0.00  0.00    +0.000 N 
ATOM      5  H   UNL     1       7.376   5.961  18.319  0.00  0.00    +0.000 HD
BRANCH   3   6
ATOM      6  C   UNL     1       5.112   5.114  17.476  0.00  0.00    +0.000 A 
ATOM      7  C   UNL     1       4.276   4.392  16.619  0.00  0.00    +0.000 A 
ATOM      8  C   UNL     1       3.544   3.309  17.110  0.00  0.00    +0.000 A 
ATOM      9  C   UNL     1       3.624   2.954  18.465  0.00  0.00    +0.000 A 
ATOM     10  C   UNL     1       4.462   3.687  19.319  0.00  0.00    +0.000 A 
ATOM     11  C   UNL     1       5.196   4.768  18.829  0.00  0.00    +0.000 A 
BRANCH   9  12
ATOM     12  C   UNL     1       2.852   1.772  18.995  0.00  0.00    +0.000 C 
BRANCH  12  13
ATOM     13  O   UNL     1       2.063   2.231  20.082  0.00  0.00    +0.000 OA
BRANCH  13  14
ATOM     14  N   UNL     1       0.892   2.885  19.649  0.00  0.00    +0.000 N 
ATOM     15  O   UNL     1       0.246   2.349  18.747  0.00  0.00    +0.000 OA
ATOM     16  O   UNL     1       0.679   3.933  20.253  0.00  0.00    +0.000 OA
ENDBRANCH  13  14
ENDBRANCH  12  13
ENDBRANCH   9  12
ENDBRANCH   3   6
ENDBRANCH   1   4
BRANCH   1  17
ATOM     17  C   UNL     1       7.614   8.974  17.981  0.00  0.00    +0.000 C 
BRANCH  17  18
ATOM     18  C   UNL     1       8.856   9.863  17.926  0.00  0.00    +0.000 C 
BRANCH  18  19
ATOM     19  C   UNL     1       9.346  10.295  19.313  0.00  0.00    +0.000 C 
BRANCH  19  20
ATOM     20  N   UNL     1      10.420  11.304  19.285  0.00  0.00    +0.000 NA
ATOM     21  C   UNL     1      10.931  11.519  17.923  0.00  0.00    +0.000 C 
ATOM     22  C   UNL     1      12.032  12.576  17.896  0.00  0.00    +0.000 C 
ATOM     23  C   UNL     1      11.547  13.917  18.456  0.00  0.00    +0.000 C 
ATOM     24  C   UNL     1      11.009  13.661  19.874  0.00  0.00    +0.000 C 
ATOM     25  C   UNL     1       9.949  12.554  19.906  0.00  0.00    +0.000 C 
BRANCH  23  26
ATOM     26  C   UNL     1      10.470  14.599  17.581  0.00  0.00    +0.000 C 
BRANCH  26  27
ATOM     27  C   UNL     1      10.082  15.999  17.997  0.00  0.00    +0.000 A 
ATOM     28  C   UNL     1      11.074  16.961  18.237  0.00  0.00    +0.000 A 
ATOM     29  C   UNL     1      10.730  18.269  18.578  0.00  0.00    +0.000 A 
ATOM     30  C   UNL     1       9.389  18.631  18.683  0.00  0.00    +0.000 A 
ATOM     31  C   UNL     1       8.395  17.682  18.453  0.00  0.00    +0.000 A 
ATOM     32  C   UNL     1       8.737  16.373  18.109  0.00  0.00    +0.000 A 
ENDBRANCH  26  27
ENDBRANCH  23  26
ENDBRANCH  19  20
ENDBRANCH  18  19
ENDBRANCH  17  18
ENDBRANCH   1  17
TORSDOF 11
ENDMDL
MODEL 4
REMARK VINA RESULT:      -7.1      5.297      8.409
REMARK  Name = 
REMARK  11 active torsions:
REMARK  status: ('A' for Active; 'I' for Inactive)
REMARK    1  A    between atoms: C_2  and  C_21
REMARK    2  A    between atoms: N_3  and  C_4
REMARK    3  A    between atoms: C_4  and  C_5
REMARK    4  A    between atoms: C_5  and  C_6
REMARK    5  A    between atoms: C_6  and  C_7
REMARK    6  A    between atoms: C_7  and  N_8
REMARK    7  A    between atoms: C_11  and  C_12
REMARK    8  A    between atoms: C_12  and  C_13
REMARK    9  A    between atoms: C_24  and  C_25
REMARK   10  A    between atoms: C_25  and  O_26
REMARK   11  A    between atoms: O_26  and  N_27
REMARK                            x       y       z     vdW  Elec       q    Type
REMARK                         _______ _______ _______ _____ _____    ______ ____
ROOT
ATOM      1  C   UNL     1       7.914   6.015  18.473  0.00  0.00    +0.000 C 
ENDROOT
BRANCH   1   4
ATOM      2  O   UNL     1       7.479   8.285  16.893  0.00  0.00    +0.000 OA
ATOM      3  C   UNL     1       8.111   8.393  17.936  0.00  0.00    +0.000 C 
ATOM      4  N   UNL     1       8.390   7.342  18.782  0.00  0.00    +0.000 N 
ATOM      5  H   UNL     1       8.645   7.549  19.740  0.00  0.00    +0.000 HD
BRANCH   3   6
ATOM      6  C   UNL     1       8.604   9.720  18.385  0.00  0.00    +0.000 A 
ATOM      7  C   UNL     1       8.401  10.831  17.561  0.00  0.00    +0.000 A 
ATOM      8  C   UNL     1       8.857  12.089  17.963  0.00  0.00    +0.000 A 
ATOM      9  C   UNL     1       9.537  12.242  19.180  0.00  0.00    +0.000 A 
ATOM     10  C   UNL     1       9.740  11.120  19.998  0.00  0.00    +0.000 A 
ATOM     11  C   UNL     1       9.284   9.864  19.599  0.00  0.00    +0.000 A 
BRANCH   9  12
ATOM     12  C   UNL     1      10.012  13.601  19.627  0.00  0.00    +0.000 C 
BRANCH  12  13
ATOM     13  O   UNL     1      11.428  13.611  19.532  0.00  0.00    +0.000 OA
BRANCH  13  14
ATOM     14  N   UNL     1      11.890  14.558  18.596  0.00  0.00    +0.000 N 
ATOM     15  O   UNL     1      11.804  14.261  17.403  0.00  0.00    +0.000 OA
ATOM     16  O   UNL     1      12.329  15.577  19.123  0.00  0.00    +0.000 OA
ENDBRANCH  13  14
ENDBRANCH  12  13
ENDBRANCH   9  12
ENDBRANCH   3   6
ENDBRANCH   1   4
BRANCH   1  17
ATOM     17  C   UNL     1       7.000   5.483  19.567  0.00  0.00    +0.000 C 
BRANCH  17  18
ATOM     18  C   UNL     1       5.937   4.562  18.969  0.00  0.00    +0.000 C 
BRANCH  18  19
ATOM     19  C   UNL     1       5.601   4.902  17.512  0.00  0.00    +0.000 C 
BRANCH  19  20
ATOM     20  N   UNL     1       4.286   5.542  17.331  0.00  0.00    +0.000 NA
ATOM     21  C   UNL     1       3.260   4.934  18.192  0.00  0.00    +0.000 C 
ATOM     22  C   UNL     1       1.903   5.610  18.012  0.00  0.00    +0.000 C 
ATOM     23  C   UNL     1       1.971   7.111  18.314  0.00  0.00    +0.000 C 
ATOM     24  C   UNL     1       3.057   7.717  17.409  0.00  0.00    +0.000 C 
ATOM     25  C   UNL     1       4.402   6.994  17.545  0.00  0.00    +0.000 C 
BRANCH  23  26
ATOM     26  C   UNL     1       2.260   7.431  19.799  0.00  0.00    +0.000 C 
BRANCH  26  27
ATOM     27  C   UNL     1       1.371   8.481  20.425  0.00  0.00    +0.000 A 
ATOM     28  C   UNL     1       0.814   9.495  19.630  0.00  0.00    +0.000 A 
ATOM     29  C   UNL     1      -0.043  10.443  20.185  0.00  0.00    +0.000 A 
ATOM     30  C   UNL     1      -0.356  10.390  21.542  0.00  0.00    +0.000 A 
ATOM     31  C   UNL     1       0.196   9.391  22.342  0.00  0.00    +0.000 A 
ATOM     32  C   UNL     1       1.053   8.439  21.788  0.00  0.00    +0.000 A 
ENDBRANCH  26  27
ENDBRANCH  23  26
ENDBRANCH  19  20
ENDBRANCH  18  19
ENDBRANCH  17  18
ENDBRANCH   1  17
TORSDOF 11
ENDMDL
MODEL 5
REMARK VINA RESULT:      -7.1      2.286      3.618
REMARK  Name = 
REMARK  11 active torsions:
REMARK  status: ('A' for Active; 'I' for Inactive)
REMARK    1  A    between atoms: C_2  and  C_21
REMARK    2  A    between atoms: N_3  and  C_4
REMARK    3  A    between atoms: C_4  and  C_5
REMARK    4  A    between atoms: C_5  and  C_6
REMARK    5  A    between atoms: C_6  and  C_7
REMARK    6  A    between atoms: C_7  and  N_8
REMARK    7  A    between atoms: C_11  and  C_12
REMARK    8  A    between atoms: C_12  and  C_13
REMARK    9  A    between atoms: C_24  and  C_25
REMARK   10  A    between atoms: C_25  and  O_26
REMARK   11  A    between atoms: O_26  and  N_27
REMARK                            x       y       z     vdW  Elec       q    Type
REMARK                         _______ _______ _______ _____ _____    ______ ____
ROOT
ATOM      1  C   UNL     1       2.173   9.106  17.860  0.00  0.00    +0.000 C 
ENDROOT
BRANCH   1   4
ATOM      2  O   UNL     1      -0.500   9.921  17.677  0.00  0.00    +0.000 OA
ATOM      3  C   UNL     1       0.114  10.109  18.719  0.00  0.00    +0.000 C 
ATOM      4  N   UNL     1       1.432   9.757  18.914  0.00  0.00    +0.000 N 
ATOM      5  H   UNL     1       1.773   9.670  19.864  0.00  0.00    +0.000 HD
BRANCH   3   6
ATOM      6  C   UNL     1      -0.562  10.721  19.892  0.00  0.00    +0.000 A 
ATOM      7  C   UNL     1      -1.552  11.683  19.676  0.00  0.00    +0.000 A 
ATOM      8  C   UNL     1      -2.201  12.271  20.764  0.00  0.00    +0.000 A 
ATOM      9  C   UNL     1      -1.849  11.919  22.075  0.00  0.00    +0.000 A 
ATOM     10  C   UNL     1      -0.850  10.956  22.282  0.00  0.00    +0.000 A 
ATOM     11  C   UNL     1      -0.203  10.365  21.197  0.00  0.00    +0.000 A 
BRANCH   9  12
ATOM     12  C   UNL     1      -2.561  12.537  23.252  0.00  0.00    +0.000 C 
BRANCH  12  13
ATOM     13  O   UNL     1      -3.942  12.242  23.118  0.00  0.00    +0.000 OA
BRANCH  13  14
ATOM     14  N   UNL     1      -4.716  12.862  24.119  0.00  0.00    +0.000 N 
ATOM     15  O   UNL     1      -4.758  14.094  24.119  0.00  0.00    +0.000 OA
ATOM     16  O   UNL     1      -5.254  12.057  24.875  0.00  0.00    +0.000 OA
ENDBRANCH  13  14
ENDBRANCH  12  13
ENDBRANCH   9  12
ENDBRANCH   3   6
ENDBRANCH   1   4
BRANCH   1  17
ATOM     17  C   UNL     1       2.197   7.597  18.046  0.00  0.00    +0.000 C 
BRANCH  17  18
ATOM     18  C   UNL     1       2.437   7.249  19.515  0.00  0.00    +0.000 C 
BRANCH  18  19
ATOM     19  C   UNL     1       1.624   6.036  19.984  0.00  0.00    +0.000 C 
BRANCH  19  20
ATOM     20  N   UNL     1       2.209   4.737  19.608  0.00  0.00    +0.000 NA
ATOM     21  C   UNL     1       1.705   4.269  18.307  0.00  0.00    +0.000 C 
ATOM     22  C   UNL     1       2.324   2.930  17.914  0.00  0.00    +0.000 C 
ATOM     23  C   UNL     1       3.853   3.008  17.849  0.00  0.00    +0.000 C 
ATOM     24  C   UNL     1       4.350   3.509  19.216  0.00  0.00    +0.000 C 
ATOM     25  C   UNL     1       3.678   4.821  19.637  0.00  0.00    +0.000 C 
BRANCH  23  26
ATOM     26  C   UNL     1       4.379   3.915  16.713  0.00  0.00    +0.000 C 
BRANCH  26  27
ATOM     27  C   UNL     1       5.466   4.889  17.106  0.00  0.00    +0.000 A 
ATOM     28  C   UNL     1       6.687   4.413  17.608  0.00  0.00    +0.000 A 
ATOM     29  C   UNL     1       7.716   5.297  17.933  0.00  0.00    +0.000 A 
ATOM     30  C   UNL     1       7.536   6.668  17.759  0.00  0.00    +0.000 A 
ATOM     31  C   UNL     1       6.326   7.152  17.267  0.00  0.00    +0.000 A 
ATOM     32  C   UNL     1       5.296   6.269  16.939  0.00  0.00    +0.000 A 
ENDBRANCH  26  27
ENDBRANCH  23  26
ENDBRANCH  19  20
ENDBRANCH  18  19
ENDBRANCH  17  18
ENDBRANCH   1  17
TORSDOF 11
ENDMDL
MODEL 6
REMARK VINA RESULT:      -7.1      2.248      3.110
REMARK  Name = 
REMARK  11 active torsions:
REMARK  status: ('A' for Active; 'I' for Inactive)
REMARK    1  A    between atoms: C_2  and  C_21
REMARK    2  A    between atoms: N_3  and  C_4
REMARK    3  A    between atoms: C_4  and  C_5
REMARK    4  A    between atoms: C_5  and  C_6
REMARK    5  A    between atoms: C_6  and  C_7
REMARK    6  A    between atoms: C_7  and  N_8
REMARK    7  A    between atoms: C_11  and  C_12
REMARK    8  A    between atoms: C_12  and  C_13
REMARK    9  A    between atoms: C_24  and  C_25
REMARK   10  A    between atoms: C_25  and  O_26
REMARK   11  A    between atoms: O_26  and  N_27
REMARK                            x       y       z     vdW  Elec       q    Type
REMARK                         _______ _______ _______ _____ _____    ______ ____
ROOT
ATOM      1  C   UNL     1       2.225   6.855  20.183  0.00  0.00    +0.000 C 
ENDROOT
BRANCH   1   4
ATOM      2  O   UNL     1       1.303   9.256  19.074  0.00  0.00    +0.000 OA
ATOM      3  C   UNL     1       1.041   8.996  20.242  0.00  0.00    +0.000 C 
ATOM      4  N   UNL     1       1.452   7.850  20.889  0.00  0.00    +0.000 N 
ATOM      5  H   UNL     1       0.962   7.570  21.730  0.00  0.00    +0.000 HD
BRANCH   3   6
ATOM      6  C   UNL     1       0.206   9.919  21.051  0.00  0.00    +0.000 A 
ATOM      7  C   UNL     1      -0.155   9.544  22.348  0.00  0.00    +0.000 A 
ATOM      8  C   UNL     1      -0.940  10.397  23.127  0.00  0.00    +0.000 A 
ATOM      9  C   UNL     1      -1.388  11.621  22.607  0.00  0.00    +0.000 A 
ATOM     10  C   UNL     1      -1.025  11.987  21.302  0.00  0.00    +0.000 A 
ATOM     11  C   UNL     1      -0.239  11.137  20.524  0.00  0.00    +0.000 A 
BRANCH   9  12
ATOM     12  C   UNL     1      -2.219  12.554  23.452  0.00  0.00    +0.000 C 
BRANCH  12  13
ATOM     13  O   UNL     1      -3.465  12.727  22.797  0.00  0.00    +0.000 OA
BRANCH  13  14
ATOM     14  N   UNL     1      -4.544  12.741  23.705  0.00  0.00    +0.000 N 
ATOM     15  O   UNL     1      -4.548  11.885  24.590  0.00  0.00    +0.000 OA
ATOM     16  O   UNL     1      -5.353  13.636  23.471  0.00  0.00    +0.000 OA
ENDBRANCH  13  14
ENDBRANCH  12  13
ENDBRANCH   9  12
ENDBRANCH   3   6
ENDBRANCH   1   4
BRANCH   1  17
ATOM     17  C   UNL     1       2.134   5.496  20.861  0.00  0.00    +0.000 C 
BRANCH  17  18
ATOM     18  C   UNL     1       0.873   4.762  20.409  0.00  0.00    +0.000 C 
BRANCH  18  19
ATOM     19  C   UNL     1       0.920   3.256  20.696  0.00  0.00    +0.000 C 
BRANCH  19  20
ATOM     20  N   UNL     1       2.002   2.543  19.994  0.00  0.00    +0.000 NA
ATOM     21  C   UNL     1       2.188   3.047  18.625  0.00  0.00    +0.000 C 
ATOM     22  C   UNL     1       3.320   2.315  17.907  0.00  0.00    +0.000 C 
ATOM     23  C   UNL     1       4.647   2.441  18.662  0.00  0.00    +0.000 C 
ATOM     24  C   UNL     1       4.420   1.918  20.090  0.00  0.00    +0.000 C 
ATOM     25  C   UNL     1       3.241   2.610  20.786  0.00  0.00    +0.000 C 
BRANCH  23  26
ATOM     26  C   UNL     1       5.207   3.882  18.693  0.00  0.00    +0.000 C 
BRANCH  26  27
ATOM     27  C   UNL     1       5.306   4.573  17.352  0.00  0.00    +0.000 A 
ATOM     28  C   UNL     1       4.839   5.887  17.202  0.00  0.00    +0.000 A 
ATOM     29  C   UNL     1       4.964   6.552  15.983  0.00  0.00    +0.000 A 
ATOM     30  C   UNL     1       5.558   5.911  14.898  0.00  0.00    +0.000 A 
ATOM     31  C   UNL     1       6.020   4.603  15.034  0.00  0.00    +0.000 A 
ATOM     32  C   UNL     1       5.898   3.937  16.254  0.00  0.00    +0.000 A 
ENDBRANCH  26  27
ENDBRANCH  23  26
ENDBRANCH  19  20
ENDBRANCH  18  19
ENDBRANCH  17  18
ENDBRANCH   1  17
TORSDOF 11
ENDMDL
MODEL 7
REMARK VINA RESULT:      -7.0      4.111     10.104
REMARK  Name = 
REMARK  11 active torsions:
REMARK  status: ('A' for Active; 'I' for Inactive)
REMARK    1  A    between atoms: C_2  and  C_21
REMARK    2  A    between atoms: N_3  and  C_4
REMARK    3  A    between atoms: C_4  and  C_5
REMARK    4  A    between atoms: C_5  and  C_6
REMARK    5  A    between atoms: C_6  and  C_7
REMARK    6  A    between atoms: C_7  and  N_8
REMARK    7  A    between atoms: C_11  and  C_12
REMARK    8  A    between atoms: C_12  and  C_13
REMARK    9  A    between atoms: C_24  and  C_25
REMARK   10  A    between atoms: C_25  and  O_26
REMARK   11  A    between atoms: O_26  and  N_27
REMARK                            x       y       z     vdW  Elec       q    Type
REMARK                         _______ _______ _______ _____ _____    ______ ____
ROOT
ATOM      1  C   UNL     1       1.867   7.031  20.575  0.00  0.00    +0.000 C 
ENDROOT
BRANCH   1   4
ATOM      2  O   UNL     1       3.319   4.664  20.212  0.00  0.00    +0.000 OA
ATOM      3  C   UNL     1       3.310   5.504  19.322  0.00  0.00    +0.000 C 
ATOM      4  N   UNL     1       2.638   6.705  19.399  0.00  0.00    +0.000 N 
ATOM      5  H   UNL     1       2.433   7.199  18.539  0.00  0.00    +0.000 HD
BRANCH   3   6
ATOM      6  C   UNL     1       4.022   5.254  18.043  0.00  0.00    +0.000 A 
ATOM      7  C   UNL     1       4.525   6.342  17.324  0.00  0.00    +0.000 A 
ATOM      8  C   UNL     1       5.198   6.130  16.119  0.00  0.00    +0.000 A 
ATOM      9  C   UNL     1       5.354   4.832  15.612  0.00  0.00    +0.000 A 
ATOM     10  C   UNL     1       4.841   3.745  16.338  0.00  0.00    +0.000 A 
ATOM     11  C   UNL     1       4.171   3.956  17.543  0.00  0.00    +0.000 A 
BRANCH   9  12
ATOM     12  C   UNL     1       6.098   4.596  14.322  0.00  0.00    +0.000 C 
BRANCH  12  13
ATOM     13  O   UNL     1       7.350   5.255  14.425  0.00  0.00    +0.000 OA
BRANCH  13  14
ATOM     14  N   UNL     1       7.998   5.362  13.178  0.00  0.00    +0.000 N 
ATOM     15  O   UNL     1       9.017   6.053  13.128  0.00  0.00    +0.000 OA
ATOM     16  O   UNL     1       7.431   4.730  12.289  0.00  0.00    +0.000 OA
ENDBRANCH  13  14
ENDBRANCH  12  13
ENDBRANCH   9  12
ENDBRANCH   3   6
ENDBRANCH   1   4
BRANCH   1  17
ATOM     17  C   UNL     1       1.027   8.281  20.361  0.00  0.00    +0.000 C 
BRANCH  17  18
ATOM     18  C   UNL     1       1.684   9.190  19.323  0.00  0.00    +0.000 C 
BRANCH  18  19
ATOM     19  C   UNL     1       0.691   9.739  18.292  0.00  0.00    +0.000 C 
BRANCH  19  20
ATOM     20  N   UNL     1       0.164  11.077  18.617  0.00  0.00    +0.000 NA
ATOM     21  C   UNL     1      -1.172  11.002  19.228  0.00  0.00    +0.000 C 
ATOM     22  C   UNL     1      -1.708  12.389  19.577  0.00  0.00    +0.000 C 
ATOM     23  C   UNL     1      -0.771  13.137  20.531  0.00  0.00    +0.000 C 
ATOM     24  C   UNL     1       0.617  13.190  19.872  0.00  0.00    +0.000 C 
ATOM     25  C   UNL     1       1.125  11.802  19.464  0.00  0.00    +0.000 C 
BRANCH  23  26
ATOM     26  C   UNL     1      -0.682  12.499  21.937  0.00  0.00    +0.000 C 
BRANCH  26  27
ATOM     27  C   UNL     1      -1.740  12.941  22.922  0.00  0.00    +0.000 A 
ATOM     28  C   UNL     1      -2.857  12.126  23.165  0.00  0.00    +0.000 A 
ATOM     29  C   UNL     1      -3.818  12.499  24.104  0.00  0.00    +0.000 A 
ATOM     30  C   UNL     1      -3.675  13.691  24.811  0.00  0.00    +0.000 A 
ATOM     31  C   UNL     1      -2.573  14.511  24.573  0.00  0.00    +0.000 A 
ATOM     32  C   UNL     1      -1.609  14.138  23.635  0.00  0.00    +0.000 A 
ENDBRANCH  26  27
ENDBRANCH  23  26
ENDBRANCH  19  20
ENDBRANCH  18  19
ENDBRANCH  17  18
ENDBRANCH   1  17
TORSDOF 11
ENDMDL
MODEL 8
REMARK VINA RESULT:      -7.0      2.789      3.834
REMARK  Name = 
REMARK  11 active torsions:
REMARK  status: ('A' for Active; 'I' for Inactive)
REMARK    1  A    between atoms: C_2  and  C_21
REMARK    2  A    between atoms: N_3  and  C_4
REMARK    3  A    between atoms: C_4  and  C_5
REMARK    4  A    between atoms: C_5  and  C_6
REMARK    5  A    between atoms: C_6  and  C_7
REMARK    6  A    between atoms: C_7  and  N_8
REMARK    7  A    between atoms: C_11  and  C_12
REMARK    8  A    between atoms: C_12  and  C_13
REMARK    9  A    between atoms: C_24  and  C_25
REMARK   10  A    between atoms: C_25  and  O_26
REMARK   11  A    between atoms: O_26  and  N_27
REMARK                            x       y       z     vdW  Elec       q    Type
REMARK                         _______ _______ _______ _____ _____    ______ ____
ROOT
ATOM      1  C   UNL     1       1.811   7.183  21.070  0.00  0.00    +0.000 C 
ENDROOT
BRANCH   1   4
ATOM      2  O   UNL     1       1.540   9.322  22.858  0.00  0.00    +0.000 OA
ATOM      3  C   UNL     1       0.808   9.263  21.878  0.00  0.00    +0.000 C 
ATOM      4  N   UNL     1       0.849   8.252  20.942  0.00  0.00    +0.000 N 
ATOM      5  H   UNL     1       0.437   8.420  20.033  0.00  0.00    +0.000 HD
BRANCH   3   6
ATOM      6  C   UNL     1      -0.184  10.337  21.613  0.00  0.00    +0.000 A 
ATOM      7  C   UNL     1      -0.790  10.980  22.696  0.00  0.00    +0.000 A 
ATOM      8  C   UNL     1      -1.725  11.992  22.470  0.00  0.00    +0.000 A 
ATOM      9  C   UNL     1      -2.078  12.354  21.161  0.00  0.00    +0.000 A 
ATOM     10  C   UNL     1      -1.467  11.699  20.080  0.00  0.00    +0.000 A 
ATOM     11  C   UNL     1      -0.530  10.690  20.305  0.00  0.00    +0.000 A 
BRANCH   9  12
ATOM     12  C   UNL     1      -3.071  13.460  20.912  0.00  0.00    +0.000 C 
BRANCH  12  13
ATOM     13  O   UNL     1      -4.218  12.877  20.315  0.00  0.00    +0.000 OA
BRANCH  13  14
ATOM     14  N   UNL     1      -5.329  12.882  21.183  0.00  0.00    +0.000 N 
ATOM     15  O   UNL     1      -5.551  13.920  21.810  0.00  0.00    +0.000 OA
ATOM     16  O   UNL     1      -5.935  11.814  21.190  0.00  0.00    +0.000 OA
ENDBRANCH  13  14
ENDBRANCH  12  13
ENDBRANCH   9  12
ENDBRANCH   3   6
ENDBRANCH   1   4
BRANCH   1  17
ATOM     17  C   UNL     1       1.208   5.843  20.677  0.00  0.00    +0.000 C 
BRANCH  17  18
ATOM     18  C   UNL     1       2.195   4.712  20.968  0.00  0.00    +0.000 C 
BRANCH  18  19
ATOM     19  C   UNL     1       2.746   4.055  19.697  0.00  0.00    +0.000 C 
BRANCH  19  20
ATOM     20  N   UNL     1       3.800   4.834  19.024  0.00  0.00    +0.000 NA
ATOM     21  C   UNL     1       5.082   4.113  19.003  0.00  0.00    +0.000 C 
ATOM     22  C   UNL     1       6.167   4.918  18.292  0.00  0.00    +0.000 C 
ATOM     23  C   UNL     1       5.770   5.258  16.852  0.00  0.00    +0.000 C 
ATOM     24  C   UNL     1       4.424   6.000  16.904  0.00  0.00    +0.000 C 
ATOM     25  C   UNL     1       3.354   5.218  17.674  0.00  0.00    +0.000 C 
BRANCH  23  26
ATOM     26  C   UNL     1       5.674   4.022  15.928  0.00  0.00    +0.000 C 
BRANCH  26  27
ATOM     27  C   UNL     1       6.266   4.191  14.547  0.00  0.00    +0.000 A 
ATOM     28  C   UNL     1       5.698   3.523  13.452  0.00  0.00    +0.000 A 
ATOM     29  C   UNL     1       6.205   3.705  12.166  0.00  0.00    +0.000 A 
ATOM     30  C   UNL     1       7.287   4.558  11.960  0.00  0.00    +0.000 A 
ATOM     31  C   UNL     1       7.864   5.222  13.041  0.00  0.00    +0.000 A 
ATOM     32  C   UNL     1       7.356   5.043  14.328  0.00  0.00    +0.000 A 
ENDBRANCH  26  27
ENDBRANCH  23  26
ENDBRANCH  19  20
ENDBRANCH  18  19
ENDBRANCH  17  18
ENDBRANCH   1  17
TORSDOF 11
ENDMDL
MODEL 9
REMARK VINA RESULT:      -7.0      6.071      9.726
REMARK  Name = 
REMARK  11 active torsions:
REMARK  status: ('A' for Active; 'I' for Inactive)
REMARK    1  A    between atoms: C_2  and  C_21
REMARK    2  A    between atoms: N_3  and  C_4
REMARK    3  A    between atoms: C_4  and  C_5
REMARK    4  A    between atoms: C_5  and  C_6
REMARK    5  A    between atoms: C_6  and  C_7
REMARK    6  A    between atoms: C_7  and  N_8
REMARK    7  A    between atoms: C_11  and  C_12
REMARK    8  A    between atoms: C_12  and  C_13
REMARK    9  A    between atoms: C_24  and  C_25
REMARK   10  A    between atoms: C_25  and  O_26
REMARK   11  A    between atoms: O_26  and  N_27
REMARK                            x       y       z     vdW  Elec       q    Type
REMARK                         _______ _______ _______ _____ _____    ______ ____
ROOT
ATOM      1  C   UNL     1       7.784   6.730  17.695  0.00  0.00    +0.000 C 
ENDROOT
BRANCH   1   4
ATOM      2  O   UNL     1       5.952   5.662  15.866  0.00  0.00    +0.000 OA
ATOM      3  C   UNL     1       5.683   5.650  17.060  0.00  0.00    +0.000 C 
ATOM      4  N   UNL     1       6.506   6.156  18.043  0.00  0.00    +0.000 N 
ATOM      5  H   UNL     1       6.361   5.851  18.998  0.00  0.00    +0.000 HD
BRANCH   3   6
ATOM      6  C   UNL     1       4.420   5.035  17.542  0.00  0.00    +0.000 A 
ATOM      7  C   UNL     1       3.521   5.819  18.271  0.00  0.00    +0.000 A 
ATOM      8  C   UNL     1       2.327   5.262  18.733  0.00  0.00    +0.000 A 
ATOM      9  C   UNL     1       2.033   3.912  18.490  0.00  0.00    +0.000 A 
ATOM     10  C   UNL     1       2.943   3.132  17.761  0.00  0.00    +0.000 A 
ATOM     11  C   UNL     1       4.135   3.688  17.296  0.00  0.00    +0.000 A 
BRANCH   9  12
ATOM     12  C   UNL     1       0.735   3.311  18.970  0.00  0.00    +0.000 C 
BRANCH  12  13
ATOM     13  O   UNL     1       0.594   3.642  20.342  0.00  0.00    +0.000 OA
BRANCH  13  14
ATOM     14  N   UNL     1       1.548   2.987  21.146  0.00  0.00    +0.000 N 
ATOM     15  O   UNL     1       2.128   3.663  21.999  0.00  0.00    +0.000 OA
ATOM     16  O   UNL     1       1.671   1.796  20.870  0.00  0.00    +0.000 OA
ENDBRANCH  13  14
ENDBRANCH  12  13
ENDBRANCH   9  12
ENDBRANCH   3   6
ENDBRANCH   1   4
BRANCH   1  17
ATOM     17  C   UNL     1       7.678   8.231  17.470  0.00  0.00    +0.000 C 
BRANCH  17  18
ATOM     18  C   UNL     1       8.545   8.981  18.480  0.00  0.00    +0.000 C 
BRANCH  18  19
ATOM     19  C   UNL     1       8.789  10.444  18.091  0.00  0.00    +0.000 C 
BRANCH  19  20
ATOM     20  N   UNL     1      10.013  11.025  18.671  0.00  0.00    +0.000 NA
ATOM     21  C   UNL     1      10.541  12.121  17.845  0.00  0.00    +0.000 C 
ATOM     22  C   UNL     1      11.800  12.730  18.457  0.00  0.00    +0.000 C 
ATOM     23  C   UNL     1      11.545  13.260  19.872  0.00  0.00    +0.000 C 
ATOM     24  C   UNL     1      10.985  12.098  20.709  0.00  0.00    +0.000 C 
ATOM     25  C   UNL     1       9.758  11.447  20.059  0.00  0.00    +0.000 C 
BRANCH  23  26
ATOM     26  C   UNL     1      10.587  14.473  19.914  0.00  0.00    +0.000 C 
BRANCH  26  27
ATOM     27  C   UNL     1      10.518  15.203  21.236  0.00  0.00    +0.000 A 
ATOM     28  C   UNL     1       9.571  14.824  22.199  0.00  0.00    +0.000 A 
ATOM     29  C   UNL     1       9.525  15.459  23.440  0.00  0.00    +0.000 A 
ATOM     30  C   UNL     1      10.426  16.481  23.733  0.00  0.00    +0.000 A 
ATOM     31  C   UNL     1      11.367  16.870  22.781  0.00  0.00    +0.000 A 
ATOM     32  C   UNL     1      11.416  16.234  21.540  0.00  0.00    +0.000 A 
ENDBRANCH  26  27
ENDBRANCH  23  26
ENDBRANCH  19  20
ENDBRANCH  18  19
ENDBRANCH  17  18
ENDBRANCH   1  17
TORSDOF 11
ENDMDL
