MODEL 1
REMARK VINA RESULT:      -7.3      0.000      0.000
REMARK  Name = 
REMARK  9 active torsions:
REMARK  status: ('A' for Active; 'I' for Inactive)
REMARK    1  A    between atoms: C_1  and  C_2
REMARK    2  A    between atoms: C_2  and  N_3
REMARK    3  A    between atoms: N_3  and  C_4
REMARK    4  A    between atoms: N_3  and  C_6
REMARK    5  A    between atoms: C_4  and  C_5
REMARK    6  A    between atoms: C_9  and  C_10
REMARK    7  A    between atoms: C_15  and  O_16
REMARK    8  A    between atoms: O_16  and  C_17
REMARK    9  A    between atoms: C_18  and  O_19
REMARK                            x       y       z     vdW  Elec       q    Type
REMARK                         _______ _______ _______ _____ _____    ______ ____
ROOT
ATOM      1  C   UNL     1       0.807  10.059  19.385  0.00  0.00    +0.000 C 
ATOM      2  C   UNL     1      -0.403  10.130  18.791  0.00  0.00    +0.000 C 
ATOM      3  C   UNL     1      -0.848   9.290  17.620  0.00  0.00    +0.000 C 
ATOM      4  C   UNL     1      -2.035  10.054  17.145  0.00  0.00    +0.000 A 
ATOM      5  C   UNL     1      -2.628   9.966  15.900  0.00  0.00    +0.000 A 
ATOM      6  C   UNL     1      -3.764  10.748  15.631  0.00  0.00    +0.000 A 
ATOM      7  C   UNL     1      -4.377  11.483  16.675  0.00  0.00    +0.000 A 
ATOM      8  C   UNL     1      -3.709  11.618  17.905  0.00  0.00    +0.000 A 
ATOM      9  C   UNL     1      -2.494  10.962  18.075  0.00  0.00    +0.000 A 
ATOM     10  C   UNL     1      -1.480  11.082  19.099  0.00  0.00    +0.000 C 
ATOM     11  O   UNL     1      -1.500  11.878  20.028  0.00  0.00    +0.000 OA
ENDROOT
BRANCH   1  15
ATOM     12  C   UNL     1       3.162   6.559  18.549  0.00  0.00    +0.000 A 
ATOM     13  C   UNL     1       2.511   6.665  19.809  0.00  0.00    +0.000 A 
ATOM     14  C   UNL     1       1.790   7.830  20.150  0.00  0.00    +0.000 A 
ATOM     15  C   UNL     1       1.715   8.897  19.241  0.00  0.00    +0.000 A 
ATOM     16  C   UNL     1       2.399   8.794  18.027  0.00  0.00    +0.000 A 
ATOM     17  C   UNL     1       3.114   7.665  17.697  0.00  0.00    +0.000 A 
BRANCH  12  18
ATOM     18  N   UNL     1       3.820   5.345  18.115  0.00  0.00    +0.000 N 
BRANCH  18  20
ATOM     19  C   UNL     1       5.095   4.568  16.135  0.00  0.00    +0.000 C 
ATOM     20  C   UNL     1       5.110   5.395  17.426  0.00  0.00    +0.000 C 
ENDBRANCH  18  20
BRANCH  18  21
ATOM     21  C   UNL     1       3.136   4.052  18.254  0.00  0.00    +0.000 C 
ATOM     22  C   UNL     1       1.725   4.004  17.653  0.00  0.00    +0.000 C 
ENDBRANCH  18  21
ENDBRANCH  12  18
ENDBRANCH   1  15
BRANCH   6  23
ATOM     23  O   UNL     1      -4.221  10.880  14.363  0.00  0.00    +0.000 OA
ATOM     24  C   UNL     1      -3.862   9.948  13.391  0.00  0.00    +0.000 C 
ENDBRANCH   6  23
BRANCH   7  25
ATOM     25  O   UNL     1      -5.551  12.117  16.490  0.00  0.00    +0.000 OA
ATOM     26  H   UNL     1      -5.621  12.907  15.933  0.00  0.00    +0.000 HD
ENDBRANCH   7  25
TORSDOF 6
ENDMDL
MODEL 2
REMARK VINA RESULT:      -7.2      3.387      4.477
REMARK  Name = 
REMARK  9 active torsions:
REMARK  status: ('A' for Active; 'I' for Inactive)
REMARK    1  A    between atoms: C_1  and  C_2
REMARK    2  A    between atoms: C_2  and  N_3
REMARK    3  A    between atoms: N_3  and  C_4
REMARK    4  A    between atoms: N_3  and  C_6
REMARK    5  A    between atoms: C_4  and  C_5
REMARK    6  A    between atoms: C_9  and  C_10
REMARK    7  A    between atoms: C_15  and  O_16
REMARK    8  A    between atoms: O_16  and  C_17
REMARK    9  A    between atoms: C_18  and  O_19
REMARK                            x       y       z     vdW  Elec       q    Type
REMARK                         _______ _______ _______ _____ _____    ______ ____
ROOT
ATOM      1  C   UNL     1       1.553   8.159  21.530  0.00  0.00    +0.000 C 
ATOM      2  C   UNL     1       0.596   9.113  21.542  0.00  0.00    +0.000 C 
ATOM      3  C   UNL     1      -0.074   9.688  20.320  0.00  0.00    +0.000 C 
ATOM      4  C   UNL     1      -0.688  10.925  20.877  0.00  0.00    +0.000 A 
ATOM      5  C   UNL     1      -1.116  12.027  20.161  0.00  0.00    +0.000 A 
ATOM      6  C   UNL     1      -1.698  13.103  20.853  0.00  0.00    +0.000 A 
ATOM      7  C   UNL     1      -1.984  12.981  22.235  0.00  0.00    +0.000 A 
ATOM      8  C   UNL     1      -1.466  11.886  22.949  0.00  0.00    +0.000 A 
ATOM      9  C   UNL     1      -0.745  10.921  22.254  0.00  0.00    +0.000 A 
ATOM     10  C   UNL     1       0.088   9.834  22.718  0.00  0.00    +0.000 C 
ATOM     11  O   UNL     1       0.360   9.597  23.887  0.00  0.00    +0.000 OA
ENDROOT
BRANCH   1  15
ATOM     12  C   UNL     1       2.620   5.347  18.456  0.00  0.00    +0.000 A 
ATOM     13  C   UNL     1       2.726   6.739  18.182  0.00  0.00    +0.000 A 
ATOM     14  C   UNL     1       2.316   7.693  19.138  0.00  0.00    +0.000 A 
ATOM     15  C   UNL     1       1.795   7.269  20.371  0.00  0.00    +0.000 A 
ATOM     16  C   UNL     1       1.656   5.898  20.604  0.00  0.00    +0.000 A 
ATOM     17  C   UNL     1       2.042   4.966  19.669  0.00  0.00    +0.000 A 
BRANCH  12  18
ATOM     18  N   UNL     1       3.127   4.337  17.552  0.00  0.00    +0.000 N 
BRANCH  18  20
ATOM     19  C   UNL     1       3.252   1.897  17.978  0.00  0.00    +0.000 C 
ATOM     20  C   UNL     1       2.436   3.057  17.393  0.00  0.00    +0.000 C 
ENDBRANCH  18  20
BRANCH  18  21
ATOM     21  C   UNL     1       4.413   4.542  16.872  0.00  0.00    +0.000 C 
ATOM     22  C   UNL     1       5.634   4.566  17.802  0.00  0.00    +0.000 C 
ENDBRANCH  18  21
ENDBRANCH  12  18
ENDBRANCH   1  15
BRANCH   6  23
ATOM     23  O   UNL     1      -1.900  14.289  20.231  0.00  0.00    +0.000 OA
ATOM     24  C   UNL     1      -0.812  15.047  19.801  0.00  0.00    +0.000 C 
ENDBRANCH   6  23
BRANCH   7  25
ATOM     25  O   UNL     1      -2.679  13.929  22.893  0.00  0.00    +0.000 OA
ATOM     26  H   UNL     1      -3.222  14.580  22.425  0.00  0.00    +0.000 HD
ENDBRANCH   7  25
TORSDOF 6
ENDMDL
MODEL 3
REMARK VINA RESULT:      -7.2      0.141      1.281
REMARK  Name = 
REMARK  9 active torsions:
REMARK  status: ('A' for Active; 'I' for Inactive)
REMARK    1  A    between atoms: C_1  and  C_2
REMARK    2  A    between atoms: C_2  and  N_3
REMARK    3  A    between atoms: N_3  and  C_4
REMARK    4  A    between atoms: N_3  and  C_6
REMARK    5  A    between atoms: C_4  and  C_5
REMARK    6  A    between atoms: C_9  and  C_10
REMARK    7  A    between atoms: C_15  and  O_16
REMARK    8  A    between atoms: O_16  and  C_17
REMARK    9  A    between atoms: C_18  and  O_19
REMARK                            x       y       z     vdW  Elec       q    Type
REMARK                         _______ _______ _______ _____ _____    ______ ____
ROOT
ATOM      1  C   UNL     1       0.867   9.996  19.340  0.00  0.00    +0.000 C 
ATOM      2  C   UNL     1      -0.350  10.076  18.759  0.00  0.00    +0.000 C 
ATOM      3  C   UNL     1      -0.809   9.250  17.583  0.00  0.00    +0.000 C 
ATOM      4  C   UNL     1      -1.999  10.022  17.130  0.00  0.00    +0.000 A 
ATOM      5  C   UNL     1      -2.606   9.949  15.890  0.00  0.00    +0.000 A 
ATOM      6  C   UNL     1      -3.742  10.737  15.641  0.00  0.00    +0.000 A 
ATOM      7  C   UNL     1      -4.342  11.462  16.699  0.00  0.00    +0.000 A 
ATOM      8  C   UNL     1      -3.661  11.582  17.923  0.00  0.00    +0.000 A 
ATOM      9  C   UNL     1      -2.446  10.921  18.074  0.00  0.00    +0.000 A 
ATOM     10  C   UNL     1      -1.421  11.028  19.088  0.00  0.00    +0.000 C 
ATOM     11  O   UNL     1      -1.429  11.814  20.025  0.00  0.00    +0.000 OA
ENDROOT
BRANCH   1  15
ATOM     12  C   UNL     1       3.209   6.504  18.435  0.00  0.00    +0.000 A 
ATOM     13  C   UNL     1       2.553   6.585  19.695  0.00  0.00    +0.000 A 
ATOM     14  C   UNL     1       1.835   7.745  20.059  0.00  0.00    +0.000 A 
ATOM     15  C   UNL     1       1.769   8.833  19.173  0.00  0.00    +0.000 A 
ATOM     16  C   UNL     1       2.458   8.753  17.960  0.00  0.00    +0.000 A 
ATOM     17  C   UNL     1       3.169   7.629  17.609  0.00  0.00    +0.000 A 
BRANCH  12  18
ATOM     18  N   UNL     1       3.863   5.297  17.977  0.00  0.00    +0.000 N 
BRANCH  18  20
ATOM     19  C   UNL     1       1.978   3.707  17.711  0.00  0.00    +0.000 C 
ATOM     20  C   UNL     1       3.348   3.978  18.346  0.00  0.00    +0.000 C 
ENDBRANCH  18  20
BRANCH  18  21
ATOM     21  C   UNL     1       5.127   5.386  17.234  0.00  0.00    +0.000 C 
ATOM     22  C   UNL     1       5.278   4.364  16.100  0.00  0.00    +0.000 C 
ENDBRANCH  18  21
ENDBRANCH  12  18
ENDBRANCH   1  15
BRANCH   6  23
ATOM     23  O   UNL     1      -4.212  10.883  14.380  0.00  0.00    +0.000 OA
ATOM     24  C   UNL     1      -3.843   9.977  13.387  0.00  0.00    +0.000 C 
ENDBRANCH   6  23
BRANCH   7  25
ATOM     25  O   UNL     1      -5.516  12.101  16.533  0.00  0.00    +0.000 OA
ATOM     26  H   UNL     1      -5.581  13.067  16.574  0.00  0.00    +0.000 HD
ENDBRANCH   7  25
TORSDOF 6
ENDMDL
MODEL 4
REMARK VINA RESULT:      -6.9      1.063      1.980
REMARK  Name = 
REMARK  9 active torsions:
REMARK  status: ('A' for Active; 'I' for Inactive)
REMARK    1  A    between atoms: C_1  and  C_2
REMARK    2  A    between atoms: C_2  and  N_3
REMARK    3  A    between atoms: N_3  and  C_4
REMARK    4  A    between atoms: N_3  and  C_6
REMARK    5  A    between atoms: C_4  and  C_5
REMARK    6  A    between atoms: C_9  and  C_10
REMARK    7  A    between atoms: C_15  and  O_16
REMARK    8  A    between atoms: O_16  and  C_17
REMARK    9  A    between atoms: C_18  and  O_19
REMARK                            x       y       z     vdW  Elec       q    Type
REMARK                         _______ _______ _______ _____ _____    ______ ____
ROOT
ATOM      1  C   UNL     1       1.445   9.603  18.918  0.00  0.00    +0.000 C 
ATOM      2  C   UNL     1       0.178   9.808  18.496  0.00  0.00    +0.000 C 
ATOM      3  C   UNL     1      -0.509   9.033  17.400  0.00  0.00    +0.000 C 
ATOM      4  C   UNL     1      -1.663   9.923  17.091  0.00  0.00    +0.000 A 
ATOM      5  C   UNL     1      -2.427   9.912  15.940  0.00  0.00    +0.000 A 
ATOM      6  C   UNL     1      -3.500  10.813  15.827  0.00  0.00    +0.000 A 
ATOM      7  C   UNL     1      -3.882  11.596  16.944  0.00  0.00    +0.000 A 
ATOM      8  C   UNL     1      -3.041  11.646  18.069  0.00  0.00    +0.000 A 
ATOM      9  C   UNL     1      -1.891  10.863  18.072  0.00  0.00    +0.000 A 
ATOM     10  C   UNL     1      -0.739  10.865  18.946  0.00  0.00    +0.000 C 
ATOM     11  O   UNL     1      -0.546  11.648  19.866  0.00  0.00    +0.000 OA
ENDROOT
BRANCH   1  15
ATOM     12  C   UNL     1       3.887   6.078  18.585  0.00  0.00    +0.000 A 
ATOM     13  C   UNL     1       3.903   7.028  17.526  0.00  0.00    +0.000 A 
ATOM     14  C   UNL     1       3.061   8.161  17.564  0.00  0.00    +0.000 A 
ATOM     15  C   UNL     1       2.196   8.353  18.654  0.00  0.00    +0.000 A 
ATOM     16  C   UNL     1       2.161   7.386  19.661  0.00  0.00    +0.000 A 
ATOM     17  C   UNL     1       2.970   6.274  19.620  0.00  0.00    +0.000 A 
BRANCH  12  18
ATOM     18  N   UNL     1       4.807   4.963  18.640  0.00  0.00    +0.000 N 
BRANCH  18  20
ATOM     19  C   UNL     1       4.062   2.696  19.315  0.00  0.00    +0.000 C 
ATOM     20  C   UNL     1       4.412   3.639  18.158  0.00  0.00    +0.000 C 
ENDBRANCH  18  20
BRANCH  18  21
ATOM     21  C   UNL     1       6.112   5.122  19.296  0.00  0.00    +0.000 C 
ATOM     22  C   UNL     1       7.198   5.761  18.420  0.00  0.00    +0.000 C 
ENDBRANCH  18  21
ENDBRANCH  12  18
ENDBRANCH   1  15
BRANCH   6  23
ATOM     23  O   UNL     1      -4.111  11.006  14.634  0.00  0.00    +0.000 OA
ATOM     24  C   UNL     1      -3.948  10.077  13.608  0.00  0.00    +0.000 C 
ENDBRANCH   6  23
BRANCH   7  25
ATOM     25  O   UNL     1      -4.996  12.353  16.919  0.00  0.00    +0.000 OA
ATOM     26  H   UNL     1      -4.956  13.321  16.924  0.00  0.00    +0.000 HD
ENDBRANCH   7  25
TORSDOF 6
ENDMDL
MODEL 5
REMARK VINA RESULT:      -6.9      7.390      9.143
REMARK  Name = 
REMARK  9 active torsions:
REMARK  status: ('A' for Active; 'I' for Inactive)
REMARK    1  A    between atoms: C_1  and  C_2
REMARK    2  A    between atoms: C_2  and  N_3
REMARK    3  A    between atoms: N_3  and  C_4
REMARK    4  A    between atoms: N_3  and  C_6
REMARK    5  A    between atoms: C_4  and  C_5
REMARK    6  A    between atoms: C_9  and  C_10
REMARK    7  A    between atoms: C_15  and  O_16
REMARK    8  A    between atoms: O_16  and  C_17
REMARK    9  A    between atoms: C_18  and  O_19
REMARK                            x       y       z     vdW  Elec       q    Type
REMARK                         _______ _______ _______ _____ _____    ______ ____
ROOT
ATOM      1  C   UNL     1       6.732   5.870  17.109  0.00  0.00    +0.000 C 
ATOM      2  C   UNL     1       5.525   5.357  17.434  0.00  0.00    +0.000 C 
ATOM      3  C   UNL     1       4.784   5.626  18.720  0.00  0.00    +0.000 C 
ATOM      4  C   UNL     1       3.780   4.526  18.715  0.00  0.00    +0.000 A 
ATOM      5  C   UNL     1       3.071   4.051  19.803  0.00  0.00    +0.000 A 
ATOM      6  C   UNL     1       2.140   3.017  19.608  0.00  0.00    +0.000 A 
ATOM      7  C   UNL     1       1.823   2.591  18.295  0.00  0.00    +0.000 A 
ATOM      8  C   UNL     1       2.614   3.033  17.220  0.00  0.00    +0.000 A 
ATOM      9  C   UNL     1       3.643   3.932  17.479  0.00  0.00    +0.000 A 
ATOM     10  C   UNL     1       4.745   4.382  16.658  0.00  0.00    +0.000 C 
ATOM     11  O   UNL     1       5.006   3.977  15.534  0.00  0.00    +0.000 OA
ENDROOT
BRANCH   1  15
ATOM     12  C   UNL     1       8.654   9.424  18.584  0.00  0.00    +0.000 A 
ATOM     13  C   UNL     1       8.896   8.187  19.243  0.00  0.00    +0.000 A 
ATOM     14  C   UNL     1       8.227   7.012  18.836  0.00  0.00    +0.000 A 
ATOM     15  C   UNL     1       7.312   7.061  17.772  0.00  0.00    +0.000 A 
ATOM     16  C   UNL     1       7.053   8.294  17.167  0.00  0.00    +0.000 A 
ATOM     17  C   UNL     1       7.693   9.443  17.570  0.00  0.00    +0.000 A 
BRANCH  12  18
ATOM     18  N   UNL     1       9.395  10.627  18.896  0.00  0.00    +0.000 N 
BRANCH  18  20
ATOM     19  C   UNL     1       9.286  12.015  20.948  0.00  0.00    +0.000 C 
ATOM     20  C   UNL     1       9.957  10.838  20.230  0.00  0.00    +0.000 C 
ENDBRANCH  18  20
BRANCH  18  21
ATOM     21  C   UNL     1       9.485  11.709  17.906  0.00  0.00    +0.000 C 
ATOM     22  C   UNL     1      10.915  12.084  17.493  0.00  0.00    +0.000 C 
ENDBRANCH  18  21
ENDBRANCH  12  18
ENDBRANCH   1  15
BRANCH   6  23
ATOM     23  O   UNL     1       1.614   2.360  20.669  0.00  0.00    +0.000 OA
ATOM     24  C   UNL     1       1.864   2.811  21.964  0.00  0.00    +0.000 C 
ENDBRANCH   6  23
BRANCH   7  25
ATOM     25  O   UNL     1       0.827   1.714  18.065  0.00  0.00    +0.000 OA
ATOM     26  H   UNL     1       0.539   1.081  18.739  0.00  0.00    +0.000 HD
ENDBRANCH   7  25
TORSDOF 6
ENDMDL
MODEL 6
REMARK VINA RESULT:      -6.9      0.983      1.502
REMARK  Name = 
REMARK  9 active torsions:
REMARK  status: ('A' for Active; 'I' for Inactive)
REMARK    1  A    between atoms: C_1  and  C_2
REMARK    2  A    between atoms: C_2  and  N_3
REMARK    3  A    between atoms: N_3  and  C_4
REMARK    4  A    between atoms: N_3  and  C_6
REMARK    5  A    between atoms: C_4  and  C_5
REMARK    6  A    between atoms: C_9  and  C_10
REMARK    7  A    between atoms: C_15  and  O_16
REMARK    8  A    between atoms: O_16  and  C_17
REMARK    9  A    between atoms: C_18  and  O_19
REMARK                            x       y       z     vdW  Elec       q    Type
REMARK                         _______ _______ _______ _____ _____    ______ ____
ROOT
ATOM      1  C   UNL     1       1.415   9.616  18.918  0.00  0.00    +0.000 C 
ATOM      2  C   UNL     1       0.143   9.805  18.507  0.00  0.00    +0.000 C 
ATOM      3  C   UNL     1      -0.529   9.053  17.385  0.00  0.00    +0.000 C 
ATOM      4  C   UNL     1      -1.705   9.925  17.110  0.00  0.00    +0.000 A 
ATOM      5  C   UNL     1      -2.472   9.937  15.961  0.00  0.00    +0.000 A 
ATOM      6  C   UNL     1      -3.566  10.816  15.882  0.00  0.00    +0.000 A 
ATOM      7  C   UNL     1      -3.964  11.550  17.026  0.00  0.00    +0.000 A 
ATOM      8  C   UNL     1      -3.121  11.580  18.151  0.00  0.00    +0.000 A 
ATOM      9  C   UNL     1      -1.952  10.825  18.124  0.00  0.00    +0.000 A 
ATOM     10  C   UNL     1      -0.798  10.823  18.996  0.00  0.00    +0.000 C 
ATOM     11  O   UNL     1      -0.621  11.578  19.942  0.00  0.00    +0.000 OA
ENDROOT
BRANCH   1  15
ATOM     12  C   UNL     1       3.935   6.161  18.459  0.00  0.00    +0.000 A 
ATOM     13  C   UNL     1       3.937   7.154  17.440  0.00  0.00    +0.000 A 
ATOM     14  C   UNL     1       3.071   8.266  17.518  0.00  0.00    +0.000 A 
ATOM     15  C   UNL     1       2.194   8.394  18.608  0.00  0.00    +0.000 A 
ATOM     16  C   UNL     1       2.173   7.385  19.575  0.00  0.00    +0.000 A 
ATOM     17  C   UNL     1       3.007   6.294  19.495  0.00  0.00    +0.000 A 
BRANCH  12  18
ATOM     18  N   UNL     1       4.879   5.064  18.475  0.00  0.00    +0.000 N 
BRANCH  18  20
ATOM     19  C   UNL     1       7.267   5.726  18.571  0.00  0.00    +0.000 C 
ATOM     20  C   UNL     1       6.074   5.115  19.317  0.00  0.00    +0.000 C 
ENDBRANCH  18  20
BRANCH  18  21
ATOM     21  C   UNL     1       4.707   3.936  17.549  0.00  0.00    +0.000 C 
ATOM     22  C   UNL     1       3.260   3.452  17.389  0.00  0.00    +0.000 C 
ENDBRANCH  18  21
ENDBRANCH  12  18
ENDBRANCH   1  15
BRANCH   6  23
ATOM     23  O   UNL     1      -4.185  11.036  14.698  0.00  0.00    +0.000 OA
ATOM     24  C   UNL     1      -3.975  10.168  13.628  0.00  0.00    +0.000 C 
ENDBRANCH   6  23
BRANCH   7  25
ATOM     25  O   UNL     1      -5.095  12.280  17.031  0.00  0.00    +0.000 OA
ATOM     26  H   UNL     1      -5.508  12.587  16.210  0.00  0.00    +0.000 HD
ENDBRANCH   7  25
TORSDOF 6
ENDMDL
MODEL 7
REMARK VINA RESULT:      -6.8      2.886      3.848
REMARK  Name = 
REMARK  9 active torsions:
REMARK  status: ('A' for Active; 'I' for Inactive)
REMARK    1  A    between atoms: C_1  and  C_2
REMARK    2  A    between atoms: C_2  and  N_3
REMARK    3  A    between atoms: N_3  and  C_4
REMARK    4  A    between atoms: N_3  and  C_6
REMARK    5  A    between atoms: C_4  and  C_5
REMARK    6  A    between atoms: C_9  and  C_10
REMARK    7  A    between atoms: C_15  and  O_16
REMARK    8  A    between atoms: O_16  and  C_17
REMARK    9  A    between atoms: C_18  and  O_19
REMARK                            x       y       z     vdW  Elec       q    Type
REMARK                         _______ _______ _______ _____ _____    ______ ____
ROOT
ATOM      1  C   UNL     1       2.329   9.009  18.157  0.00  0.00    +0.000 C 
ATOM      2  C   UNL     1       1.579   9.972  18.737  0.00  0.00    +0.000 C 
ATOM      3  C   UNL     1       0.401   9.727  19.647  0.00  0.00    +0.000 C 
ATOM      4  C   UNL     1      -0.260  11.061  19.636  0.00  0.00    +0.000 A 
ATOM      5  C   UNL     1      -1.566  11.337  19.994  0.00  0.00    +0.000 A 
ATOM      6  C   UNL     1      -2.019  12.666  19.945  0.00  0.00    +0.000 A 
ATOM      7  C   UNL     1      -1.100  13.715  19.693  0.00  0.00    +0.000 A 
ATOM      8  C   UNL     1       0.198  13.400  19.255  0.00  0.00    +0.000 A 
ATOM      9  C   UNL     1       0.557  12.060  19.151  0.00  0.00    +0.000 A 
ATOM     10  C   UNL     1       1.698  11.423  18.531  0.00  0.00    +0.000 C 
ATOM     11  O   UNL     1       2.576  11.996  17.902  0.00  0.00    +0.000 OA
ENDROOT
BRANCH   1  15
ATOM     12  C   UNL     1       2.000   4.864  19.254  0.00  0.00    +0.000 A 
ATOM     13  C   UNL     1       1.955   5.852  20.277  0.00  0.00    +0.000 A 
ATOM     14  C   UNL     1       2.133   7.217  19.966  0.00  0.00    +0.000 A 
ATOM     15  C   UNL     1       2.360   7.608  18.636  0.00  0.00    +0.000 A 
ATOM     16  C   UNL     1       2.446   6.619  17.652  0.00  0.00    +0.000 A 
ATOM     17  C   UNL     1       2.287   5.287  17.954  0.00  0.00    +0.000 A 
BRANCH  12  18
ATOM     18  N   UNL     1       1.716   3.468  19.511  0.00  0.00    +0.000 N 
BRANCH  18  20
ATOM     19  C   UNL     1       3.144   1.790  18.374  0.00  0.00    +0.000 C 
ATOM     20  C   UNL     1       1.776   2.480  18.434  0.00  0.00    +0.000 C 
ENDBRANCH  18  20
BRANCH  18  21
ATOM     21  C   UNL     1       1.243   3.049  20.837  0.00  0.00    +0.000 C 
ATOM     22  C   UNL     1       2.353   2.638  21.814  0.00  0.00    +0.000 C 
ENDBRANCH  18  21
ENDBRANCH  12  18
ENDBRANCH   1  15
BRANCH   6  23
ATOM     23  O   UNL     1      -3.340  12.945  20.044  0.00  0.00    +0.000 OA
ATOM     24  C   UNL     1      -4.265  12.219  19.296  0.00  0.00    +0.000 C 
ENDBRANCH   6  23
BRANCH   7  25
ATOM     25  O   UNL     1      -1.468  15.007  19.791  0.00  0.00    +0.000 OA
ATOM     26  H   UNL     1      -1.634  15.551  19.007  0.00  0.00    +0.000 HD
ENDBRANCH   7  25
TORSDOF 6
ENDMDL
MODEL 8
REMARK VINA RESULT:      -6.7      0.914      1.006
REMARK  Name = 
REMARK  9 active torsions:
REMARK  status: ('A' for Active; 'I' for Inactive)
REMARK    1  A    between atoms: C_1  and  C_2
REMARK    2  A    between atoms: C_2  and  N_3
REMARK    3  A    between atoms: N_3  and  C_4
REMARK    4  A    between atoms: N_3  and  C_6
REMARK    5  A    between atoms: C_4  and  C_5
REMARK    6  A    between atoms: C_9  and  C_10
REMARK    7  A    between atoms: C_15  and  O_16
REMARK    8  A    between atoms: O_16  and  C_17
REMARK    9  A    between atoms: C_18  and  O_19
REMARK                            x       y       z     vdW  Elec       q    Type
REMARK                         _______ _______ _______ _____ _____    ______ ____
ROOT
ATOM      1  C   UNL     1       1.729   9.695  18.812  0.00  0.00    +0.000 C 
ATOM      2  C   UNL     1       0.431   9.885  18.494  0.00  0.00    +0.000 C 
ATOM      3  C   UNL     1      -0.394   8.970  17.623  0.00  0.00    +0.000 C 
ATOM      4  C   UNL     1      -1.549   9.848  17.286  0.00  0.00    +0.000 A 
ATOM      5  C   UNL     1      -2.434   9.680  16.238  0.00  0.00    +0.000 A 
ATOM      6  C   UNL     1      -3.486  10.598  16.083  0.00  0.00    +0.000 A 
ATOM      7  C   UNL     1      -3.723  11.575  17.082  0.00  0.00    +0.000 A 
ATOM      8  C   UNL     1      -2.763  11.773  18.090  0.00  0.00    +0.000 A 
ATOM      9  C   UNL     1      -1.642  10.949  18.110  0.00  0.00    +0.000 A 
ATOM     10  C   UNL     1      -0.402  11.044  18.848  0.00  0.00    +0.000 C 
ATOM     11  O   UNL     1      -0.088  11.960  19.594  0.00  0.00    +0.000 OA
ENDROOT
BRANCH   1  15
ATOM     12  C   UNL     1       3.463   5.842  18.006  0.00  0.00    +0.000 A 
ATOM     13  C   UNL     1       2.692   6.016  19.189  0.00  0.00    +0.000 A 
ATOM     14  C   UNL     1       2.168   7.283  19.526  0.00  0.00    +0.000 A 
ATOM     15  C   UNL     1       2.411   8.385  18.691  0.00  0.00    +0.000 A 
ATOM     16  C   UNL     1       3.209   8.205  17.558  0.00  0.00    +0.000 A 
ATOM     17  C   UNL     1       3.732   6.975  17.233  0.00  0.00    +0.000 A 
BRANCH  12  18
ATOM     18  N   UNL     1       3.927   4.544  17.565  0.00  0.00    +0.000 N 
BRANCH  18  20
ATOM     19  C   UNL     1       5.626   4.177  15.796  0.00  0.00    +0.000 C 
ATOM     20  C   UNL     1       5.346   4.305  17.299  0.00  0.00    +0.000 C 
ENDBRANCH  18  20
BRANCH  18  21
ATOM     21  C   UNL     1       2.957   3.483  17.264  0.00  0.00    +0.000 C 
ATOM     22  C   UNL     1       2.965   2.307  18.249  0.00  0.00    +0.000 C 
ENDBRANCH  18  21
ENDBRANCH  12  18
ENDBRANCH   1  15
BRANCH   6  23
ATOM     23  O   UNL     1      -4.218  10.617  14.944  0.00  0.00    +0.000 OA
ATOM     24  C   UNL     1      -3.706  10.052  13.777  0.00  0.00    +0.000 C 
ENDBRANCH   6  23
BRANCH   7  25
ATOM     25  O   UNL     1      -4.811  12.367  17.042  0.00  0.00    +0.000 OA
ATOM     26  H   UNL     1      -5.221  12.629  16.205  0.00  0.00    +0.000 HD
ENDBRANCH   7  25
TORSDOF 6
ENDMDL
MODEL 9
REMARK VINA RESULT:      -6.7      3.334      4.288
REMARK  Name = 
REMARK  9 active torsions:
REMARK  status: ('A' for Active; 'I' for Inactive)
REMARK    1  A    between atoms: C_1  and  C_2
REMARK    2  A    between atoms: C_2  and  N_3
REMARK    3  A    between atoms: N_3  and  C_4
REMARK    4  A    between atoms: N_3  and  C_6
REMARK    5  A    between atoms: C_4  and  C_5
REMARK    6  A    between atoms: C_9  and  C_10
REMARK    7  A    between atoms: C_15  and  O_16
REMARK    8  A    between atoms: O_16  and  C_17
REMARK    9  A    between atoms: C_18  and  O_19
REMARK                            x       y       z     vdW  Elec       q    Type
REMARK                         _______ _______ _______ _____ _____    ______ ____
ROOT
ATOM      1  C   UNL     1       1.530   8.323  21.613  0.00  0.00    +0.000 C 
ATOM      2  C   UNL     1       0.467   9.152  21.695  0.00  0.00    +0.000 C 
ATOM      3  C   UNL     1      -0.359   9.625  20.525  0.00  0.00    +0.000 C 
ATOM      4  C   UNL     1      -1.078  10.784  21.123  0.00  0.00    +0.000 A 
ATOM      5  C   UNL     1      -1.691  11.816  20.438  0.00  0.00    +0.000 A 
ATOM      6  C   UNL     1      -2.347  12.822  21.169  0.00  0.00    +0.000 A 
ATOM      7  C   UNL     1      -2.512  12.682  22.568  0.00  0.00    +0.000 A 
ATOM      8  C   UNL     1      -1.811  11.669  23.245  0.00  0.00    +0.000 A 
ATOM      9  C   UNL     1      -1.030  10.791  22.500  0.00  0.00    +0.000 A 
ATOM     10  C   UNL     1      -0.037   9.820  22.903  0.00  0.00    +0.000 C 
ATOM     11  O   UNL     1       0.349   9.632  24.049  0.00  0.00    +0.000 OA
ENDROOT
BRANCH   1  15
ATOM     12  C   UNL     1       2.691   5.609  18.484  0.00  0.00    +0.000 A 
ATOM     13  C   UNL     1       2.654   7.004  18.207  0.00  0.00    +0.000 A 
ATOM     14  C   UNL     1       2.208   7.920  19.184  0.00  0.00    +0.000 A 
ATOM     15  C   UNL     1       1.793   7.454  20.442  0.00  0.00    +0.000 A 
ATOM     16  C   UNL     1       1.792   6.077  20.680  0.00  0.00    +0.000 A 
ATOM     17  C   UNL     1       2.213   5.181  19.725  0.00  0.00    +0.000 A 
BRANCH  12  18
ATOM     18  N   UNL     1       3.240   4.647  17.554  0.00  0.00    +0.000 N 
BRANCH  18  20
ATOM     19  C   UNL     1       5.704   4.801  17.789  0.00  0.00    +0.000 C 
ATOM     20  C   UNL     1       4.496   4.915  16.852  0.00  0.00    +0.000 C 
ENDBRANCH  18  20
BRANCH  18  21
ATOM     21  C   UNL     1       2.476   3.440  17.212  0.00  0.00    +0.000 C 
ATOM     22  C   UNL     1       3.016   2.142  17.829  0.00  0.00    +0.000 C 
ENDBRANCH  18  21
ENDBRANCH  12  18
ENDBRANCH   1  15
BRANCH   6  23
ATOM     23  O   UNL     1      -2.740  13.966  20.560  0.00  0.00    +0.000 OA
ATOM     24  C   UNL     1      -4.095  14.218  20.355  0.00  0.00    +0.000 C 
ENDBRANCH   6  23
BRANCH   7  25
ATOM     25  O   UNL     1      -3.267  13.546  23.274  0.00  0.00    +0.000 OA
ATOM     26  H   UNL     1      -2.981  14.457  23.438  0.00  0.00    +0.000 HD
ENDBRANCH   7  25
TORSDOF 6
ENDMDL
