MODEL 1
REMARK VINA RESULT:      -8.0      0.000      0.000
REMARK  Name = 
REMARK  4 active torsions:
REMARK  status: ('A' for Active; 'I' for Inactive)
REMARK    1  A    between atoms: C_1  and  O_2
REMARK    2  A    between atoms: O_2  and  C_3
REMARK    3  A    between atoms: C_10  and  C_11
REMARK    4  A    between atoms: C_12  and  C_13
REMARK                            x       y       z     vdW  Elec       q    Type
REMARK                         _______ _______ _______ _____ _____    ______ ____
ROOT
ATOM      1  C   UNL     1       1.457   8.921  19.586  0.00  0.00    +0.000 A 
ATOM      2  C   UNL     1       1.125   8.269  20.771  0.00  0.00    +0.000 A 
ATOM      3  C   UNL     1       1.507   6.944  20.964  0.00  0.00    +0.000 A 
ATOM      4  C   UNL     1       2.208   6.243  19.994  0.00  0.00    +0.000 A 
ATOM      5  N   UNL     1       2.680   5.028  20.307  0.00  0.00    +0.000 NA
ATOM      6  C   UNL     1       3.348   4.357  19.338  0.00  0.00    +0.000 A 
ATOM      7 CL   UNL     1       4.115   2.935  19.944  0.00  0.00    +0.000 Cl
ATOM      8  C   UNL     1       3.501   4.794  18.028  0.00  0.00    +0.000 A 
ATOM      9  C   UNL     1       3.029   6.076  17.736  0.00  0.00    +0.000 A 
ATOM     10  C   UNL     1       2.415   6.848  18.739  0.00  0.00    +0.000 A 
ATOM     11  C   UNL     1       2.037   8.192  18.546  0.00  0.00    +0.000 A 
ENDROOT
BRANCH   1  13
ATOM     12  C   UNL     1      -0.057  10.554  18.856  0.00  0.00    +0.000 C 
ATOM     13  O   UNL     1       1.245  10.252  19.365  0.00  0.00    +0.000 OA
ENDBRANCH   1  13
BRANCH   8  14
ATOM     14  C   UNL     1       4.116   3.974  16.970  0.00  0.00    +0.000 C 
ATOM     15  C   UNL     1       5.390   4.101  16.556  0.00  0.00    +0.000 C 
BRANCH  15  16
ATOM     16  C   UNL     1       6.347   5.054  17.124  0.00  0.00    +0.000 A 
ATOM     17  C   UNL     1       7.047   4.731  18.293  0.00  0.00    +0.000 A 
ATOM     18  C   UNL     1       7.867   5.682  18.904  0.00  0.00    +0.000 A 
ATOM     19  C   UNL     1       7.987   6.948  18.341  0.00  0.00    +0.000 A 
ATOM     20  F   UNL     1       8.742   7.871  18.950  0.00  0.00    +0.000 F 
ATOM     21  C   UNL     1       7.329   7.272  17.161  0.00  0.00    +0.000 A 
ATOM     22  C   UNL     1       6.514   6.320  16.545  0.00  0.00    +0.000 A 
ENDBRANCH  15  16
ENDBRANCH   8  14
TORSDOF 3
ENDMDL
MODEL 2
REMARK VINA RESULT:      -7.7      1.233      1.853
REMARK  Name = 
REMARK  4 active torsions:
REMARK  status: ('A' for Active; 'I' for Inactive)
REMARK    1  A    between atoms: C_1  and  O_2
REMARK    2  A    between atoms: O_2  and  C_3
REMARK    3  A    between atoms: C_10  and  C_11
REMARK    4  A    between atoms: C_12  and  C_13
REMARK                            x       y       z     vdW  Elec       q    Type
REMARK                         _______ _______ _______ _____ _____    ______ ____
ROOT
ATOM      1  C   UNL     1       1.268  10.517  19.137  0.00  0.00    +0.000 A 
ATOM      2  C   UNL     1       0.858  10.190  20.427  0.00  0.00    +0.000 A 
ATOM      3  C   UNL     1       1.010   8.887  20.894  0.00  0.00    +0.000 A 
ATOM      4  C   UNL     1       1.556   7.891  20.097  0.00  0.00    +0.000 A 
ATOM      5  N   UNL     1       1.819   6.703  20.659  0.00  0.00    +0.000 NA
ATOM      6  C   UNL     1       2.338   5.742  19.858  0.00  0.00    +0.000 A 
ATOM      7 CL   UNL     1       2.863   4.364  20.753  0.00  0.00    +0.000 Cl
ATOM      8  C   UNL     1       2.532   5.867  18.488  0.00  0.00    +0.000 A 
ATOM      9  C   UNL     1       2.281   7.124  17.932  0.00  0.00    +0.000 A 
ATOM     10  C   UNL     1       1.833   8.180  18.747  0.00  0.00    +0.000 A 
ATOM     11  C   UNL     1       1.688   9.501  18.276  0.00  0.00    +0.000 A 
ENDROOT
BRANCH   1  13
ATOM     12  C   UNL     1       1.306  12.803  19.654  0.00  0.00    +0.000 C 
ATOM     13  O   UNL     1       1.283  11.791  18.643  0.00  0.00    +0.000 OA
ENDBRANCH   1  13
BRANCH   8  14
ATOM     14  C   UNL     1       2.970   4.753  17.629  0.00  0.00    +0.000 C 
ATOM     15  C   UNL     1       4.250   4.520  17.283  0.00  0.00    +0.000 C 
BRANCH  15  16
ATOM     16  C   UNL     1       5.384   5.328  17.741  0.00  0.00    +0.000 A 
ATOM     17  C   UNL     1       5.843   6.396  16.960  0.00  0.00    +0.000 A 
ATOM     18  C   UNL     1       6.996   7.090  17.331  0.00  0.00    +0.000 A 
ATOM     19  C   UNL     1       7.681   6.718  18.483  0.00  0.00    +0.000 A 
ATOM     20  F   UNL     1       8.809   7.358  18.815  0.00  0.00    +0.000 F 
ATOM     21  C   UNL     1       7.217   5.684  19.288  0.00  0.00    +0.000 A 
ATOM     22  C   UNL     1       6.061   4.994  18.922  0.00  0.00    +0.000 A 
ENDBRANCH  15  16
ENDBRANCH   8  14
TORSDOF 3
ENDMDL
MODEL 3
REMARK VINA RESULT:      -7.6      1.026      1.133
REMARK  Name = 
REMARK  4 active torsions:
REMARK  status: ('A' for Active; 'I' for Inactive)
REMARK    1  A    between atoms: C_1  and  O_2
REMARK    2  A    between atoms: O_2  and  C_3
REMARK    3  A    between atoms: C_10  and  C_11
REMARK    4  A    between atoms: C_12  and  C_13
REMARK                            x       y       z     vdW  Elec       q    Type
REMARK                         _______ _______ _______ _____ _____    ______ ____
ROOT
ATOM      1  C   UNL     1       1.726  10.069  18.743  0.00  0.00    +0.000 A 
ATOM      2  C   UNL     1       1.212   9.746  19.996  0.00  0.00    +0.000 A 
ATOM      3  C   UNL     1       1.309   8.441  20.470  0.00  0.00    +0.000 A 
ATOM      4  C   UNL     1       1.902   7.438  19.717  0.00  0.00    +0.000 A 
ATOM      5  N   UNL     1       2.104   6.246  20.296  0.00  0.00    +0.000 NA
ATOM      6  C   UNL     1       2.671   5.279  19.535  0.00  0.00    +0.000 A 
ATOM      7 CL   UNL     1       3.106   3.893  20.466  0.00  0.00    +0.000 Cl
ATOM      8  C   UNL     1       2.974   5.403  18.185  0.00  0.00    +0.000 A 
ATOM      9  C   UNL     1       2.785   6.664  17.614  0.00  0.00    +0.000 A 
ATOM     10  C   UNL     1       2.289   7.725  18.393  0.00  0.00    +0.000 A 
ATOM     11  C   UNL     1       2.199   9.048  17.916  0.00  0.00    +0.000 A 
ENDROOT
BRANCH   1  13
ATOM     12  C   UNL     1       1.273  12.334  19.144  0.00  0.00    +0.000 C 
ATOM     13  O   UNL     1       1.797  11.343  18.255  0.00  0.00    +0.000 OA
ENDBRANCH   1  13
BRANCH   8  14
ATOM     14  C   UNL     1       3.464   4.284  17.361  0.00  0.00    +0.000 C 
ATOM     15  C   UNL     1       4.753   4.100  17.021  0.00  0.00    +0.000 C 
BRANCH  15  16
ATOM     16  C   UNL     1       5.848   4.974  17.450  0.00  0.00    +0.000 A 
ATOM     17  C   UNL     1       6.426   4.802  18.715  0.00  0.00    +0.000 A 
ATOM     18  C   UNL     1       7.385   5.707  19.175  0.00  0.00    +0.000 A 
ATOM     19  C   UNL     1       7.765   6.774  18.369  0.00  0.00    +0.000 A 
ATOM     20  F   UNL     1       8.655   7.663  18.828  0.00  0.00    +0.000 F 
ATOM     21  C   UNL     1       7.229   6.936  17.097  0.00  0.00    +0.000 A 
ATOM     22  C   UNL     1       6.275   6.029  16.632  0.00  0.00    +0.000 A 
ENDBRANCH  15  16
ENDBRANCH   8  14
TORSDOF 3
ENDMDL
MODEL 4
REMARK VINA RESULT:      -7.6      4.346      7.015
REMARK  Name = 
REMARK  4 active torsions:
REMARK  status: ('A' for Active; 'I' for Inactive)
REMARK    1  A    between atoms: C_1  and  O_2
REMARK    2  A    between atoms: O_2  and  C_3
REMARK    3  A    between atoms: C_10  and  C_11
REMARK    4  A    between atoms: C_12  and  C_13
REMARK                            x       y       z     vdW  Elec       q    Type
REMARK                         _______ _______ _______ _____ _____    ______ ____
ROOT
ATOM      1  C   UNL     1       5.925   3.511  12.620  0.00  0.00    +0.000 A 
ATOM      2  C   UNL     1       7.268   3.881  12.611  0.00  0.00    +0.000 A 
ATOM      3  C   UNL     1       7.767   4.703  13.617  0.00  0.00    +0.000 A 
ATOM      4  C   UNL     1       6.954   5.179  14.636  0.00  0.00    +0.000 A 
ATOM      5  N   UNL     1       7.530   5.832  15.654  0.00  0.00    +0.000 NA
ATOM      6  C   UNL     1       6.713   6.299  16.629  0.00  0.00    +0.000 A 
ATOM      7 CL   UNL     1       7.596   6.886  17.990  0.00  0.00    +0.000 Cl
ATOM      8  C   UNL     1       5.325   6.230  16.606  0.00  0.00    +0.000 A 
ATOM      9  C   UNL     1       4.751   5.516  15.551  0.00  0.00    +0.000 A 
ATOM     10  C   UNL     1       5.569   4.930  14.567  0.00  0.00    +0.000 A 
ATOM     11  C   UNL     1       5.064   4.090  13.554  0.00  0.00    +0.000 A 
ENDROOT
BRANCH   1  13
ATOM     12  C   UNL     1       4.142   3.026  11.178  0.00  0.00    +0.000 C 
ATOM     13  O   UNL     1       5.380   2.603  11.756  0.00  0.00    +0.000 OA
ENDBRANCH   1  13
BRANCH   8  14
ATOM     14  C   UNL     1       4.468   6.870  17.618  0.00  0.00    +0.000 C 
ATOM     15  C   UNL     1       3.682   6.200  18.481  0.00  0.00    +0.000 C 
BRANCH  15  16
ATOM     16  C   UNL     1       3.597   4.738  18.548  0.00  0.00    +0.000 A 
ATOM     17  C   UNL     1       4.499   4.020  19.343  0.00  0.00    +0.000 A 
ATOM     18  C   UNL     1       4.499   2.624  19.316  0.00  0.00    +0.000 A 
ATOM     19  C   UNL     1       3.597   1.953  18.498  0.00  0.00    +0.000 A 
ATOM     20  F   UNL     1       3.625   0.616  18.443  0.00  0.00    +0.000 F 
ATOM     21  C   UNL     1       2.671   2.651  17.732  0.00  0.00    +0.000 A 
ATOM     22  C   UNL     1       2.664   4.046  17.763  0.00  0.00    +0.000 A 
ENDBRANCH  15  16
ENDBRANCH   8  14
TORSDOF 3
ENDMDL
MODEL 5
REMARK VINA RESULT:      -7.5      0.524      1.157
REMARK  Name = 
REMARK  4 active torsions:
REMARK  status: ('A' for Active; 'I' for Inactive)
REMARK    1  A    between atoms: C_1  and  O_2
REMARK    2  A    between atoms: O_2  and  C_3
REMARK    3  A    between atoms: C_10  and  C_11
REMARK    4  A    between atoms: C_12  and  C_13
REMARK                            x       y       z     vdW  Elec       q    Type
REMARK                         _______ _______ _______ _____ _____    ______ ____
ROOT
ATOM      1  C   UNL     1       1.403   8.461  19.937  0.00  0.00    +0.000 A 
ATOM      2  C   UNL     1       0.948   7.632  20.958  0.00  0.00    +0.000 A 
ATOM      3  C   UNL     1       1.357   6.302  21.007  0.00  0.00    +0.000 A 
ATOM      4  C   UNL     1       2.209   5.770  20.050  0.00  0.00    +0.000 A 
ATOM      5  N   UNL     1       2.687   4.534  20.244  0.00  0.00    +0.000 NA
ATOM      6  C   UNL     1       3.505   4.030  19.288  0.00  0.00    +0.000 A 
ATOM      7 CL   UNL     1       4.246   2.552  19.780  0.00  0.00    +0.000 Cl
ATOM      8  C   UNL     1       3.810   4.662  18.088  0.00  0.00    +0.000 A 
ATOM      9  C   UNL     1       3.326   5.963  17.925  0.00  0.00    +0.000 A 
ATOM     10  C   UNL     1       2.553   6.561  18.936  0.00  0.00    +0.000 A 
ATOM     11  C   UNL     1       2.146   7.910  18.891  0.00  0.00    +0.000 A 
ENDROOT
BRANCH   1  13
ATOM     12  C   UNL     1       0.435  10.219  18.726  0.00  0.00    +0.000 C 
ATOM     13  O   UNL     1       1.166   9.805  19.885  0.00  0.00    +0.000 OA
ENDBRANCH   1  13
BRANCH   8  14
ATOM     14  C   UNL     1       4.594   4.024  17.016  0.00  0.00    +0.000 C 
ATOM     15  C   UNL     1       5.840   4.391  16.667  0.00  0.00    +0.000 C 
BRANCH  15  16
ATOM     16  C   UNL     1       6.598   5.457  17.328  0.00  0.00    +0.000 A 
ATOM     17  C   UNL     1       6.702   6.718  16.727  0.00  0.00    +0.000 A 
ATOM     18  C   UNL     1       7.522   7.697  17.292  0.00  0.00    +0.000 A 
ATOM     19  C   UNL     1       8.229   7.414  18.455  0.00  0.00    +0.000 A 
ATOM     20  F   UNL     1       9.045   8.340  18.973  0.00  0.00    +0.000 F 
ATOM     21  C   UNL     1       8.107   6.180  19.084  0.00  0.00    +0.000 A 
ATOM     22  C   UNL     1       7.283   5.203  18.524  0.00  0.00    +0.000 A 
ENDBRANCH  15  16
ENDBRANCH   8  14
TORSDOF 3
ENDMDL
MODEL 6
REMARK VINA RESULT:      -7.5      1.327      1.796
REMARK  Name = 
REMARK  4 active torsions:
REMARK  status: ('A' for Active; 'I' for Inactive)
REMARK    1  A    between atoms: C_1  and  O_2
REMARK    2  A    between atoms: O_2  and  C_3
REMARK    3  A    between atoms: C_10  and  C_11
REMARK    4  A    between atoms: C_12  and  C_13
REMARK                            x       y       z     vdW  Elec       q    Type
REMARK                         _______ _______ _______ _____ _____    ______ ____
ROOT
ATOM      1  C   UNL     1       1.706   7.423  20.300  0.00  0.00    +0.000 A 
ATOM      2  C   UNL     1       1.024   6.390  20.937  0.00  0.00    +0.000 A 
ATOM      3  C   UNL     1       1.247   5.070  20.553  0.00  0.00    +0.000 A 
ATOM      4  C   UNL     1       2.134   4.751  19.535  0.00  0.00    +0.000 A 
ATOM      5  N   UNL     1       2.420   3.460  19.325  0.00  0.00    +0.000 NA
ATOM      6  C   UNL     1       3.277   3.173  18.315  0.00  0.00    +0.000 A 
ATOM      7 CL   UNL     1       3.753   1.515  18.319  0.00  0.00    +0.000 Cl
ATOM      8  C   UNL     1       3.807   4.106  17.432  0.00  0.00    +0.000 A 
ATOM      9  C   UNL     1       3.521   5.448  17.693  0.00  0.00    +0.000 A 
ATOM     10  C   UNL     1       2.713   5.798  18.790  0.00  0.00    +0.000 A 
ATOM     11  C   UNL     1       2.494   7.133  19.184  0.00  0.00    +0.000 A 
ENDROOT
BRANCH   1  13
ATOM     12  C   UNL     1       1.100   8.914  22.004  0.00  0.00    +0.000 C 
ATOM     13  O   UNL     1       1.653   8.729  20.697  0.00  0.00    +0.000 OA
ENDBRANCH   1  13
BRANCH   8  14
ATOM     14  C   UNL     1       4.627   3.738  16.265  0.00  0.00    +0.000 C 
ATOM     15  C   UNL     1       5.850   4.237  16.009  0.00  0.00    +0.000 C 
BRANCH  15  16
ATOM     16  C   UNL     1       6.544   5.194  16.876  0.00  0.00    +0.000 A 
ATOM     17  C   UNL     1       6.608   6.546  16.516  0.00  0.00    +0.000 A 
ATOM     18  C   UNL     1       7.370   7.437  17.274  0.00  0.00    +0.000 A 
ATOM     19  C   UNL     1       8.059   6.975  18.391  0.00  0.00    +0.000 A 
ATOM     20  F   UNL     1       8.820   7.822  19.093  0.00  0.00    +0.000 F 
ATOM     21  C   UNL     1       7.975   5.644  18.782  0.00  0.00    +0.000 A 
ATOM     22  C   UNL     1       7.208   4.753  18.029  0.00  0.00    +0.000 A 
ENDBRANCH  15  16
ENDBRANCH   8  14
TORSDOF 3
ENDMDL
MODEL 7
REMARK VINA RESULT:      -7.5      1.280      1.476
REMARK  Name = 
REMARK  4 active torsions:
REMARK  status: ('A' for Active; 'I' for Inactive)
REMARK    1  A    between atoms: C_1  and  O_2
REMARK    2  A    between atoms: O_2  and  C_3
REMARK    3  A    between atoms: C_10  and  C_11
REMARK    4  A    between atoms: C_12  and  C_13
REMARK                            x       y       z     vdW  Elec       q    Type
REMARK                         _______ _______ _______ _____ _____    ______ ____
ROOT
ATOM      1  C   UNL     1       1.853   7.353  20.216  0.00  0.00    +0.000 A 
ATOM      2  C   UNL     1       1.271   6.328  20.957  0.00  0.00    +0.000 A 
ATOM      3  C   UNL     1       1.515   5.000  20.617  0.00  0.00    +0.000 A 
ATOM      4  C   UNL     1       2.323   4.665  19.540  0.00  0.00    +0.000 A 
ATOM      5  N   UNL     1       2.642   3.375  19.365  0.00  0.00    +0.000 NA
ATOM      6  C   UNL     1       3.420   3.071  18.298  0.00  0.00    +0.000 A 
ATOM      7 CL   UNL     1       3.963   1.434  18.336  0.00  0.00    +0.000 Cl
ATOM      8  C   UNL     1       3.834   3.978  17.330  0.00  0.00    +0.000 A 
ATOM      9  C   UNL     1       3.516   5.320  17.553  0.00  0.00    +0.000 A 
ATOM     10  C   UNL     1       2.792   5.694  18.700  0.00  0.00    +0.000 A 
ATOM     11  C   UNL     1       2.553   7.038  19.049  0.00  0.00    +0.000 A 
ENDROOT
BRANCH   1  13
ATOM     12  C   UNL     1       0.800   8.961  21.557  0.00  0.00    +0.000 C 
ATOM     13  O   UNL     1       1.781   8.674  20.556  0.00  0.00    +0.000 OA
ENDBRANCH   1  13
BRANCH   8  14
ATOM     14  C   UNL     1       4.565   3.583  16.113  0.00  0.00    +0.000 C 
ATOM     15  C   UNL     1       5.788   4.036  15.783  0.00  0.00    +0.000 C 
BRANCH  15  16
ATOM     16  C   UNL     1       6.571   4.962  16.606  0.00  0.00    +0.000 A 
ATOM     17  C   UNL     1       7.231   4.495  17.750  0.00  0.00    +0.000 A 
ATOM     18  C   UNL     1       7.876   5.393  18.602  0.00  0.00    +0.000 A 
ATOM     19  C   UNL     1       7.863   6.752  18.304  0.00  0.00    +0.000 A 
ATOM     20  F   UNL     1       8.448   7.616  19.143  0.00  0.00    +0.000 F 
ATOM     21  C   UNL     1       7.246   7.226  17.153  0.00  0.00    +0.000 A 
ATOM     22  C   UNL     1       6.606   6.328  16.297  0.00  0.00    +0.000 A 
ENDBRANCH  15  16
ENDBRANCH   8  14
TORSDOF 3
ENDMDL
MODEL 8
REMARK VINA RESULT:      -7.4      4.412      7.129
REMARK  Name = 
REMARK  4 active torsions:
REMARK  status: ('A' for Active; 'I' for Inactive)
REMARK    1  A    between atoms: C_1  and  O_2
REMARK    2  A    between atoms: O_2  and  C_3
REMARK    3  A    between atoms: C_10  and  C_11
REMARK    4  A    between atoms: C_12  and  C_13
REMARK                            x       y       z     vdW  Elec       q    Type
REMARK                         _______ _______ _______ _____ _____    ______ ____
ROOT
ATOM      1  C   UNL     1       5.938   3.519  12.587  0.00  0.00    +0.000 A 
ATOM      2  C   UNL     1       7.260   3.952  12.520  0.00  0.00    +0.000 A 
ATOM      3  C   UNL     1       7.768   4.785  13.513  0.00  0.00    +0.000 A 
ATOM      4  C   UNL     1       6.983   5.210  14.575  0.00  0.00    +0.000 A 
ATOM      5  N   UNL     1       7.575   5.878  15.574  0.00  0.00    +0.000 NA
ATOM      6  C   UNL     1       6.785   6.295  16.592  0.00  0.00    +0.000 A 
ATOM      7 CL   UNL     1       7.704   6.907  17.918  0.00  0.00    +0.000 Cl
ATOM      8  C   UNL     1       5.402   6.161  16.633  0.00  0.00    +0.000 A 
ATOM      9  C   UNL     1       4.813   5.432  15.597  0.00  0.00    +0.000 A 
ATOM     10  C   UNL     1       5.609   4.897  14.568  0.00  0.00    +0.000 A 
ATOM     11  C   UNL     1       5.097   4.046  13.568  0.00  0.00    +0.000 A 
ENDROOT
BRANCH   1  13
ATOM     12  C   UNL     1       4.144   2.996  11.172  0.00  0.00    +0.000 C 
ATOM     13  O   UNL     1       5.396   2.596  11.737  0.00  0.00    +0.000 OA
ENDBRANCH   1  13
BRANCH   8  14
ATOM     14  C   UNL     1       4.565   6.748  17.694  0.00  0.00    +0.000 C 
ATOM     15  C   UNL     1       3.796   6.034  18.536  0.00  0.00    +0.000 C 
BRANCH  15  16
ATOM     16  C   UNL     1       3.712   4.570  18.530  0.00  0.00    +0.000 A 
ATOM     17  C   UNL     1       2.683   3.931  17.828  0.00  0.00    +0.000 A 
ATOM     18  C   UNL     1       2.528   2.547  17.919  0.00  0.00    +0.000 A 
ATOM     19  C   UNL     1       3.404   1.807  18.707  0.00  0.00    +0.000 A 
ATOM     20  F   UNL     1       3.229   0.486  18.825  0.00  0.00    +0.000 F 
ATOM     21  C   UNL     1       4.453   2.423  19.380  0.00  0.00    +0.000 A 
ATOM     22  C   UNL     1       4.613   3.806  19.284  0.00  0.00    +0.000 A 
ENDBRANCH  15  16
ENDBRANCH   8  14
TORSDOF 3
ENDMDL
MODEL 9
REMARK VINA RESULT:      -6.8      3.167      6.215
REMARK  Name = 
REMARK  4 active torsions:
REMARK  status: ('A' for Active; 'I' for Inactive)
REMARK    1  A    between atoms: C_1  and  O_2
REMARK    2  A    between atoms: O_2  and  C_3
REMARK    3  A    between atoms: C_10  and  C_11
REMARK    4  A    between atoms: C_12  and  C_13
REMARK                            x       y       z     vdW  Elec       q    Type
REMARK                         _______ _______ _______ _____ _____    ______ ____
ROOT
ATOM      1  C   UNL     1       6.914   4.937  14.820  0.00  0.00    +0.000 A 
ATOM      2  C   UNL     1       7.701   5.230  15.931  0.00  0.00    +0.000 A 
ATOM      3  C   UNL     1       7.279   4.843  17.200  0.00  0.00    +0.000 A 
ATOM      4  C   UNL     1       6.079   4.175  17.393  0.00  0.00    +0.000 A 
ATOM      5  N   UNL     1       5.810   3.695  18.615  0.00  0.00    +0.000 NA
ATOM      6  C   UNL     1       4.625   3.060  18.782  0.00  0.00    +0.000 A 
ATOM      7 CL   UNL     1       4.520   2.274  20.315  0.00  0.00    +0.000 Cl
ATOM      8  C   UNL     1       3.637   2.950  17.811  0.00  0.00    +0.000 A 
ATOM      9  C   UNL     1       3.954   3.430  16.538  0.00  0.00    +0.000 A 
ATOM     10  C   UNL     1       5.213   4.010  16.294  0.00  0.00    +0.000 A 
ATOM     11  C   UNL     1       5.643   4.393  15.008  0.00  0.00    +0.000 A 
ENDROOT
BRANCH   1  13
ATOM     12  C   UNL     1       6.814   4.184  12.602  0.00  0.00    +0.000 C 
ATOM     13  O   UNL     1       7.308   5.155  13.530  0.00  0.00    +0.000 OA
ENDBRANCH   1  13
BRANCH   8  14
ATOM     14  C   UNL     1       2.308   2.371  18.074  0.00  0.00    +0.000 C 
ATOM     15  C   UNL     1       1.311   3.016  18.705  0.00  0.00    +0.000 C 
BRANCH  15  16
ATOM     16  C   UNL     1       1.403   4.396  19.192  0.00  0.00    +0.000 A 
ATOM     17  C   UNL     1       1.724   5.431  18.305  0.00  0.00    +0.000 A 
ATOM     18  C   UNL     1       1.932   6.725  18.785  0.00  0.00    +0.000 A 
ATOM     19  C   UNL     1       1.814   6.980  20.148  0.00  0.00    +0.000 A 
ATOM     20  F   UNL     1       2.053   8.212  20.611  0.00  0.00    +0.000 F 
ATOM     21  C   UNL     1       1.459   5.971  21.035  0.00  0.00    +0.000 A 
ATOM     22  C   UNL     1       1.244   4.678  20.556  0.00  0.00    +0.000 A 
ENDBRANCH  15  16
ENDBRANCH   8  14
TORSDOF 3
ENDMDL
