MODEL 1
REMARK VINA RESULT:      -8.5      0.000      0.000
REMARK  Name = 
REMARK  9 active torsions:
REMARK  status: ('A' for Active; 'I' for Inactive)
REMARK    1  A    between atoms: C_1  and  O_2
REMARK    2  A    between atoms: O_2  and  C_3
REMARK    3  A    between atoms: C_6  and  O_7
REMARK    4  A    between atoms: O_7  and  C_8
REMARK    5  A    between atoms: C_9  and  C_10
REMARK    6  A    between atoms: C_10  and  C_11
REMARK    7  A    between atoms: C_11  and  N_12
REMARK    8  A    between atoms: N_12  and  C_13
REMARK    9  A    between atoms: C_20  and  C_21
REMARK                            x       y       z     vdW  Elec       q    Type
REMARK                         _______ _______ _______ _____ _____    ______ ____
ROOT
ATOM      1  C   UNL     1       2.468   5.278  20.062  0.00  0.00    +0.000 A 
ATOM      2  N   UNL     1       1.286   4.856  20.572  0.00  0.00    +0.000 NA
ATOM      3  C   UNL     1       1.123   3.562  20.897  0.00  0.00    +0.000 A 
ATOM      4  N   UNL     1       2.011   2.575  20.768  0.00  0.00    +0.000 NA
ATOM      5  C   UNL     1       3.155   3.020  20.231  0.00  0.00    +0.000 A 
ATOM      6  O   UNL     1       4.217   2.211  19.988  0.00  0.00    +0.000 OA
ATOM      7  N   UNL     1       5.244   2.940  19.434  0.00  0.00    +0.000 NA
ATOM      8  C   UNL     1       4.800   4.208  19.325  0.00  0.00    +0.000 A 
ATOM      9  C   UNL     1       3.470   4.313  19.852  0.00  0.00    +0.000 A 
ENDROOT
BRANCH   8  10
ATOM     10  C   UNL     1       5.684   5.222  18.733  0.00  0.00    +0.000 A 
ATOM     11  C   UNL     1       5.325   5.930  17.578  0.00  0.00    +0.000 A 
ATOM     12  C   UNL     1       6.165   6.915  17.049  0.00  0.00    +0.000 A 
ATOM     13  C   UNL     1       7.399   7.157  17.638  0.00  0.00    +0.000 A 
ATOM     14  F   UNL     1       8.210   8.083  17.116  0.00  0.00    +0.000 F 
ATOM     15  C   UNL     1       7.802   6.437  18.754  0.00  0.00    +0.000 A 
ATOM     16  C   UNL     1       6.946   5.478  19.304  0.00  0.00    +0.000 A 
ENDBRANCH   8  10
BRANCH   1  17
ATOM     17  N   UNL     1       2.639   6.629  19.765  0.00  0.00    +0.000 N 
ATOM     18  H   UNL     1       2.313   7.211  20.533  0.00  0.00    +0.000 HD
BRANCH  17  19
ATOM     19  C   UNL     1       2.202   7.098  18.445  0.00  0.00    +0.000 C 
BRANCH  19  20
ATOM     20  C   UNL     1       2.268   8.633  18.427  0.00  0.00    +0.000 C 
BRANCH  20  25
ATOM     21  C   UNL     1      -0.911  10.732  18.285  0.00  0.00    +0.000 A 
ATOM     22  C   UNL     1      -1.218  10.871  19.636  0.00  0.00    +0.000 A 
ATOM     23  C   UNL     1      -0.419  10.272  20.612  0.00  0.00    +0.000 A 
ATOM     24  C   UNL     1       0.716   9.540  20.247  0.00  0.00    +0.000 A 
ATOM     25  C   UNL     1       1.021   9.361  18.887  0.00  0.00    +0.000 A 
ATOM     26  C   UNL     1       0.195   9.966  17.915  0.00  0.00    +0.000 A 
BRANCH  21  28
ATOM     27  C   UNL     1      -3.145  11.299  17.705  0.00  0.00    +0.000 C 
ATOM     28  O   UNL     1      -1.753  11.399  17.439  0.00  0.00    +0.000 OA
ENDBRANCH  21  28
BRANCH  24  29
ATOM     29  O   UNL     1       1.573   8.968  21.150  0.00  0.00    +0.000 OA
ATOM     30  C   UNL     1       1.249   9.149  22.525  0.00  0.00    +0.000 C 
ENDBRANCH  24  29
ENDBRANCH  20  25
ENDBRANCH  19  20
ENDBRANCH  17  19
ENDBRANCH   1  17
TORSDOF 7
ENDMDL
MODEL 2
REMARK VINA RESULT:      -8.3      3.712      5.597
REMARK  Name = 
REMARK  9 active torsions:
REMARK  status: ('A' for Active; 'I' for Inactive)
REMARK    1  A    between atoms: C_1  and  O_2
REMARK    2  A    between atoms: O_2  and  C_3
REMARK    3  A    between atoms: C_6  and  O_7
REMARK    4  A    between atoms: O_7  and  C_8
REMARK    5  A    between atoms: C_9  and  C_10
REMARK    6  A    between atoms: C_10  and  C_11
REMARK    7  A    between atoms: C_11  and  N_12
REMARK    8  A    between atoms: N_12  and  C_13
REMARK    9  A    between atoms: C_20  and  C_21
REMARK                            x       y       z     vdW  Elec       q    Type
REMARK                         _______ _______ _______ _____ _____    ______ ____
ROOT
ATOM      1  C   UNL     1       5.559   4.116  17.616  0.00  0.00    +0.000 A 
ATOM      2  N   UNL     1       5.628   4.286  18.958  0.00  0.00    +0.000 NA
ATOM      3  C   UNL     1       6.441   5.224  19.473  0.00  0.00    +0.000 A 
ATOM      4  N   UNL     1       7.247   6.052  18.807  0.00  0.00    +0.000 NA
ATOM      5  C   UNL     1       7.179   5.836  17.486  0.00  0.00    +0.000 A 
ATOM      6  O   UNL     1       7.910   6.543  16.587  0.00  0.00    +0.000 OA
ATOM      7  N   UNL     1       7.637   6.102  15.312  0.00  0.00    +0.000 NA
ATOM      8  C   UNL     1       6.739   5.104  15.435  0.00  0.00    +0.000 A 
ATOM      9  C   UNL     1       6.393   4.917  16.814  0.00  0.00    +0.000 A 
ENDROOT
BRANCH   8  10
ATOM     10  C   UNL     1       6.275   4.413  14.223  0.00  0.00    +0.000 A 
ATOM     11  C   UNL     1       4.928   4.070  14.040  0.00  0.00    +0.000 A 
ATOM     12  C   UNL     1       4.500   3.442  12.867  0.00  0.00    +0.000 A 
ATOM     13  C   UNL     1       5.427   3.099  11.892  0.00  0.00    +0.000 A 
ATOM     14  F   UNL     1       5.018   2.478  10.780  0.00  0.00    +0.000 F 
ATOM     15  C   UNL     1       6.775   3.382  12.067  0.00  0.00    +0.000 A 
ATOM     16  C   UNL     1       7.196   4.042  13.225  0.00  0.00    +0.000 A 
ENDBRANCH   8  10
BRANCH   1  17
ATOM     17  N   UNL     1       4.684   3.167  17.092  0.00  0.00    +0.000 N 
ATOM     18  H   UNL     1       4.315   3.472  16.195  0.00  0.00    +0.000 HD
BRANCH  17  19
ATOM     19  C   UNL     1       3.663   2.613  17.989  0.00  0.00    +0.000 C 
BRANCH  19  20
ATOM     20  C   UNL     1       2.347   3.371  17.757  0.00  0.00    +0.000 C 
BRANCH  20  25
ATOM     21  C   UNL     1       2.441   7.072  18.664  0.00  0.00    +0.000 A 
ATOM     22  C   UNL     1       2.009   7.049  19.988  0.00  0.00    +0.000 A 
ATOM     23  C   UNL     1       1.660   5.844  20.601  0.00  0.00    +0.000 A 
ATOM     24  C   UNL     1       1.758   4.638  19.900  0.00  0.00    +0.000 A 
ATOM     25  C   UNL     1       2.160   4.647  18.553  0.00  0.00    +0.000 A 
ATOM     26  C   UNL     1       2.498   5.877  17.948  0.00  0.00    +0.000 A 
BRANCH  21  28
ATOM     27  C   UNL     1       1.724   9.197  17.878  0.00  0.00    +0.000 C 
ATOM     28  O   UNL     1       2.786   8.312  18.201  0.00  0.00    +0.000 OA
ENDBRANCH  21  28
BRANCH  24  29
ATOM     29  O   UNL     1       1.482   3.414  20.451  0.00  0.00    +0.000 OA
ATOM     30  C   UNL     1       2.256   3.050  21.589  0.00  0.00    +0.000 C 
ENDBRANCH  24  29
ENDBRANCH  20  25
ENDBRANCH  19  20
ENDBRANCH  17  19
ENDBRANCH   1  17
TORSDOF 7
ENDMDL
MODEL 3
REMARK VINA RESULT:      -8.0      1.131      1.316
REMARK  Name = 
REMARK  9 active torsions:
REMARK  status: ('A' for Active; 'I' for Inactive)
REMARK    1  A    between atoms: C_1  and  O_2
REMARK    2  A    between atoms: O_2  and  C_3
REMARK    3  A    between atoms: C_6  and  O_7
REMARK    4  A    between atoms: O_7  and  C_8
REMARK    5  A    between atoms: C_9  and  C_10
REMARK    6  A    between atoms: C_10  and  C_11
REMARK    7  A    between atoms: C_11  and  N_12
REMARK    8  A    between atoms: N_12  and  C_13
REMARK    9  A    between atoms: C_20  and  C_21
REMARK                            x       y       z     vdW  Elec       q    Type
REMARK                         _______ _______ _______ _____ _____    ______ ____
ROOT
ATOM      1  C   UNL     1       2.493   5.603  19.963  0.00  0.00    +0.000 A 
ATOM      2  N   UNL     1       1.288   5.216  20.447  0.00  0.00    +0.000 NA
ATOM      3  C   UNL     1       1.070   3.923  20.742  0.00  0.00    +0.000 A 
ATOM      4  N   UNL     1       1.920   2.905  20.603  0.00  0.00    +0.000 NA
ATOM      5  C   UNL     1       3.089   3.317  20.093  0.00  0.00    +0.000 A 
ATOM      6  O   UNL     1       4.122   2.472  19.846  0.00  0.00    +0.000 OA
ATOM      7  N   UNL     1       5.185   3.173  19.323  0.00  0.00    +0.000 NA
ATOM      8  C   UNL     1       4.792   4.459  19.236  0.00  0.00    +0.000 A 
ATOM      9  C   UNL     1       3.460   4.605  19.747  0.00  0.00    +0.000 A 
ENDROOT
BRANCH   8  10
ATOM     10  C   UNL     1       5.723   5.450  18.679  0.00  0.00    +0.000 A 
ATOM     11  C   UNL     1       5.375   6.260  17.589  0.00  0.00    +0.000 A 
ATOM     12  C   UNL     1       6.262   7.220  17.094  0.00  0.00    +0.000 A 
ATOM     13  C   UNL     1       7.529   7.337  17.650  0.00  0.00    +0.000 A 
ATOM     14  F   UNL     1       8.384   8.242  17.159  0.00  0.00    +0.000 F 
ATOM     15  C   UNL     1       7.920   6.517  18.699  0.00  0.00    +0.000 A 
ATOM     16  C   UNL     1       7.019   5.582  19.216  0.00  0.00    +0.000 A 
ENDBRANCH   8  10
BRANCH   1  17
ATOM     17  N   UNL     1       2.720   6.952  19.699  0.00  0.00    +0.000 N 
ATOM     18  H   UNL     1       3.630   7.241  20.051  0.00  0.00    +0.000 HD
BRANCH  17  19
ATOM     19  C   UNL     1       1.643   7.898  20.010  0.00  0.00    +0.000 C 
BRANCH  19  20
ATOM     20  C   UNL     1       1.678   9.034  18.975  0.00  0.00    +0.000 C 
BRANCH  20  25
ATOM     21  C   UNL     1      -1.672  10.191  17.571  0.00  0.00    +0.000 A 
ATOM     22  C   UNL     1      -1.914  11.336  18.326  0.00  0.00    +0.000 A 
ATOM     23  C   UNL     1      -1.013  11.739  19.313  0.00  0.00    +0.000 A 
ATOM     24  C   UNL     1       0.158  11.010  19.545  0.00  0.00    +0.000 A 
ATOM     25  C   UNL     1       0.401   9.834  18.816  0.00  0.00    +0.000 A 
ATOM     26  C   UNL     1      -0.527   9.436  17.829  0.00  0.00    +0.000 A 
BRANCH  21  28
ATOM     27  C   UNL     1      -2.793  10.912  15.604  0.00  0.00    +0.000 C 
ATOM     28  O   UNL     1      -2.614   9.931  16.615  0.00  0.00    +0.000 OA
ENDBRANCH  21  28
BRANCH  24  29
ATOM     29  O   UNL     1       1.110  11.375  20.461  0.00  0.00    +0.000 OA
ATOM     30  C   UNL     1       1.525  12.736  20.426  0.00  0.00    +0.000 C 
ENDBRANCH  24  29
ENDBRANCH  20  25
ENDBRANCH  19  20
ENDBRANCH  17  19
ENDBRANCH   1  17
TORSDOF 7
ENDMDL
MODEL 4
REMARK VINA RESULT:      -8.0      1.352      2.542
REMARK  Name = 
REMARK  9 active torsions:
REMARK  status: ('A' for Active; 'I' for Inactive)
REMARK    1  A    between atoms: C_1  and  O_2
REMARK    2  A    between atoms: O_2  and  C_3
REMARK    3  A    between atoms: C_6  and  O_7
REMARK    4  A    between atoms: O_7  and  C_8
REMARK    5  A    between atoms: C_9  and  C_10
REMARK    6  A    between atoms: C_10  and  C_11
REMARK    7  A    between atoms: C_11  and  N_12
REMARK    8  A    between atoms: N_12  and  C_13
REMARK    9  A    between atoms: C_20  and  C_21
REMARK                            x       y       z     vdW  Elec       q    Type
REMARK                         _______ _______ _______ _____ _____    ______ ____
ROOT
ATOM      1  C   UNL     1       2.442   5.580  20.041  0.00  0.00    +0.000 A 
ATOM      2  N   UNL     1       1.232   5.214  20.529  0.00  0.00    +0.000 NA
ATOM      3  C   UNL     1       0.981   3.919  20.791  0.00  0.00    +0.000 A 
ATOM      4  N   UNL     1       1.802   2.883  20.615  0.00  0.00    +0.000 NA
ATOM      5  C   UNL     1       2.975   3.276  20.102  0.00  0.00    +0.000 A 
ATOM      6  O   UNL     1       3.982   2.410  19.820  0.00  0.00    +0.000 OA
ATOM      7  N   UNL     1       5.058   3.095  19.302  0.00  0.00    +0.000 NA
ATOM      8  C   UNL     1       4.699   4.394  19.254  0.00  0.00    +0.000 A 
ATOM      9  C   UNL     1       3.378   4.562  19.786  0.00  0.00    +0.000 A 
ENDROOT
BRANCH   8  10
ATOM     10  C   UNL     1       5.651   5.374  18.713  0.00  0.00    +0.000 A 
ATOM     11  C   UNL     1       6.914   5.571  19.289  0.00  0.00    +0.000 A 
ATOM     12  C   UNL     1       7.819   6.484  18.740  0.00  0.00    +0.000 A 
ATOM     13  C   UNL     1       7.444   7.252  17.646  0.00  0.00    +0.000 A 
ATOM     14  F   UNL     1       8.304   8.141  17.137  0.00  0.00    +0.000 F 
ATOM     15  C   UNL     1       6.182   7.114  17.084  0.00  0.00    +0.000 A 
ATOM     16  C   UNL     1       5.292   6.174  17.612  0.00  0.00    +0.000 A 
ENDBRANCH   8  10
BRANCH   1  17
ATOM     17  N   UNL     1       2.703   6.929  19.811  0.00  0.00    +0.000 N 
ATOM     18  H   UNL     1       3.657   7.163  20.077  0.00  0.00    +0.000 HD
BRANCH  17  19
ATOM     19  C   UNL     1       1.709   7.905  20.271  0.00  0.00    +0.000 C 
BRANCH  19  20
ATOM     20  C   UNL     1       1.351   8.828  19.095  0.00  0.00    +0.000 C 
BRANCH  20  25
ATOM     21  C   UNL     1      -0.003  11.816  21.036  0.00  0.00    +0.000 A 
ATOM     22  C   UNL     1      -1.067  12.215  20.233  0.00  0.00    +0.000 A 
ATOM     23  C   UNL     1      -1.350  11.543  19.042  0.00  0.00    +0.000 A 
ATOM     24  C   UNL     1      -0.581  10.444  18.649  0.00  0.00    +0.000 A 
ATOM     25  C   UNL     1       0.517  10.047  19.432  0.00  0.00    +0.000 A 
ATOM     26  C   UNL     1       0.794  10.747  20.626  0.00  0.00    +0.000 A 
BRANCH  21  28
ATOM     27  C   UNL     1      -0.061  13.939  22.103  0.00  0.00    +0.000 C 
ATOM     28  O   UNL     1       0.140  12.536  22.190  0.00  0.00    +0.000 OA
ENDBRANCH  21  28
BRANCH  24  29
ATOM     29  O   UNL     1      -0.832   9.705  17.522  0.00  0.00    +0.000 OA
ATOM     30  C   UNL     1      -2.085   9.937  16.887  0.00  0.00    +0.000 C 
ENDBRANCH  24  29
ENDBRANCH  20  25
ENDBRANCH  19  20
ENDBRANCH  17  19
ENDBRANCH   1  17
TORSDOF 7
ENDMDL
MODEL 5
REMARK VINA RESULT:      -8.0      1.249      2.354
REMARK  Name = 
REMARK  9 active torsions:
REMARK  status: ('A' for Active; 'I' for Inactive)
REMARK    1  A    between atoms: C_1  and  O_2
REMARK    2  A    between atoms: O_2  and  C_3
REMARK    3  A    between atoms: C_6  and  O_7
REMARK    4  A    between atoms: O_7  and  C_8
REMARK    5  A    between atoms: C_9  and  C_10
REMARK    6  A    between atoms: C_10  and  C_11
REMARK    7  A    between atoms: C_11  and  N_12
REMARK    8  A    between atoms: N_12  and  C_13
REMARK    9  A    between atoms: C_20  and  C_21
REMARK                            x       y       z     vdW  Elec       q    Type
REMARK                         _______ _______ _______ _____ _____    ______ ____
ROOT
ATOM      1  C   UNL     1       2.499   5.500  20.040  0.00  0.00    +0.000 A 
ATOM      2  N   UNL     1       1.306   5.113  20.554  0.00  0.00    +0.000 NA
ATOM      3  C   UNL     1       1.109   3.825  20.887  0.00  0.00    +0.000 A 
ATOM      4  N   UNL     1       1.970   2.815  20.762  0.00  0.00    +0.000 NA
ATOM      5  C   UNL     1       3.125   3.226  20.222  0.00  0.00    +0.000 A 
ATOM      6  O   UNL     1       4.165   2.387  19.982  0.00  0.00    +0.000 OA
ATOM      7  N   UNL     1       5.210   3.085  19.422  0.00  0.00    +0.000 NA
ATOM      8  C   UNL     1       4.800   4.364  19.306  0.00  0.00    +0.000 A 
ATOM      9  C   UNL     1       3.474   4.508  19.835  0.00  0.00    +0.000 A 
ENDROOT
BRANCH   8  10
ATOM     10  C   UNL     1       5.710   5.351  18.708  0.00  0.00    +0.000 A 
ATOM     11  C   UNL     1       5.392   6.021  17.518  0.00  0.00    +0.000 A 
ATOM     12  C   UNL     1       6.256   6.980  16.982  0.00  0.00    +0.000 A 
ATOM     13  C   UNL     1       7.473   7.234  17.600  0.00  0.00    +0.000 A 
ATOM     14  F   UNL     1       8.307   8.137  17.072  0.00  0.00    +0.000 F 
ATOM     15  C   UNL     1       7.836   6.552  18.753  0.00  0.00    +0.000 A 
ATOM     16  C   UNL     1       6.956   5.618  19.308  0.00  0.00    +0.000 A 
ENDBRANCH   8  10
BRANCH   1  17
ATOM     17  N   UNL     1       2.705   6.844  19.736  0.00  0.00    +0.000 N 
ATOM     18  H   UNL     1       3.667   7.114  19.926  0.00  0.00    +0.000 HD
BRANCH  17  19
ATOM     19  C   UNL     1       1.716   7.813  20.221  0.00  0.00    +0.000 C 
BRANCH  19  20
ATOM     20  C   UNL     1       1.375   8.778  19.074  0.00  0.00    +0.000 C 
BRANCH  20  25
ATOM     21  C   UNL     1      -0.226  11.573  21.111  0.00  0.00    +0.000 A 
ATOM     22  C   UNL     1      -1.230  12.011  20.250  0.00  0.00    +0.000 A 
ATOM     23  C   UNL     1      -1.391  11.427  18.992  0.00  0.00    +0.000 A 
ATOM     24  C   UNL     1      -0.559  10.379  18.586  0.00  0.00    +0.000 A 
ATOM     25  C   UNL     1       0.480   9.948  19.428  0.00  0.00    +0.000 A 
ATOM     26  C   UNL     1       0.633  10.558  20.692  0.00  0.00    +0.000 A 
BRANCH  21  28
ATOM     27  C   UNL     1      -1.274  11.925  23.216  0.00  0.00    +0.000 C 
ATOM     28  O   UNL     1      -0.203  12.204  22.325  0.00  0.00    +0.000 OA
ENDBRANCH  21  28
BRANCH  24  29
ATOM     29  O   UNL     1      -0.691   9.726  17.388  0.00  0.00    +0.000 OA
ATOM     30  C   UNL     1      -1.971   9.804  16.769  0.00  0.00    +0.000 C 
ENDBRANCH  24  29
ENDBRANCH  20  25
ENDBRANCH  19  20
ENDBRANCH  17  19
ENDBRANCH   1  17
TORSDOF 7
ENDMDL
MODEL 6
REMARK VINA RESULT:      -8.0      3.693      5.787
REMARK  Name = 
REMARK  9 active torsions:
REMARK  status: ('A' for Active; 'I' for Inactive)
REMARK    1  A    between atoms: C_1  and  O_2
REMARK    2  A    between atoms: O_2  and  C_3
REMARK    3  A    between atoms: C_6  and  O_7
REMARK    4  A    between atoms: O_7  and  C_8
REMARK    5  A    between atoms: C_9  and  C_10
REMARK    6  A    between atoms: C_10  and  C_11
REMARK    7  A    between atoms: C_11  and  N_12
REMARK    8  A    between atoms: N_12  and  C_13
REMARK    9  A    between atoms: C_20  and  C_21
REMARK                            x       y       z     vdW  Elec       q    Type
REMARK                         _______ _______ _______ _____ _____    ______ ____
ROOT
ATOM      1  C   UNL     1       5.673   4.093  17.615  0.00  0.00    +0.000 A 
ATOM      2  N   UNL     1       5.738   4.252  18.959  0.00  0.00    +0.000 NA
ATOM      3  C   UNL     1       6.512   5.219  19.482  0.00  0.00    +0.000 A 
ATOM      4  N   UNL     1       7.280   6.088  18.822  0.00  0.00    +0.000 NA
ATOM      5  C   UNL     1       7.217   5.882  17.499  0.00  0.00    +0.000 A 
ATOM      6  O   UNL     1       7.914   6.629  16.606  0.00  0.00    +0.000 OA
ATOM      7  N   UNL     1       7.658   6.189  15.327  0.00  0.00    +0.000 NA
ATOM      8  C   UNL     1       6.803   5.153  15.442  0.00  0.00    +0.000 A 
ATOM      9  C   UNL     1       6.469   4.937  16.820  0.00  0.00    +0.000 A 
ENDROOT
BRANCH   8  10
ATOM     10  C   UNL     1       6.366   4.455  14.225  0.00  0.00    +0.000 A 
ATOM     11  C   UNL     1       7.252   4.176  13.175  0.00  0.00    +0.000 A 
ATOM     12  C   UNL     1       6.825   3.482  12.039  0.00  0.00    +0.000 A 
ATOM     13  C   UNL     1       5.492   3.114  11.918  0.00  0.00    +0.000 A 
ATOM     14  F   UNL     1       5.082   2.470  10.819  0.00  0.00    +0.000 F 
ATOM     15  C   UNL     1       4.581   3.419  12.919  0.00  0.00    +0.000 A 
ATOM     16  C   UNL     1       5.017   4.081  14.071  0.00  0.00    +0.000 A 
ENDBRANCH   8  10
BRANCH   1  17
ATOM     17  N   UNL     1       4.838   3.113  17.084  0.00  0.00    +0.000 N 
ATOM     18  H   UNL     1       4.473   3.401  16.179  0.00  0.00    +0.000 HD
BRANCH  17  19
ATOM     19  C   UNL     1       3.823   2.530  17.969  0.00  0.00    +0.000 C 
BRANCH  19  20
ATOM     20  C   UNL     1       2.485   3.241  17.711  0.00  0.00    +0.000 C 
BRANCH  20  25
ATOM     21  C   UNL     1       2.171   6.779  19.095  0.00  0.00    +0.000 A 
ATOM     22  C   UNL     1       1.689   6.538  20.379  0.00  0.00    +0.000 A 
ATOM     23  C   UNL     1       1.435   5.235  20.810  0.00  0.00    +0.000 A 
ATOM     24  C   UNL     1       1.683   4.148  19.965  0.00  0.00    +0.000 A 
ATOM     25  C   UNL     1       2.138   4.375  18.654  0.00  0.00    +0.000 A 
ATOM     26  C   UNL     1       2.378   5.701  18.233  0.00  0.00    +0.000 A 
BRANCH  21  28
ATOM     27  C   UNL     1       3.070   8.385  17.591  0.00  0.00    +0.000 C 
ATOM     28  O   UNL     1       2.410   8.096  18.815  0.00  0.00    +0.000 OA
ENDBRANCH  21  28
BRANCH  24  29
ATOM     29  O   UNL     1       1.507   2.841  20.337  0.00  0.00    +0.000 OA
ATOM     30  C   UNL     1       1.670   2.556  21.722  0.00  0.00    +0.000 C 
ENDBRANCH  24  29
ENDBRANCH  20  25
ENDBRANCH  19  20
ENDBRANCH  17  19
ENDBRANCH   1  17
TORSDOF 7
ENDMDL
MODEL 7
REMARK VINA RESULT:      -7.9      1.526      1.712
REMARK  Name = 
REMARK  9 active torsions:
REMARK  status: ('A' for Active; 'I' for Inactive)
REMARK    1  A    between atoms: C_1  and  O_2
REMARK    2  A    between atoms: O_2  and  C_3
REMARK    3  A    between atoms: C_6  and  O_7
REMARK    4  A    between atoms: O_7  and  C_8
REMARK    5  A    between atoms: C_9  and  C_10
REMARK    6  A    between atoms: C_10  and  C_11
REMARK    7  A    between atoms: C_11  and  N_12
REMARK    8  A    between atoms: N_12  and  C_13
REMARK    9  A    between atoms: C_20  and  C_21
REMARK                            x       y       z     vdW  Elec       q    Type
REMARK                         _______ _______ _______ _____ _____    ______ ____
ROOT
ATOM      1  C   UNL     1       2.530   5.494  20.001  0.00  0.00    +0.000 A 
ATOM      2  N   UNL     1       1.325   5.101  20.480  0.00  0.00    +0.000 NA
ATOM      3  C   UNL     1       1.096   3.800  20.725  0.00  0.00    +0.000 A 
ATOM      4  N   UNL     1       1.934   2.779  20.538  0.00  0.00    +0.000 NA
ATOM      5  C   UNL     1       3.103   3.199  20.033  0.00  0.00    +0.000 A 
ATOM      6  O   UNL     1       4.125   2.354  19.743  0.00  0.00    +0.000 OA
ATOM      7  N   UNL     1       5.190   3.063  19.239  0.00  0.00    +0.000 NA
ATOM      8  C   UNL     1       4.810   4.356  19.206  0.00  0.00    +0.000 A 
ATOM      9  C   UNL     1       3.484   4.495  19.735  0.00  0.00    +0.000 A 
ENDROOT
BRANCH   8  10
ATOM     10  C   UNL     1       5.747   5.359  18.681  0.00  0.00    +0.000 A 
ATOM     11  C   UNL     1       5.459   6.108  17.532  0.00  0.00    +0.000 A 
ATOM     12  C   UNL     1       6.348   7.081  17.066  0.00  0.00    +0.000 A 
ATOM     13  C   UNL     1       7.562   7.271  17.714  0.00  0.00    +0.000 A 
ATOM     14  F   UNL     1       8.420   8.187  17.252  0.00  0.00    +0.000 F 
ATOM     15  C   UNL     1       7.896   6.511  18.826  0.00  0.00    +0.000 A 
ATOM     16  C   UNL     1       6.990   5.563  19.311  0.00  0.00    +0.000 A 
ENDBRANCH   8  10
BRANCH   1  17
ATOM     17  N   UNL     1       2.770   6.850  19.789  0.00  0.00    +0.000 N 
ATOM     18  H   UNL     1       2.247   7.417  20.452  0.00  0.00    +0.000 HD
BRANCH  17  19
ATOM     19  C   UNL     1       2.702   7.347  18.410  0.00  0.00    +0.000 C 
BRANCH  19  20
ATOM     20  C   UNL     1       1.374   8.100  18.228  0.00  0.00    +0.000 C 
BRANCH  20  25
ATOM     21  C   UNL     1       1.895  11.855  18.629  0.00  0.00    +0.000 A 
ATOM     22  C   UNL     1       1.383  12.076  19.906  0.00  0.00    +0.000 A 
ATOM     23  C   UNL     1       0.842  11.024  20.646  0.00  0.00    +0.000 A 
ATOM     24  C   UNL     1       0.826   9.726  20.125  0.00  0.00    +0.000 A 
ATOM     25  C   UNL     1       1.307   9.491  18.826  0.00  0.00    +0.000 A 
ATOM     26  C   UNL     1       1.840  10.570  18.089  0.00  0.00    +0.000 A 
BRANCH  21  28
ATOM     27  C   UNL     1       1.959  14.226  18.481  0.00  0.00    +0.000 C 
ATOM     28  O   UNL     1       2.427  12.964  18.030  0.00  0.00    +0.000 OA
ENDBRANCH  21  28
BRANCH  24  29
ATOM     29  O   UNL     1       0.358   8.637  20.815  0.00  0.00    +0.000 OA
ATOM     30  C   UNL     1      -0.244   8.905  22.077  0.00  0.00    +0.000 C 
ENDBRANCH  24  29
ENDBRANCH  20  25
ENDBRANCH  19  20
ENDBRANCH  17  19
ENDBRANCH   1  17
TORSDOF 7
ENDMDL
MODEL 8
REMARK VINA RESULT:      -7.8      1.124      2.546
REMARK  Name = 
REMARK  9 active torsions:
REMARK  status: ('A' for Active; 'I' for Inactive)
REMARK    1  A    between atoms: C_1  and  O_2
REMARK    2  A    between atoms: O_2  and  C_3
REMARK    3  A    between atoms: C_6  and  O_7
REMARK    4  A    between atoms: O_7  and  C_8
REMARK    5  A    between atoms: C_9  and  C_10
REMARK    6  A    between atoms: C_10  and  C_11
REMARK    7  A    between atoms: C_11  and  N_12
REMARK    8  A    between atoms: N_12  and  C_13
REMARK    9  A    between atoms: C_20  and  C_21
REMARK                            x       y       z     vdW  Elec       q    Type
REMARK                         _______ _______ _______ _____ _____    ______ ____
ROOT
ATOM      1  C   UNL     1       2.311   4.832  18.513  0.00  0.00    +0.000 A 
ATOM      2  N   UNL     1       1.093   4.253  18.639  0.00  0.00    +0.000 NA
ATOM      3  C   UNL     1       0.989   3.025  19.177  0.00  0.00    +0.000 A 
ATOM      4  N   UNL     1       1.979   2.247  19.617  0.00  0.00    +0.000 NA
ATOM      5  C   UNL     1       3.170   2.836  19.448  0.00  0.00    +0.000 A 
ATOM      6  O   UNL     1       4.339   2.248  19.807  0.00  0.00    +0.000 OA
ATOM      7  N   UNL     1       5.394   3.081  19.512  0.00  0.00    +0.000 NA
ATOM      8  C   UNL     1       4.863   4.188  18.953  0.00  0.00    +0.000 A 
ATOM      9  C   UNL     1       3.433   4.087  18.918  0.00  0.00    +0.000 A 
ENDROOT
BRANCH   8  10
ATOM     10  C   UNL     1       5.764   5.259  18.505  0.00  0.00    +0.000 A 
ATOM     11  C   UNL     1       5.491   6.023  17.362  0.00  0.00    +0.000 A 
ATOM     12  C   UNL     1       6.344   7.059  16.971  0.00  0.00    +0.000 A 
ATOM     13  C   UNL     1       7.509   7.301  17.687  0.00  0.00    +0.000 A 
ATOM     14  F   UNL     1       8.334   8.279  17.296  0.00  0.00    +0.000 F 
ATOM     15  C   UNL     1       7.830   6.529  18.795  0.00  0.00    +0.000 A 
ATOM     16  C   UNL     1       6.959   5.516  19.206  0.00  0.00    +0.000 A 
ENDBRANCH   8  10
BRANCH   1  17
ATOM     17  N   UNL     1       2.402   6.121  17.991  0.00  0.00    +0.000 N 
ATOM     18  H   UNL     1       3.138   6.176  17.290  0.00  0.00    +0.000 HD
BRANCH  17  19
ATOM     19  C   UNL     1       2.408   7.242  18.937  0.00  0.00    +0.000 C 
BRANCH  19  20
ATOM     20  C   UNL     1       1.769   8.461  18.254  0.00  0.00    +0.000 C 
BRANCH  20  25
ATOM     21  C   UNL     1       0.494  10.212  21.390  0.00  0.00    +0.000 A 
ATOM     22  C   UNL     1      -0.625  10.883  20.903  0.00  0.00    +0.000 A 
ATOM     23  C   UNL     1      -0.972  10.800  19.554  0.00  0.00    +0.000 A 
ATOM     24  C   UNL     1      -0.212  10.023  18.673  0.00  0.00    +0.000 A 
ATOM     25  C   UNL     1       0.939   9.367  19.141  0.00  0.00    +0.000 A 
ATOM     26  C   UNL     1       1.279   9.472  20.507  0.00  0.00    +0.000 A 
BRANCH  21  28
ATOM     27  C   UNL     1      -0.072   9.515  23.591  0.00  0.00    +0.000 C 
ATOM     28  O   UNL     1       0.697  10.348  22.736  0.00  0.00    +0.000 OA
ENDBRANCH  21  28
BRANCH  24  29
ATOM     29  O   UNL     1      -0.522   9.855  17.349  0.00  0.00    +0.000 OA
ATOM     30  C   UNL     1      -1.905   9.917  17.015  0.00  0.00    +0.000 C 
ENDBRANCH  24  29
ENDBRANCH  20  25
ENDBRANCH  19  20
ENDBRANCH  17  19
ENDBRANCH   1  17
TORSDOF 7
ENDMDL
MODEL 9
REMARK VINA RESULT:      -7.8      0.860      1.266
REMARK  Name = 
REMARK  9 active torsions:
REMARK  status: ('A' for Active; 'I' for Inactive)
REMARK    1  A    between atoms: C_1  and  O_2
REMARK    2  A    between atoms: O_2  and  C_3
REMARK    3  A    between atoms: C_6  and  O_7
REMARK    4  A    between atoms: O_7  and  C_8
REMARK    5  A    between atoms: C_9  and  C_10
REMARK    6  A    between atoms: C_10  and  C_11
REMARK    7  A    between atoms: C_11  and  N_12
REMARK    8  A    between atoms: N_12  and  C_13
REMARK    9  A    between atoms: C_20  and  C_21
REMARK                            x       y       z     vdW  Elec       q    Type
REMARK                         _______ _______ _______ _____ _____    ______ ____
ROOT
ATOM      1  C   UNL     1       2.361   5.188  20.109  0.00  0.00    +0.000 A 
ATOM      2  N   UNL     1       1.190   4.754  20.636  0.00  0.00    +0.000 NA
ATOM      3  C   UNL     1       0.877   3.448  20.581  0.00  0.00    +0.000 A 
ATOM      4  N   UNL     1       1.595   2.464  20.038  0.00  0.00    +0.000 NA
ATOM      5  C   UNL     1       2.728   2.933  19.498  0.00  0.00    +0.000 A 
ATOM      6  O   UNL     1       3.631   2.134  18.874  0.00  0.00    +0.000 OA
ATOM      7  N   UNL     1       4.688   2.888  18.419  0.00  0.00    +0.000 NA
ATOM      8  C   UNL     1       4.422   4.165  18.758  0.00  0.00    +0.000 A 
ATOM      9  C   UNL     1       3.185   4.239  19.480  0.00  0.00    +0.000 A 
ENDROOT
BRANCH   8  10
ATOM     10  C   UNL     1       5.376   5.215  18.374  0.00  0.00    +0.000 A 
ATOM     11  C   UNL     1       6.630   5.335  18.990  0.00  0.00    +0.000 A 
ATOM     12  C   UNL     1       7.537   6.319  18.588  0.00  0.00    +0.000 A 
ATOM     13  C   UNL     1       7.173   7.231  17.606  0.00  0.00    +0.000 A 
ATOM     14  F   UNL     1       8.035   8.187  17.239  0.00  0.00    +0.000 F 
ATOM     15  C   UNL     1       5.920   7.168  17.012  0.00  0.00    +0.000 A 
ATOM     16  C   UNL     1       5.028   6.161  17.390  0.00  0.00    +0.000 A 
ENDBRANCH   8  10
BRANCH   1  17
ATOM     17  N   UNL     1       2.692   6.538  20.207  0.00  0.00    +0.000 N 
ATOM     18  H   UNL     1       3.555   6.661  20.730  0.00  0.00    +0.000 HD
BRANCH  17  19
ATOM     19  C   UNL     1       1.631   7.475  20.594  0.00  0.00    +0.000 C 
BRANCH  19  20
ATOM     20  C   UNL     1       1.731   8.721  19.701  0.00  0.00    +0.000 C 
BRANCH  20  25
ATOM     21  C   UNL     1      -1.045  11.114  18.653  0.00  0.00    +0.000 A 
ATOM     22  C   UNL     1      -1.416  11.668  19.875  0.00  0.00    +0.000 A 
ATOM     23  C   UNL     1      -0.794  11.262  21.057  0.00  0.00    +0.000 A 
ATOM     24  C   UNL     1       0.227  10.308  21.029  0.00  0.00    +0.000 A 
ATOM     25  C   UNL     1       0.592   9.714  19.808  0.00  0.00    +0.000 A 
ATOM     26  C   UNL     1      -0.057  10.129  18.625  0.00  0.00    +0.000 A 
BRANCH  21  28
ATOM     27  C   UNL     1      -2.996  11.097  17.295  0.00  0.00    +0.000 C 
ATOM     28  O   UNL     1      -1.707  11.626  17.571  0.00  0.00    +0.000 OA
ENDBRANCH  21  28
BRANCH  24  29
ATOM     29  O   UNL     1       0.917   9.900  22.141  0.00  0.00    +0.000 OA
ATOM     30  C   UNL     1       0.128   9.533  23.268  0.00  0.00    +0.000 C 
ENDBRANCH  24  29
ENDBRANCH  20  25
ENDBRANCH  19  20
ENDBRANCH  17  19
ENDBRANCH   1  17
TORSDOF 7
ENDMDL
