MODEL 1
REMARK VINA RESULT:      -8.6      0.000      0.000
REMARK  Name = 
REMARK  3 active torsions:
REMARK  status: ('A' for Active; 'I' for Inactive)
REMARK    1  A    between atoms: N_3  and  C_4
REMARK    2  A    between atoms: C_4  and  C_5
REMARK    3  A    between atoms: N_11  and  C_12
REMARK                            x       y       z     vdW  Elec       q    Type
REMARK                         _______ _______ _______ _____ _____    ______ ____
ROOT
ATOM      1  O   UNL     1       4.740   2.080  20.174  0.00  0.00    +0.000 OA
ATOM      2  C   UNL     1       4.816   2.973  19.330  0.00  0.00    +0.000 C 
ATOM      3  N   UNL     1       3.893   3.162  18.345  0.00  0.00    +0.000 N 
ATOM      4  N   UNL     1       5.906   3.798  19.322  0.00  0.00    +0.000 N 
ATOM      5  H   UNL     1       4.303   3.467  17.473  0.00  0.00    +0.000 HD
ATOM      6  H   UNL     1       6.632   3.457  19.936  0.00  0.00    +0.000 HD
ENDROOT
BRANCH   4   7
ATOM      7  C   UNL     1       6.167   4.983  18.598  0.00  0.00    +0.000 A 
ATOM      8  C   UNL     1       5.400   5.418  17.514  0.00  0.00    +0.000 A 
ATOM      9  C   UNL     1       5.785   6.544  16.790  0.00  0.00    +0.000 A 
ATOM     10  F   UNL     1       5.059   6.918  15.726  0.00  0.00    +0.000 F 
ATOM     11  C   UNL     1       6.899   7.278  17.148  0.00  0.00    +0.000 A 
ATOM     12  C   UNL     1       7.612   6.890  18.272  0.00  0.00    +0.000 A 
ATOM     13  F   UNL     1       8.678   7.605  18.653  0.00  0.00    +0.000 F 
ATOM     14  C   UNL     1       7.252   5.761  19.008  0.00  0.00    +0.000 A 
ENDBRANCH   4   7
BRANCH   3  15
ATOM     15  C   UNL     1       2.728   2.314  18.202  0.00  0.00    +0.000 C 
BRANCH  15  16
ATOM     16  C   UNL     1       1.417   3.126  18.117  0.00  0.00    +0.000 C 
ATOM     17  C   UNL     1       0.505   2.837  19.319  0.00  0.00    +0.000 C 
ATOM     18  C   UNL     1       1.154   3.285  20.625  0.00  0.00    +0.000 C 
ATOM     19  C   UNL     1       1.432   4.786  20.603  0.00  0.00    +0.000 C 
ATOM     20  C   UNL     1       2.160   5.260  19.344  0.00  0.00    +0.000 C 
ATOM     21  C   UNL     1       1.631   4.648  18.044  0.00  0.00    +0.000 C 
ENDBRANCH  15  16
ENDBRANCH   3  15
TORSDOF 3
ENDMDL
MODEL 2
REMARK VINA RESULT:      -8.3      0.218      1.888
REMARK  Name = 
REMARK  3 active torsions:
REMARK  status: ('A' for Active; 'I' for Inactive)
REMARK    1  A    between atoms: N_3  and  C_4
REMARK    2  A    between atoms: C_4  and  C_5
REMARK    3  A    between atoms: N_11  and  C_12
REMARK                            x       y       z     vdW  Elec       q    Type
REMARK                         _______ _______ _______ _____ _____    ______ ____
ROOT
ATOM      1  O   UNL     1       4.668   2.254  20.238  0.00  0.00    +0.000 OA
ATOM      2  C   UNL     1       4.840   3.086  19.347  0.00  0.00    +0.000 C 
ATOM      3  N   UNL     1       4.038   3.196  18.251  0.00  0.00    +0.000 N 
ATOM      4  N   UNL     1       5.923   3.920  19.406  0.00  0.00    +0.000 N 
ATOM      5  H   UNL     1       4.546   3.443  17.413  0.00  0.00    +0.000 HD
ATOM      6  H   UNL     1       6.572   3.630  20.124  0.00  0.00    +0.000 HD
ENDROOT
BRANCH   4   7
ATOM      7  C   UNL     1       6.263   5.053  18.636  0.00  0.00    +0.000 A 
ATOM      8  C   UNL     1       7.381   5.855  18.882  0.00  0.00    +0.000 A 
ATOM      9  C   UNL     1       7.590   7.015  18.139  0.00  0.00    +0.000 A 
ATOM     10  F   UNL     1       8.646   7.793  18.423  0.00  0.00    +0.000 F 
ATOM     11  C   UNL     1       6.730   7.375  17.121  0.00  0.00    +0.000 A 
ATOM     12  C   UNL     1       5.667   6.535  16.826  0.00  0.00    +0.000 A 
ATOM     13  F   UNL     1       4.839   6.852  15.822  0.00  0.00    +0.000 F 
ATOM     14  C   UNL     1       5.431   5.374  17.561  0.00  0.00    +0.000 A 
ENDBRANCH   4   7
BRANCH   3  15
ATOM     15  C   UNL     1       2.899   2.328  18.035  0.00  0.00    +0.000 C 
BRANCH  15  16
ATOM     16  C   UNL     1       1.575   3.115  17.916  0.00  0.00    +0.000 C 
ATOM     17  C   UNL     1       0.574   2.688  19.001  0.00  0.00    +0.000 C 
ATOM     18  C   UNL     1       1.098   3.018  20.396  0.00  0.00    +0.000 C 
ATOM     19  C   UNL     1       1.330   4.520  20.543  0.00  0.00    +0.000 C 
ATOM     20  C   UNL     1       2.146   5.133  19.403  0.00  0.00    +0.000 C 
ATOM     21  C   UNL     1       1.747   4.641  18.009  0.00  0.00    +0.000 C 
ENDBRANCH  15  16
ENDBRANCH   3  15
TORSDOF 3
ENDMDL
MODEL 3
REMARK VINA RESULT:      -8.3      1.806      2.360
REMARK  Name = 
REMARK  3 active torsions:
REMARK  status: ('A' for Active; 'I' for Inactive)
REMARK    1  A    between atoms: N_3  and  C_4
REMARK    2  A    between atoms: C_4  and  C_5
REMARK    3  A    between atoms: N_11  and  C_12
REMARK                            x       y       z     vdW  Elec       q    Type
REMARK                         _______ _______ _______ _____ _____    ______ ____
ROOT
ATOM      1  O   UNL     1       4.932   2.750  20.209  0.00  0.00    +0.000 OA
ATOM      2  C   UNL     1       4.729   3.008  19.023  0.00  0.00    +0.000 C 
ATOM      3  N   UNL     1       3.599   2.646  18.354  0.00  0.00    +0.000 N 
ATOM      4  N   UNL     1       5.702   3.638  18.297  0.00  0.00    +0.000 N 
ATOM      5  H   UNL     1       3.774   2.389  17.392  0.00  0.00    +0.000 HD
ATOM      6  H   UNL     1       6.575   3.673  18.803  0.00  0.00    +0.000 HD
ENDROOT
BRANCH   4   7
ATOM      7  C   UNL     1       5.675   4.197  17.000  0.00  0.00    +0.000 A 
ATOM      8  C   UNL     1       6.108   3.525  15.854  0.00  0.00    +0.000 A 
ATOM      9  C   UNL     1       6.145   4.183  14.626  0.00  0.00    +0.000 A 
ATOM     10  F   UNL     1       6.606   3.532  13.548  0.00  0.00    +0.000 F 
ATOM     11  C   UNL     1       5.718   5.491  14.504  0.00  0.00    +0.000 A 
ATOM     12  C   UNL     1       5.214   6.128  15.627  0.00  0.00    +0.000 A 
ATOM     13  F   UNL     1       4.767   7.387  15.523  0.00  0.00    +0.000 F 
ATOM     14  C   UNL     1       5.175   5.494  16.869  0.00  0.00    +0.000 A 
ENDBRANCH   4   7
BRANCH   3  15
ATOM     15  C   UNL     1       2.523   1.914  18.990  0.00  0.00    +0.000 C 
BRANCH  15  16
ATOM     16  C   UNL     1       1.188   2.692  18.967  0.00  0.00    +0.000 C 
ATOM     17  C   UNL     1       0.731   3.054  20.389  0.00  0.00    +0.000 C 
ATOM     18  C   UNL     1       1.721   4.000  21.063  0.00  0.00    +0.000 C 
ATOM     19  C   UNL     1       1.850   5.299  20.272  0.00  0.00    +0.000 C 
ATOM     20  C   UNL     1       2.100   5.089  18.777  0.00  0.00    +0.000 C 
ATOM     21  C   UNL     1       1.240   3.991  18.144  0.00  0.00    +0.000 C 
ENDBRANCH  15  16
ENDBRANCH   3  15
TORSDOF 3
ENDMDL
MODEL 4
REMARK VINA RESULT:      -8.2      1.685      1.924
REMARK  Name = 
REMARK  3 active torsions:
REMARK  status: ('A' for Active; 'I' for Inactive)
REMARK    1  A    between atoms: N_3  and  C_4
REMARK    2  A    between atoms: C_4  and  C_5
REMARK    3  A    between atoms: N_11  and  C_12
REMARK                            x       y       z     vdW  Elec       q    Type
REMARK                         _______ _______ _______ _____ _____    ______ ____
ROOT
ATOM      1  O   UNL     1       5.035   2.296  20.303  0.00  0.00    +0.000 OA
ATOM      2  C   UNL     1       4.815   2.864  19.234  0.00  0.00    +0.000 C 
ATOM      3  N   UNL     1       3.667   2.708  18.516  0.00  0.00    +0.000 N 
ATOM      4  N   UNL     1       5.785   3.655  18.682  0.00  0.00    +0.000 N 
ATOM      5  H   UNL     1       3.821   2.715  17.517  0.00  0.00    +0.000 HD
ATOM      6  H   UNL     1       6.668   3.543  19.160  0.00  0.00    +0.000 HD
ENDROOT
BRANCH   4   7
ATOM      7  C   UNL     1       5.745   4.540  17.583  0.00  0.00    +0.000 A 
ATOM      8  C   UNL     1       4.998   5.721  17.560  0.00  0.00    +0.000 A 
ATOM      9  C   UNL     1       4.931   6.487  16.398  0.00  0.00    +0.000 A 
ATOM     10  F   UNL     1       4.172   7.593  16.386  0.00  0.00    +0.000 F 
ATOM     11  C   UNL     1       5.630   6.126  15.263  0.00  0.00    +0.000 A 
ATOM     12  C   UNL     1       6.434   4.998  15.314  0.00  0.00    +0.000 A 
ATOM     13  F   UNL     1       7.143   4.647  14.233  0.00  0.00    +0.000 F 
ATOM     14  C   UNL     1       6.510   4.209  16.462  0.00  0.00    +0.000 A 
ENDBRANCH   4   7
BRANCH   3  15
ATOM     15  C   UNL     1       2.591   1.844  18.956  0.00  0.00    +0.000 C 
BRANCH  15  16
ATOM     16  C   UNL     1       1.224   2.564  18.961  0.00  0.00    +0.000 C 
ATOM     17  C   UNL     1       0.721   2.793  20.395  0.00  0.00    +0.000 C 
ATOM     18  C   UNL     1       1.653   3.724  21.165  0.00  0.00    +0.000 C 
ATOM     19  C   UNL     1       1.741   5.086  20.481  0.00  0.00    +0.000 C 
ATOM     20  C   UNL     1       2.032   5.005  18.980  0.00  0.00    +0.000 C 
ATOM     21  C   UNL     1       1.235   3.925  18.243  0.00  0.00    +0.000 C 
ENDBRANCH  15  16
ENDBRANCH   3  15
TORSDOF 3
ENDMDL
MODEL 5
REMARK VINA RESULT:      -8.2      1.161      2.064
REMARK  Name = 
REMARK  3 active torsions:
REMARK  status: ('A' for Active; 'I' for Inactive)
REMARK    1  A    between atoms: N_3  and  C_4
REMARK    2  A    between atoms: C_4  and  C_5
REMARK    3  A    between atoms: N_11  and  C_12
REMARK                            x       y       z     vdW  Elec       q    Type
REMARK                         _______ _______ _______ _____ _____    ______ ____
ROOT
ATOM      1  O   UNL     1       4.791   2.141  20.365  0.00  0.00    +0.000 OA
ATOM      2  C   UNL     1       4.713   2.806  19.332  0.00  0.00    +0.000 C 
ATOM      3  N   UNL     1       3.627   2.798  18.509  0.00  0.00    +0.000 N 
ATOM      4  N   UNL     1       5.784   3.558  18.934  0.00  0.00    +0.000 N 
ATOM      5  H   UNL     1       3.872   2.871  17.530  0.00  0.00    +0.000 HD
ATOM      6  H   UNL     1       6.608   3.340  19.475  0.00  0.00    +0.000 HD
ENDROOT
BRANCH   4   7
ATOM      7  C   UNL     1       5.909   4.527  17.915  0.00  0.00    +0.000 A 
ATOM      8  C   UNL     1       6.350   5.835  18.133  0.00  0.00    +0.000 A 
ATOM      9  C   UNL     1       6.347   6.760  17.090  0.00  0.00    +0.000 A 
ATOM     10  F   UNL     1       6.732   8.021  17.333  0.00  0.00    +0.000 F 
ATOM     11  C   UNL     1       5.954   6.399  15.817  0.00  0.00    +0.000 A 
ATOM     12  C   UNL     1       5.594   5.080  15.586  0.00  0.00    +0.000 A 
ATOM     13  F   UNL     1       5.238   4.703  14.351  0.00  0.00    +0.000 F 
ATOM     14  C   UNL     1       5.579   4.138  16.614  0.00  0.00    +0.000 A 
ENDBRANCH   4   7
BRANCH   3  15
ATOM     15  C   UNL     1       2.455   1.991  18.780  0.00  0.00    +0.000 C 
BRANCH  15  16
ATOM     16  C   UNL     1       1.147   2.809  18.700  0.00  0.00    +0.000 C 
ATOM     17  C   UNL     1       0.554   3.048  20.097  0.00  0.00    +0.000 C 
ATOM     18  C   UNL     1       1.489   3.894  20.956  0.00  0.00    +0.000 C 
ATOM     19  C   UNL     1       1.726   5.258  20.312  0.00  0.00    +0.000 C 
ATOM     20  C   UNL     1       2.124   5.183  18.836  0.00  0.00    +0.000 C 
ATOM     21  C   UNL     1       1.310   4.177  18.017  0.00  0.00    +0.000 C 
ENDBRANCH  15  16
ENDBRANCH   3  15
TORSDOF 3
ENDMDL
MODEL 6
REMARK VINA RESULT:      -8.1      1.234      1.286
REMARK  Name = 
REMARK  3 active torsions:
REMARK  status: ('A' for Active; 'I' for Inactive)
REMARK    1  A    between atoms: N_3  and  C_4
REMARK    2  A    between atoms: C_4  and  C_5
REMARK    3  A    between atoms: N_11  and  C_12
REMARK                            x       y       z     vdW  Elec       q    Type
REMARK                         _______ _______ _______ _____ _____    ______ ____
ROOT
ATOM      1  O   UNL     1       4.643   2.363  20.342  0.00  0.00    +0.000 OA
ATOM      2  C   UNL     1       4.733   2.940  19.258  0.00  0.00    +0.000 C 
ATOM      3  N   UNL     1       3.775   2.886  18.291  0.00  0.00    +0.000 N 
ATOM      4  N   UNL     1       5.874   3.633  18.959  0.00  0.00    +0.000 N 
ATOM      5  H   UNL     1       4.158   2.871  17.356  0.00  0.00    +0.000 HD
ATOM      6  H   UNL     1       6.607   3.443  19.628  0.00  0.00    +0.000 HD
ENDROOT
BRANCH   4   7
ATOM      7  C   UNL     1       6.174   4.509  17.893  0.00  0.00    +0.000 A 
ATOM      8  C   UNL     1       6.311   4.100  16.564  0.00  0.00    +0.000 A 
ATOM      9  C   UNL     1       6.709   5.011  15.587  0.00  0.00    +0.000 A 
ATOM     10  F   UNL     1       6.877   4.586  14.326  0.00  0.00    +0.000 F 
ATOM     11  C   UNL     1       6.936   6.338  15.897  0.00  0.00    +0.000 A 
ATOM     12  C   UNL     1       6.721   6.757  17.201  0.00  0.00    +0.000 A 
ATOM     13  F   UNL     1       6.907   8.045  17.516  0.00  0.00    +0.000 F 
ATOM     14  C   UNL     1       6.332   5.863  18.199  0.00  0.00    +0.000 A 
ENDBRANCH   4   7
BRANCH   3  15
ATOM     15  C   UNL     1       2.550   2.131  18.456  0.00  0.00    +0.000 C 
BRANCH  15  16
ATOM     16  C   UNL     1       1.292   3.021  18.351  0.00  0.00    +0.000 C 
ATOM     17  C   UNL     1       0.514   3.042  19.676  0.00  0.00    +0.000 C 
ATOM     18  C   UNL     1       1.342   3.670  20.793  0.00  0.00    +0.000 C 
ATOM     19  C   UNL     1       1.709   5.111  20.448  0.00  0.00    +0.000 C 
ATOM     20  C   UNL     1       2.310   5.276  19.050  0.00  0.00    +0.000 C 
ATOM     21  C   UNL     1       1.591   4.478  17.959  0.00  0.00    +0.000 C 
ENDBRANCH  15  16
ENDBRANCH   3  15
TORSDOF 3
ENDMDL
MODEL 7
REMARK VINA RESULT:      -8.1      2.755      3.125
REMARK  Name = 
REMARK  3 active torsions:
REMARK  status: ('A' for Active; 'I' for Inactive)
REMARK    1  A    between atoms: N_3  and  C_4
REMARK    2  A    between atoms: C_4  and  C_5
REMARK    3  A    between atoms: N_11  and  C_12
REMARK                            x       y       z     vdW  Elec       q    Type
REMARK                         _______ _______ _______ _____ _____    ______ ____
ROOT
ATOM      1  O   UNL     1       5.640   4.115  19.062  0.00  0.00    +0.000 OA
ATOM      2  C   UNL     1       5.508   3.911  17.856  0.00  0.00    +0.000 C 
ATOM      3  N   UNL     1       4.476   3.203  17.317  0.00  0.00    +0.000 N 
ATOM      4  N   UNL     1       6.467   4.359  16.990  0.00  0.00    +0.000 N 
ATOM      5  H   UNL     1       4.752   2.646  16.520  0.00  0.00    +0.000 HD
ATOM      6  H   UNL     1       7.290   4.676  17.483  0.00  0.00    +0.000 HD
ENDROOT
BRANCH   4   7
ATOM      7  C   UNL     1       6.489   4.417  15.579  0.00  0.00    +0.000 A 
ATOM      8  C   UNL     1       5.511   3.844  14.761  0.00  0.00    +0.000 A 
ATOM      9  C   UNL     1       5.660   3.857  13.375  0.00  0.00    +0.000 A 
ATOM     10  F   UNL     1       4.731   3.262  12.612  0.00  0.00    +0.000 F 
ATOM     11  C   UNL     1       6.745   4.469  12.779  0.00  0.00    +0.000 A 
ATOM     12  C   UNL     1       7.671   5.106  13.590  0.00  0.00    +0.000 A 
ATOM     13  F   UNL     1       8.715   5.731  13.029  0.00  0.00    +0.000 F 
ATOM     14  C   UNL     1       7.550   5.099  14.979  0.00  0.00    +0.000 A 
ENDBRANCH   4   7
BRANCH   3  15
ATOM     15  C   UNL     1       3.431   2.616  18.132  0.00  0.00    +0.000 C 
BRANCH  15  16
ATOM     16  C   UNL     1       2.048   3.245  17.855  0.00  0.00    +0.000 C 
ATOM     17  C   UNL     1       0.955   2.581  18.706  0.00  0.00    +0.000 C 
ATOM     18  C   UNL     1       1.196   2.814  20.195  0.00  0.00    +0.000 C 
ATOM     19  C   UNL     1       1.191   4.307  20.515  0.00  0.00    +0.000 C 
ATOM     20  C   UNL     1       2.087   5.138  19.594  0.00  0.00    +0.000 C 
ATOM     21  C   UNL     1       1.990   4.760  18.113  0.00  0.00    +0.000 C 
ENDBRANCH  15  16
ENDBRANCH   3  15
TORSDOF 3
ENDMDL
MODEL 8
REMARK VINA RESULT:      -8.0      2.433      3.037
REMARK  Name = 
REMARK  3 active torsions:
REMARK  status: ('A' for Active; 'I' for Inactive)
REMARK    1  A    between atoms: N_3  and  C_4
REMARK    2  A    between atoms: C_4  and  C_5
REMARK    3  A    between atoms: N_11  and  C_12
REMARK                            x       y       z     vdW  Elec       q    Type
REMARK                         _______ _______ _______ _____ _____    ______ ____
ROOT
ATOM      1  O   UNL     1       2.281   7.286  18.225  0.00  0.00    +0.000 OA
ATOM      2  C   UNL     1       3.071   6.420  17.848  0.00  0.00    +0.000 C 
ATOM      3  N   UNL     1       2.788   5.087  17.850  0.00  0.00    +0.000 N 
ATOM      4  N   UNL     1       4.330   6.783  17.458  0.00  0.00    +0.000 N 
ATOM      5  H   UNL     1       3.587   4.513  18.084  0.00  0.00    +0.000 HD
ATOM      6  H   UNL     1       4.525   7.747  17.691  0.00  0.00    +0.000 HD
ENDROOT
BRANCH   4   7
ATOM      7  C   UNL     1       5.357   6.042  16.832  0.00  0.00    +0.000 A 
ATOM      8  C   UNL     1       5.417   5.802  15.456  0.00  0.00    +0.000 A 
ATOM      9  C   UNL     1       6.407   4.975  14.931  0.00  0.00    +0.000 A 
ATOM     10  F   UNL     1       6.418   4.723  13.614  0.00  0.00    +0.000 F 
ATOM     11  C   UNL     1       7.372   4.412  15.743  0.00  0.00    +0.000 A 
ATOM     12  C   UNL     1       7.357   4.717  17.095  0.00  0.00    +0.000 A 
ATOM     13  F   UNL     1       8.302   4.204  17.894  0.00  0.00    +0.000 F 
ATOM     14  C   UNL     1       6.371   5.534  17.647  0.00  0.00    +0.000 A 
ENDBRANCH   4   7
BRANCH   3  15
ATOM     15  C   UNL     1       1.515   4.566  18.305  0.00  0.00    +0.000 C 
BRANCH  15  16
ATOM     16  C   UNL     1       1.545   3.034  18.506  0.00  0.00    +0.000 C 
ATOM     17  C   UNL     1       2.975   2.536  18.767  0.00  0.00    +0.000 C 
ATOM     18  C   UNL     1       3.531   3.109  20.068  0.00  0.00    +0.000 C 
ATOM     19  C   UNL     1       2.668   2.689  21.255  0.00  0.00    +0.000 C 
ATOM     20  C   UNL     1       1.172   2.934  21.048  0.00  0.00    +0.000 C 
ATOM     21  C   UNL     1       0.657   2.541  19.661  0.00  0.00    +0.000 C 
ENDBRANCH  15  16
ENDBRANCH   3  15
TORSDOF 3
ENDMDL
MODEL 9
REMARK VINA RESULT:      -8.0      2.375      3.095
REMARK  Name = 
REMARK  3 active torsions:
REMARK  status: ('A' for Active; 'I' for Inactive)
REMARK    1  A    between atoms: N_3  and  C_4
REMARK    2  A    between atoms: C_4  and  C_5
REMARK    3  A    between atoms: N_11  and  C_12
REMARK                            x       y       z     vdW  Elec       q    Type
REMARK                         _______ _______ _______ _____ _____    ______ ____
ROOT
ATOM      1  O   UNL     1       2.119   7.512  18.559  0.00  0.00    +0.000 OA
ATOM      2  C   UNL     1       3.060   6.722  18.490  0.00  0.00    +0.000 C 
ATOM      3  N   UNL     1       3.195   5.635  19.300  0.00  0.00    +0.000 N 
ATOM      4  N   UNL     1       4.072   6.958  17.600  0.00  0.00    +0.000 N 
ATOM      5  H   UNL     1       4.156   5.443  19.548  0.00  0.00    +0.000 HD
ATOM      6  H   UNL     1       4.003   7.883  17.200  0.00  0.00    +0.000 HD
ENDROOT
BRANCH   4   7
ATOM      7  C   UNL     1       5.158   6.151  17.196  0.00  0.00    +0.000 A 
ATOM      8  C   UNL     1       5.211   5.470  15.976  0.00  0.00    +0.000 A 
ATOM      9  C   UNL     1       6.273   4.613  15.697  0.00  0.00    +0.000 A 
ATOM     10  F   UNL     1       6.281   3.936  14.539  0.00  0.00    +0.000 F 
ATOM     11  C   UNL     1       7.313   4.448  16.591  0.00  0.00    +0.000 A 
ATOM     12  C   UNL     1       7.297   5.187  17.765  0.00  0.00    +0.000 A 
ATOM     13  F   UNL     1       8.310   5.064  18.632  0.00  0.00    +0.000 F 
ATOM     14  C   UNL     1       6.240   6.044  18.072  0.00  0.00    +0.000 A 
ENDBRANCH   4   7
BRANCH   3  15
ATOM     15  C   UNL     1       2.229   5.312  20.331  0.00  0.00    +0.000 C 
BRANCH  15  16
ATOM     16  C   UNL     1       2.427   3.888  20.896  0.00  0.00    +0.000 C 
ATOM     17  C   UNL     1       1.113   3.091  20.868  0.00  0.00    +0.000 C 
ATOM     18  C   UNL     1       0.627   2.877  19.438  0.00  0.00    +0.000 C 
ATOM     19  C   UNL     1       1.660   2.098  18.628  0.00  0.00    +0.000 C 
ATOM     20  C   UNL     1       3.079   2.661  18.732  0.00  0.00    +0.000 C 
ATOM     21  C   UNL     1       3.492   3.065  20.151  0.00  0.00    +0.000 C 
ENDBRANCH  15  16
ENDBRANCH   3  15
TORSDOF 3
ENDMDL
