MODEL 1
REMARK VINA RESULT:      -5.9      0.000      0.000
REMARK  Name = 
REMARK  8 active torsions:
REMARK  status: ('A' for Active; 'I' for Inactive)
REMARK    1  A    between atoms: C_1  and  C_2
REMARK    2  A    between atoms: C_2  and  O_3
REMARK    3  A    between atoms: O_3  and  C_4
REMARK    4  A    between atoms: C_9  and  C_10
REMARK    5  A    between atoms: C_11  and  C_12
REMARK    6  A    between atoms: C_14  and  N_15
REMARK    7  A    between atoms: C_19  and  C_20
REMARK    8  A    between atoms: N_21  and  C_22
REMARK                            x       y       z     vdW  Elec       q    Type
REMARK                         _______ _______ _______ _____ _____    ______ ____
ROOT
ATOM      1  C   UNL     1       3.197   6.030  18.339  0.00  0.00    +0.000 C 
ATOM      2  C   UNL     1       2.662   7.335  18.895  0.00  0.00    +0.000 C 
ATOM      3  C   UNL     1       1.876   7.386  19.989  0.00  0.00    +0.000 C 
ATOM      4  O   UNL     1       1.603   6.228  20.729  0.00  0.00    +0.000 OA
ATOM      5  C   UNL     1       1.989   4.993  20.232  0.00  0.00    +0.000 A 
ATOM      6  C   UNL     1       1.735   3.861  21.082  0.00  0.00    +0.000 A 
ATOM      7  C   UNL     1       2.273   2.660  20.791  0.00  0.00    +0.000 A 
ATOM      8  C   UNL     1       2.202   1.533  21.777  0.00  0.00    +0.000 C 
ATOM      9  N   UNL     1       2.918   2.470  19.563  0.00  0.00    +0.000 N 
ATOM     10  C   UNL     1       3.549   1.217  19.179  0.00  0.00    +0.000 C 
ATOM     11  C   UNL     1       2.995   3.484  18.607  0.00  0.00    +0.000 A 
ATOM     12  O   UNL     1       3.340   3.299  17.446  0.00  0.00    +0.000 OA
ATOM     13  C   UNL     1       2.676   4.851  19.096  0.00  0.00    +0.000 A 
ENDROOT
BRANCH   1  19
ATOM     14  C   UNL     1       5.435   6.388  17.013  0.00  0.00    +0.000 A 
ATOM     15  C   UNL     1       6.806   6.679  17.146  0.00  0.00    +0.000 A 
ATOM     16  C   UNL     1       7.509   6.367  18.306  0.00  0.00    +0.000 A 
ATOM     17  C   UNL     1       6.849   5.764  19.361  0.00  0.00    +0.000 A 
ATOM     18  C   UNL     1       5.470   5.559  19.288  0.00  0.00    +0.000 A 
ATOM     19  C   UNL     1       4.722   5.928  18.143  0.00  0.00    +0.000 A 
BRANCH  14  20
ATOM     20  O   UNL     1       4.769   6.550  15.817  0.00  0.00    +0.000 OA
BRANCH  20  22
ATOM     21  C   UNL     1       5.383   4.375  14.877  0.00  0.00    +0.000 C 
ATOM     22  C   UNL     1       5.408   5.882  14.711  0.00  0.00    +0.000 C 
ENDBRANCH  20  22
ENDBRANCH  14  20
ENDBRANCH   1  19
BRANCH   3  23
ATOM     23  N   UNL     1       1.247   8.509  20.470  0.00  0.00    +0.000 N 
ATOM     24  H   UNL     1       1.778   9.055  21.143  0.00  0.00    +0.000 HD
ATOM     25  H   UNL     1       0.290   8.328  20.755  0.00  0.00    +0.000 HD
ENDBRANCH   3  23
BRANCH   2  26
ATOM     26  C   UNL     1       2.887   8.534  17.988  0.00  0.00    +0.000 C 
ATOM     27  N   UNL     1       3.072   9.528  17.236  0.00  0.00    +0.000 NA
ENDBRANCH   2  26
TORSDOF 5
ENDMDL
MODEL 2
REMARK VINA RESULT:      -5.7      6.309      9.760
REMARK  Name = 
REMARK  8 active torsions:
REMARK  status: ('A' for Active; 'I' for Inactive)
REMARK    1  A    between atoms: C_1  and  C_2
REMARK    2  A    between atoms: C_2  and  O_3
REMARK    3  A    between atoms: O_3  and  C_4
REMARK    4  A    between atoms: C_9  and  C_10
REMARK    5  A    between atoms: C_11  and  C_12
REMARK    6  A    between atoms: C_14  and  N_15
REMARK    7  A    between atoms: C_19  and  C_20
REMARK    8  A    between atoms: N_21  and  C_22
REMARK                            x       y       z     vdW  Elec       q    Type
REMARK                         _______ _______ _______ _____ _____    ______ ____
ROOT
ATOM      1  C   UNL     1      -1.277  11.274  19.451  0.00  0.00    +0.000 C 
ATOM      2  C   UNL     1       0.061  10.565  19.528  0.00  0.00    +0.000 C 
ATOM      3  C   UNL     1       0.466   9.683  18.593  0.00  0.00    +0.000 C 
ATOM      4  O   UNL     1      -0.297   9.462  17.438  0.00  0.00    +0.000 OA
ATOM      5  C   UNL     1      -1.566  10.013  17.343  0.00  0.00    +0.000 A 
ATOM      6  C   UNL     1      -2.258   9.799  16.100  0.00  0.00    +0.000 A 
ATOM      7  C   UNL     1      -3.389  10.478  15.829  0.00  0.00    +0.000 A 
ATOM      8  C   UNL     1      -3.996  10.432  14.458  0.00  0.00    +0.000 C 
ATOM      9  N   UNL     1      -3.994  11.245  16.830  0.00  0.00    +0.000 N 
ATOM     10  C   UNL     1      -5.199  12.030  16.616  0.00  0.00    +0.000 C 
ATOM     11  C   UNL     1      -3.476  11.305  18.125  0.00  0.00    +0.000 A 
ATOM     12  O   UNL     1      -4.087  11.769  19.082  0.00  0.00    +0.000 OA
ATOM     13  C   UNL     1      -2.084  10.809  18.282  0.00  0.00    +0.000 A 
ENDROOT
BRANCH   1  19
ATOM     14  C   UNL     1      -1.698  13.586  20.624  0.00  0.00    +0.000 A 
ATOM     15  C   UNL     1      -1.201  14.894  20.780  0.00  0.00    +0.000 A 
ATOM     16  C   UNL     1      -0.423  15.501  19.799  0.00  0.00    +0.000 A 
ATOM     17  C   UNL     1      -0.119  14.805  18.644  0.00  0.00    +0.000 A 
ATOM     18  C   UNL     1      -0.518  13.473  18.513  0.00  0.00    +0.000 A 
ATOM     19  C   UNL     1      -1.256  12.814  19.526  0.00  0.00    +0.000 A 
BRANCH  14  20
ATOM     20  O   UNL     1      -2.595  13.037  21.516  0.00  0.00    +0.000 OA
BRANCH  20  22
ATOM     21  C   UNL     1      -1.880  11.471  23.256  0.00  0.00    +0.000 C 
ATOM     22  C   UNL     1      -2.073  12.921  22.854  0.00  0.00    +0.000 C 
ENDBRANCH  20  22
ENDBRANCH  14  20
ENDBRANCH   1  19
BRANCH   3  23
ATOM     23  N   UNL     1       1.596   8.905  18.664  0.00  0.00    +0.000 N 
ATOM     24  H   UNL     1       2.048   8.870  19.574  0.00  0.00    +0.000 HD
ATOM     25  H   UNL     1       2.237   9.078  17.895  0.00  0.00    +0.000 HD
ENDBRANCH   3  23
BRANCH   2  26
ATOM     26  C   UNL     1       0.784  10.748  20.853  0.00  0.00    +0.000 C 
ATOM     27  N   UNL     1       1.384  10.900  21.951  0.00  0.00    +0.000 NA
ENDBRANCH   2  26
TORSDOF 5
ENDMDL
MODEL 3
REMARK VINA RESULT:      -5.7      1.815      4.591
REMARK  Name = 
REMARK  8 active torsions:
REMARK  status: ('A' for Active; 'I' for Inactive)
REMARK    1  A    between atoms: C_1  and  C_2
REMARK    2  A    between atoms: C_2  and  O_3
REMARK    3  A    between atoms: O_3  and  C_4
REMARK    4  A    between atoms: C_9  and  C_10
REMARK    5  A    between atoms: C_11  and  C_12
REMARK    6  A    between atoms: C_14  and  N_15
REMARK    7  A    between atoms: C_19  and  C_20
REMARK    8  A    between atoms: N_21  and  C_22
REMARK                            x       y       z     vdW  Elec       q    Type
REMARK                         _______ _______ _______ _____ _____    ______ ____
ROOT
ATOM      1  C   UNL     1       2.904   6.670  19.566  0.00  0.00    +0.000 C 
ATOM      2  C   UNL     1       1.944   7.807  19.276  0.00  0.00    +0.000 C 
ATOM      3  C   UNL     1       1.997   8.524  18.136  0.00  0.00    +0.000 C 
ATOM      4  O   UNL     1       2.885   8.173  17.110  0.00  0.00    +0.000 OA
ATOM      5  C   UNL     1       3.845   7.200  17.341  0.00  0.00    +0.000 A 
ATOM      6  C   UNL     1       4.672   6.847  16.218  0.00  0.00    +0.000 A 
ATOM      7  C   UNL     1       5.471   5.764  16.278  0.00  0.00    +0.000 A 
ATOM      8  C   UNL     1       6.167   5.260  15.049  0.00  0.00    +0.000 C 
ATOM      9  N   UNL     1       5.640   5.095  17.496  0.00  0.00    +0.000 N 
ATOM     10  C   UNL     1       6.461   3.904  17.645  0.00  0.00    +0.000 C 
ATOM     11  C   UNL     1       5.027   5.537  18.670  0.00  0.00    +0.000 A 
ATOM     12  O   UNL     1       5.323   5.128  19.787  0.00  0.00    +0.000 OA
ATOM     13  C   UNL     1       3.929   6.520  18.487  0.00  0.00    +0.000 A 
ENDROOT
BRANCH   1  19
ATOM     14  C   UNL     1       1.898   4.312  18.997  0.00  0.00    +0.000 A 
ATOM     15  C   UNL     1       1.805   2.975  19.432  0.00  0.00    +0.000 A 
ATOM     16  C   UNL     1       1.915   2.636  20.778  0.00  0.00    +0.000 A 
ATOM     17  C   UNL     1       2.130   3.630  21.715  0.00  0.00    +0.000 A 
ATOM     18  C   UNL     1       2.325   4.947  21.295  0.00  0.00    +0.000 A 
ATOM     19  C   UNL     1       2.282   5.306  19.925  0.00  0.00    +0.000 A 
BRANCH  14  20
ATOM     20  O   UNL     1       1.636   4.672  17.693  0.00  0.00    +0.000 OA
BRANCH  20  22
ATOM     21  C   UNL     1       3.125   2.756  17.377  0.00  0.00    +0.000 C 
ATOM     22  C   UNL     1       2.213   3.776  16.723  0.00  0.00    +0.000 C 
ENDBRANCH  20  22
ENDBRANCH  14  20
ENDBRANCH   1  19
BRANCH   3  23
ATOM     23  N   UNL     1       1.256   9.647  17.863  0.00  0.00    +0.000 N 
ATOM     24  H   UNL     1       1.557  10.187  17.056  0.00  0.00    +0.000 HD
ATOM     25  H   UNL     1       1.083  10.211  18.690  0.00  0.00    +0.000 HD
ENDBRANCH   3  23
BRANCH   2  26
ATOM     26  C   UNL     1       1.093   8.218  20.467  0.00  0.00    +0.000 C 
ATOM     27  N   UNL     1       0.387   8.558  21.453  0.00  0.00    +0.000 NA
ENDBRANCH   2  26
TORSDOF 5
ENDMDL
MODEL 4
REMARK VINA RESULT:      -5.7      5.596      8.989
REMARK  Name = 
REMARK  8 active torsions:
REMARK  status: ('A' for Active; 'I' for Inactive)
REMARK    1  A    between atoms: C_1  and  C_2
REMARK    2  A    between atoms: C_2  and  O_3
REMARK    3  A    between atoms: O_3  and  C_4
REMARK    4  A    between atoms: C_9  and  C_10
REMARK    5  A    between atoms: C_11  and  C_12
REMARK    6  A    between atoms: C_14  and  N_15
REMARK    7  A    between atoms: C_19  and  C_20
REMARK    8  A    between atoms: N_21  and  C_22
REMARK                            x       y       z     vdW  Elec       q    Type
REMARK                         _______ _______ _______ _____ _____    ______ ____
ROOT
ATOM      1  C   UNL     1       0.242  11.129  20.581  0.00  0.00    +0.000 C 
ATOM      2  C   UNL     1       0.123  10.034  21.623  0.00  0.00    +0.000 C 
ATOM      3  C   UNL     1      -0.287  10.279  22.884  0.00  0.00    +0.000 C 
ATOM      4  O   UNL     1      -0.728  11.555  23.259  0.00  0.00    +0.000 OA
ATOM      5  C   UNL     1      -0.567  12.618  22.383  0.00  0.00    +0.000 A 
ATOM      6  C   UNL     1      -1.108  13.879  22.813  0.00  0.00    +0.000 A 
ATOM      7  C   UNL     1      -1.204  14.906  21.946  0.00  0.00    +0.000 A 
ATOM      8  C   UNL     1      -1.963  16.147  22.314  0.00  0.00    +0.000 C 
ATOM      9  N   UNL     1      -0.604  14.807  20.686  0.00  0.00    +0.000 N 
ATOM     10  C   UNL     1      -0.681  15.855  19.680  0.00  0.00    +0.000 C 
ATOM     11  C   UNL     1       0.127  13.679  20.305  0.00  0.00    +0.000 A 
ATOM     12  O   UNL     1       0.853  13.641  19.318  0.00  0.00    +0.000 OA
ATOM     13  C   UNL     1      -0.065  12.476  21.154  0.00  0.00    +0.000 A 
ENDROOT
BRANCH   1  19
ATOM     14  C   UNL     1      -0.044  10.139  18.166  0.00  0.00    +0.000 A 
ATOM     15  C   UNL     1      -0.979   9.628  17.245  0.00  0.00    +0.000 A 
ATOM     16  C   UNL     1      -2.320  10.002  17.282  0.00  0.00    +0.000 A 
ATOM     17  C   UNL     1      -2.752  10.889  18.250  0.00  0.00    +0.000 A 
ATOM     18  C   UNL     1      -1.863  11.329  19.232  0.00  0.00    +0.000 A 
ATOM     19  C   UNL     1      -0.509  10.913  19.253  0.00  0.00    +0.000 A 
BRANCH  14  20
ATOM     20  O   UNL     1       1.307   9.898  18.040  0.00  0.00    +0.000 OA
BRANCH  20  22
ATOM     21  C   UNL     1       3.016   8.153  17.875  0.00  0.00    +0.000 C 
ATOM     22  C   UNL     1       1.609   8.591  17.513  0.00  0.00    +0.000 C 
ENDBRANCH  20  22
ENDBRANCH  14  20
ENDBRANCH   1  19
BRANCH   3  23
ATOM     23  N   UNL     1      -0.290   9.370  23.914  0.00  0.00    +0.000 N 
ATOM     24  H   UNL     1      -0.913   8.575  23.796  0.00  0.00    +0.000 HD
ATOM     25  H   UNL     1      -0.359   9.813  24.825  0.00  0.00    +0.000 HD
ENDBRANCH   3  23
BRANCH   2  26
ATOM     26  C   UNL     1       0.728   8.706  21.199  0.00  0.00    +0.000 C 
ATOM     27  N   UNL     1       1.229   7.604  20.846  0.00  0.00    +0.000 NA
ENDBRANCH   2  26
TORSDOF 5
ENDMDL
MODEL 5
REMARK VINA RESULT:      -5.6      6.558     10.239
REMARK  Name = 
REMARK  8 active torsions:
REMARK  status: ('A' for Active; 'I' for Inactive)
REMARK    1  A    between atoms: C_1  and  C_2
REMARK    2  A    between atoms: C_2  and  O_3
REMARK    3  A    between atoms: O_3  and  C_4
REMARK    4  A    between atoms: C_9  and  C_10
REMARK    5  A    between atoms: C_11  and  C_12
REMARK    6  A    between atoms: C_14  and  N_15
REMARK    7  A    between atoms: C_19  and  C_20
REMARK    8  A    between atoms: N_21  and  C_22
REMARK                            x       y       z     vdW  Elec       q    Type
REMARK                         _______ _______ _______ _____ _____    ______ ____
ROOT
ATOM      1  C   UNL     1      -0.966  12.452  19.780  0.00  0.00    +0.000 C 
ATOM      2  C   UNL     1      -0.548  11.241  18.969  0.00  0.00    +0.000 C 
ATOM      3  C   UNL     1       0.744  10.965  18.696  0.00  0.00    +0.000 C 
ATOM      4  O   UNL     1       1.773  11.738  19.250  0.00  0.00    +0.000 OA
ATOM      5  C   UNL     1       1.461  12.905  19.930  0.00  0.00    +0.000 A 
ATOM      6  C   UNL     1       2.567  13.604  20.529  0.00  0.00    +0.000 A 
ATOM      7  C   UNL     1       2.343  14.613  21.393  0.00  0.00    +0.000 A 
ATOM      8  C   UNL     1       3.471  15.201  22.188  0.00  0.00    +0.000 C 
ATOM      9  N   UNL     1       1.044  15.105  21.562  0.00  0.00    +0.000 N 
ATOM     10  C   UNL     1       0.709  16.171  22.492  0.00  0.00    +0.000 C 
ATOM     11  C   UNL     1      -0.034  14.601  20.832  0.00  0.00    +0.000 A 
ATOM     12  O   UNL     1      -1.131  15.146  20.776  0.00  0.00    +0.000 OA
ATOM     13  C   UNL     1       0.206  13.306  20.146  0.00  0.00    +0.000 A 
ENDROOT
BRANCH   1  19
ATOM     14  C   UNL     1      -1.409  11.767  22.276  0.00  0.00    +0.000 A 
ATOM     15  C   UNL     1      -2.208  12.026  23.406  0.00  0.00    +0.000 A 
ATOM     16  C   UNL     1      -3.498  12.536  23.286  0.00  0.00    +0.000 A 
ATOM     17  C   UNL     1      -4.010  12.806  22.031  0.00  0.00    +0.000 A 
ATOM     18  C   UNL     1      -3.199  12.650  20.905  0.00  0.00    +0.000 A 
ATOM     19  C   UNL     1      -1.862  12.194  21.007  0.00  0.00    +0.000 A 
BRANCH  14  20
ATOM     20  O   UNL     1      -0.197  11.119  22.376  0.00  0.00    +0.000 OA
BRANCH  20  22
ATOM     21  C   UNL     1      -0.246   8.755  21.743  0.00  0.00    +0.000 C 
ATOM     22  C   UNL     1      -0.307   9.769  22.869  0.00  0.00    +0.000 C 
ENDBRANCH  20  22
ENDBRANCH  14  20
ENDBRANCH   1  19
BRANCH   3  23
ATOM     23  N   UNL     1       1.189   9.971  17.860  0.00  0.00    +0.000 N 
ATOM     24  H   UNL     1       0.664   9.855  16.997  0.00  0.00    +0.000 HD
ATOM     25  H   UNL     1       1.366   9.100  18.351  0.00  0.00    +0.000 HD
ENDBRANCH   3  23
BRANCH   2  26
ATOM     26  C   UNL     1      -1.702  10.517  18.296  0.00  0.00    +0.000 C 
ATOM     27  N   UNL     1      -2.660   9.916  17.739  0.00  0.00    +0.000 NA
ENDBRANCH   2  26
TORSDOF 5
ENDMDL
MODEL 6
REMARK VINA RESULT:      -5.6      8.289     11.125
REMARK  Name = 
REMARK  8 active torsions:
REMARK  status: ('A' for Active; 'I' for Inactive)
REMARK    1  A    between atoms: C_1  and  C_2
REMARK    2  A    between atoms: C_2  and  O_3
REMARK    3  A    between atoms: O_3  and  C_4
REMARK    4  A    between atoms: C_9  and  C_10
REMARK    5  A    between atoms: C_11  and  C_12
REMARK    6  A    between atoms: C_14  and  N_15
REMARK    7  A    between atoms: C_19  and  C_20
REMARK    8  A    between atoms: N_21  and  C_22
REMARK                            x       y       z     vdW  Elec       q    Type
REMARK                         _______ _______ _______ _____ _____    ______ ____
ROOT
ATOM      1  C   UNL     1      -2.433  13.770  22.155  0.00  0.00    +0.000 C 
ATOM      2  C   UNL     1      -1.805  14.612  23.248  0.00  0.00    +0.000 C 
ATOM      3  C   UNL     1      -2.524  15.134  24.262  0.00  0.00    +0.000 C 
ATOM      4  O   UNL     1      -3.883  14.827  24.408  0.00  0.00    +0.000 OA
ATOM      5  C   UNL     1      -4.539  14.134  23.401  0.00  0.00    +0.000 A 
ATOM      6  C   UNL     1      -5.914  13.797  23.656  0.00  0.00    +0.000 A 
ATOM      7  C   UNL     1      -6.562  12.937  22.847  0.00  0.00    +0.000 A 
ATOM      8  C   UNL     1      -7.915  12.409  23.222  0.00  0.00    +0.000 C 
ATOM      9  N   UNL     1      -5.961  12.522  21.654  0.00  0.00    +0.000 N 
ATOM     10  C   UNL     1      -6.577  11.576  20.736  0.00  0.00    +0.000 C 
ATOM     11  C   UNL     1      -4.711  12.999  21.254  0.00  0.00    +0.000 A 
ATOM     12  O   UNL     1      -4.253  12.846  20.127  0.00  0.00    +0.000 OA
ATOM     13  C   UNL     1      -3.918  13.679  22.310  0.00  0.00    +0.000 A 
ENDROOT
BRANCH   1  19
ATOM     14  C   UNL     1      -1.109  11.992  20.748  0.00  0.00    +0.000 A 
ATOM     15  C   UNL     1      -0.211  10.910  20.831  0.00  0.00    +0.000 A 
ATOM     16  C   UNL     1      -0.133  10.111  21.968  0.00  0.00    +0.000 A 
ATOM     17  C   UNL     1      -0.947  10.387  23.051  0.00  0.00    +0.000 A 
ATOM     18  C   UNL     1      -1.771  11.514  23.028  0.00  0.00    +0.000 A 
ATOM     19  C   UNL     1      -1.820  12.378  21.906  0.00  0.00    +0.000 A 
BRANCH  14  20
ATOM     20  O   UNL     1      -1.304  12.688  19.575  0.00  0.00    +0.000 OA
BRANCH  20  22
ATOM     21  C   UNL     1       0.132  14.641  19.234  0.00  0.00    +0.000 C 
ATOM     22  C   UNL     1      -0.080  13.161  18.979  0.00  0.00    +0.000 C 
ENDBRANCH  20  22
ENDBRANCH  14  20
ENDBRANCH   1  19
BRANCH   3  23
ATOM     23  N   UNL     1      -2.052  16.012  25.207  0.00  0.00    +0.000 N 
ATOM     24  H   UNL     1      -1.077  16.281  25.109  0.00  0.00    +0.000 HD
ATOM     25  H   UNL     1      -2.309  15.743  26.152  0.00  0.00    +0.000 HD
ENDBRANCH   3  23
BRANCH   2  26
ATOM     26  C   UNL     1      -0.364  15.010  22.972  0.00  0.00    +0.000 C 
ATOM     27  N   UNL     1       0.831  15.340  22.744  0.00  0.00    +0.000 NA
ENDBRANCH   2  26
TORSDOF 5
ENDMDL
MODEL 7
REMARK VINA RESULT:      -5.5      7.375     10.290
REMARK  Name = 
REMARK  8 active torsions:
REMARK  status: ('A' for Active; 'I' for Inactive)
REMARK    1  A    between atoms: C_1  and  C_2
REMARK    2  A    between atoms: C_2  and  O_3
REMARK    3  A    between atoms: O_3  and  C_4
REMARK    4  A    between atoms: C_9  and  C_10
REMARK    5  A    between atoms: C_11  and  C_12
REMARK    6  A    between atoms: C_14  and  N_15
REMARK    7  A    between atoms: C_19  and  C_20
REMARK    8  A    between atoms: N_21  and  C_22
REMARK                            x       y       z     vdW  Elec       q    Type
REMARK                         _______ _______ _______ _____ _____    ______ ____
ROOT
ATOM      1  C   UNL     1      -1.127  13.322  21.187  0.00  0.00    +0.000 C 
ATOM      2  C   UNL     1      -0.085  14.203  21.849  0.00  0.00    +0.000 C 
ATOM      3  C   UNL     1      -0.415  15.211  22.680  0.00  0.00    +0.000 C 
ATOM      4  O   UNL     1      -1.748  15.423  23.057  0.00  0.00    +0.000 OA
ATOM      5  C   UNL     1      -2.757  14.710  22.427  0.00  0.00    +0.000 A 
ATOM      6  C   UNL     1      -4.090  14.933  22.917  0.00  0.00    +0.000 A 
ATOM      7  C   UNL     1      -5.099  14.128  22.529  0.00  0.00    +0.000 A 
ATOM      8  C   UNL     1      -6.439  14.208  23.196  0.00  0.00    +0.000 C 
ATOM      9  N   UNL     1      -4.887  13.199  21.504  0.00  0.00    +0.000 N 
ATOM     10  C   UNL     1      -5.910  12.274  21.042  0.00  0.00    +0.000 C 
ATOM     11  C   UNL     1      -3.662  13.099  20.842  0.00  0.00    +0.000 A 
ATOM     12  O   UNL     1      -3.501  12.472  19.801  0.00  0.00    +0.000 OA
ATOM     13  C   UNL     1      -2.517  13.770  21.509  0.00  0.00    +0.000 A 
ENDROOT
BRANCH   1  19
ATOM     14  C   UNL     1      -0.469  10.896  20.426  0.00  0.00    +0.000 A 
ATOM     15  C   UNL     1       0.056   9.666  20.864  0.00  0.00    +0.000 A 
ATOM     16  C   UNL     1      -0.069   9.248  22.186  0.00  0.00    +0.000 A 
ATOM     17  C   UNL     1      -0.715  10.061  23.098  0.00  0.00    +0.000 A 
ATOM     18  C   UNL     1      -1.154  11.327  22.708  0.00  0.00    +0.000 A 
ATOM     19  C   UNL     1      -0.981  11.800  21.384  0.00  0.00    +0.000 A 
BRANCH  14  20
ATOM     20  O   UNL     1      -0.488  11.246  19.093  0.00  0.00    +0.000 OA
BRANCH  20  22
ATOM     21  C   UNL     1      -2.015  10.078  17.578  0.00  0.00    +0.000 C 
ATOM     22  C   UNL     1      -0.636  10.119  18.207  0.00  0.00    +0.000 C 
ENDBRANCH  20  22
ENDBRANCH  14  20
ENDBRANCH   1  19
BRANCH   3  23
ATOM     23  N   UNL     1       0.459  16.131  23.206  0.00  0.00    +0.000 N 
ATOM     24  H   UNL     1       1.442  15.871  23.175  0.00  0.00    +0.000 HD
ATOM     25  H   UNL     1       0.158  16.482  24.110  0.00  0.00    +0.000 HD
ENDBRANCH   3  23
BRANCH   2  26
ATOM     26  C   UNL     1       1.323  14.007  21.311  0.00  0.00    +0.000 C 
ATOM     27  N   UNL     1       2.491  13.846  20.866  0.00  0.00    +0.000 NA
ENDBRANCH   2  26
TORSDOF 5
ENDMDL
MODEL 8
REMARK VINA RESULT:      -5.5      7.002      9.935
REMARK  Name = 
REMARK  8 active torsions:
REMARK  status: ('A' for Active; 'I' for Inactive)
REMARK    1  A    between atoms: C_1  and  C_2
REMARK    2  A    between atoms: C_2  and  O_3
REMARK    3  A    between atoms: O_3  and  C_4
REMARK    4  A    between atoms: C_9  and  C_10
REMARK    5  A    between atoms: C_11  and  C_12
REMARK    6  A    between atoms: C_14  and  N_15
REMARK    7  A    between atoms: C_19  and  C_20
REMARK    8  A    between atoms: N_21  and  C_22
REMARK                            x       y       z     vdW  Elec       q    Type
REMARK                         _______ _______ _______ _____ _____    ______ ____
ROOT
ATOM      1  C   UNL     1      -0.910  13.021  20.773  0.00  0.00    +0.000 C 
ATOM      2  C   UNL     1       0.042  13.993  21.442  0.00  0.00    +0.000 C 
ATOM      3  C   UNL     1      -0.381  15.132  22.026  0.00  0.00    +0.000 C 
ATOM      4  O   UNL     1      -1.749  15.416  22.135  0.00  0.00    +0.000 OA
ATOM      5  C   UNL     1      -2.667  14.615  21.474  0.00  0.00    +0.000 A 
ATOM      6  C   UNL     1      -4.054  14.929  21.691  0.00  0.00    +0.000 A 
ATOM      7  C   UNL     1      -5.014  14.079  21.280  0.00  0.00    +0.000 A 
ATOM      8  C   UNL     1      -6.442  14.284  21.692  0.00  0.00    +0.000 C 
ATOM      9  N   UNL     1      -4.674  12.986  20.475  0.00  0.00    +0.000 N 
ATOM     10  C   UNL     1      -5.641  12.004  20.011  0.00  0.00    +0.000 C 
ATOM     11  C   UNL     1      -3.362  12.764  20.053  0.00  0.00    +0.000 A 
ATOM     12  O   UNL     1      -3.056  11.966  19.173  0.00  0.00    +0.000 OA
ATOM     13  C   UNL     1      -2.317  13.529  20.780  0.00  0.00    +0.000 A 
ENDROOT
BRANCH   1  19
ATOM     14  C   UNL     1      -0.286  10.483  20.518  0.00  0.00    +0.000 A 
ATOM     15  C   UNL     1       0.134   9.335  21.217  0.00  0.00    +0.000 A 
ATOM     16  C   UNL     1      -0.147   9.160  22.569  0.00  0.00    +0.000 A 
ATOM     17  C   UNL     1      -0.848  10.137  23.250  0.00  0.00    +0.000 A 
ATOM     18  C   UNL     1      -1.186  11.326  22.602  0.00  0.00    +0.000 A 
ATOM     19  C   UNL     1      -0.854  11.554  21.243  0.00  0.00    +0.000 A 
BRANCH  14  20
ATOM     20  O   UNL     1      -0.150  10.593  19.151  0.00  0.00    +0.000 OA
BRANCH  20  22
ATOM     21  C   UNL     1       1.600   9.422  17.902  0.00  0.00    +0.000 C 
ATOM     22  C   UNL     1       1.223  10.646  18.714  0.00  0.00    +0.000 C 
ENDBRANCH  20  22
ENDBRANCH  14  20
ENDBRANCH   1  19
BRANCH   3  23
ATOM     23  N   UNL     1       0.429  16.120  22.529  0.00  0.00    +0.000 N 
ATOM     24  H   UNL     1       0.472  16.180  23.543  0.00  0.00    +0.000 HD
ATOM     25  H   UNL     1       0.280  17.015  22.073  0.00  0.00    +0.000 HD
ENDBRANCH   3  23
BRANCH   2  26
ATOM     26  C   UNL     1       1.511  13.696  21.187  0.00  0.00    +0.000 C 
ATOM     27  N   UNL     1       2.729  13.451  20.975  0.00  0.00    +0.000 NA
ENDBRANCH   2  26
TORSDOF 5
ENDMDL
MODEL 9
REMARK VINA RESULT:      -5.5      9.075     12.219
REMARK  Name = 
REMARK  8 active torsions:
REMARK  status: ('A' for Active; 'I' for Inactive)
REMARK    1  A    between atoms: C_1  and  C_2
REMARK    2  A    between atoms: C_2  and  O_3
REMARK    3  A    between atoms: O_3  and  C_4
REMARK    4  A    between atoms: C_9  and  C_10
REMARK    5  A    between atoms: C_11  and  C_12
REMARK    6  A    between atoms: C_14  and  N_15
REMARK    7  A    between atoms: C_19  and  C_20
REMARK    8  A    between atoms: N_21  and  C_22
REMARK                            x       y       z     vdW  Elec       q    Type
REMARK                         _______ _______ _______ _____ _____    ______ ____
ROOT
ATOM      1  C   UNL     1      -4.498  12.826  21.466  0.00  0.00    +0.000 C 
ATOM      2  C   UNL     1      -4.953  12.887  22.910  0.00  0.00    +0.000 C 
ATOM      3  C   UNL     1      -4.089  12.830  23.943  0.00  0.00    +0.000 C 
ATOM      4  O   UNL     1      -2.706  12.818  23.720  0.00  0.00    +0.000 OA
ATOM      5  C   UNL     1      -2.224  12.676  22.427  0.00  0.00    +0.000 A 
ATOM      6  C   UNL     1      -0.796  12.743  22.273  0.00  0.00    +0.000 A 
ATOM      7  C   UNL     1      -0.250  12.844  21.045  0.00  0.00    +0.000 A 
ATOM      8  C   UNL     1       1.212  13.136  20.881  0.00  0.00    +0.000 C 
ATOM      9  N   UNL     1      -1.059  12.690  19.913  0.00  0.00    +0.000 N 
ATOM     10  C   UNL     1      -0.560  12.810  18.553  0.00  0.00    +0.000 C 
ATOM     11  C   UNL     1      -2.421  12.401  20.016  0.00  0.00    +0.000 A 
ATOM     12  O   UNL     1      -3.112  12.035  19.072  0.00  0.00    +0.000 OA
ATOM     13  C   UNL     1      -3.022  12.614  21.358  0.00  0.00    +0.000 A 
ENDROOT
BRANCH   1  19
ATOM     14  C   UNL     1      -5.956  13.865  19.545  0.00  0.00    +0.000 A 
ATOM     15  C   UNL     1      -6.613  15.034  19.116  0.00  0.00    +0.000 A 
ATOM     16  C   UNL     1      -6.192  16.299  19.520  0.00  0.00    +0.000 A 
ATOM     17  C   UNL     1      -5.109  16.415  20.371  0.00  0.00    +0.000 A 
ATOM     18  C   UNL     1      -4.507  15.266  20.887  0.00  0.00    +0.000 A 
ATOM     19  C   UNL     1      -4.958  13.969  20.540  0.00  0.00    +0.000 A 
BRANCH  14  20
ATOM     20  O   UNL     1      -6.266  12.625  19.028  0.00  0.00    +0.000 OA
BRANCH  20  22
ATOM     21  C   UNL     1      -7.307  10.703  20.130  0.00  0.00    +0.000 C 
ATOM     22  C   UNL     1      -7.502  12.086  19.536  0.00  0.00    +0.000 C 
ENDBRANCH  20  22
ENDBRANCH  14  20
ENDBRANCH   1  19
BRANCH   3  23
ATOM     23  N   UNL     1      -4.433  12.743  25.270  0.00  0.00    +0.000 N 
ATOM     24  H   UNL     1      -3.687  12.942  25.931  0.00  0.00    +0.000 HD
ATOM     25  H   UNL     1      -4.954  11.898  25.483  0.00  0.00    +0.000 HD
ENDBRANCH   3  23
BRANCH   2  26
ATOM     26  C   UNL     1      -6.459  12.775  23.091  0.00  0.00    +0.000 C 
ATOM     27  N   UNL     1      -7.706  12.682  23.241  0.00  0.00    +0.000 NA
ENDBRANCH   2  26
TORSDOF 5
ENDMDL
