MODEL 1
REMARK VINA RESULT:      -7.6      0.000      0.000
REMARK  Name = 
REMARK  8 active torsions:
REMARK  status: ('A' for Active; 'I' for Inactive)
REMARK    1  A    between atoms: C_1  and  O_2
REMARK    2  A    between atoms: O_2  and  C_3
REMARK    3  A    between atoms: C_12  and  O_13
REMARK    4  A    between atoms: O_13  and  C_14
REMARK    5  A    between atoms: C_15  and  O_16
REMARK    6  A    between atoms: O_16  and  C_17
REMARK    7  A    between atoms: N_21  and  C_22
REMARK    8  A    between atoms: C_25  and  O_26
REMARK                            x       y       z     vdW  Elec       q    Type
REMARK                         _______ _______ _______ _____ _____    ______ ____
ROOT
ATOM      1  C   UNL     1      -2.294  12.533  21.264  0.00  0.00    +0.000 A 
ATOM      2  C   UNL     1      -1.355  11.843  20.472  0.00  0.00    +0.000 A 
ATOM      3  C   UNL     1      -0.443  10.882  20.996  0.00  0.00    +0.000 A 
ATOM      4  C   UNL     1      -0.614  10.592  22.369  0.00  0.00    +0.000 A 
ATOM      5  C   UNL     1       0.059   9.528  22.950  0.00  0.00    +0.000 A 
ATOM      6  C   UNL     1       0.829   8.674  22.177  0.00  0.00    +0.000 A 
ATOM      7  C   UNL     1       1.060   8.917  20.813  0.00  0.00    +0.000 A 
ATOM      8  C   UNL     1       1.785   7.993  19.995  0.00  0.00    +0.000 A 
ATOM      9  C   UNL     1       2.167   6.690  20.405  0.00  0.00    +0.000 A 
ATOM     10  C   UNL     1       2.804   5.762  19.559  0.00  0.00    +0.000 A 
ATOM     11  C   UNL     1       3.156   6.168  18.273  0.00  0.00    +0.000 A 
ATOM     12  C   UNL     1       2.801   7.460  17.855  0.00  0.00    +0.000 A 
ATOM     13  C   UNL     1       2.100   8.354  18.685  0.00  0.00    +0.000 A 
ATOM     14  C   UNL     1       1.734   9.621  18.247  0.00  0.00    +0.000 A 
ATOM     15  N   UNL     1       1.030  10.482  19.020  0.00  0.00    +0.000 N 
ATOM     16  C   UNL     1       1.039  11.899  18.577  0.00  0.00    +0.000 C 
ATOM     17  C   UNL     1       0.537  10.124  20.248  0.00  0.00    +0.000 A 
ATOM     18  C   UNL     1      -1.502  11.327  23.176  0.00  0.00    +0.000 A 
ATOM     19  C   UNL     1      -2.336  12.294  22.628  0.00  0.00    +0.000 A 
ENDROOT
BRANCH   1  21
ATOM     20  C   UNL     1      -4.350  12.706  20.103  0.00  0.00    +0.000 C 
ATOM     21  O   UNL     1      -3.152  13.329  20.553  0.00  0.00    +0.000 OA
ENDBRANCH   1  21
BRANCH  10  22
ATOM     22  O   UNL     1       3.071   4.484  19.979  0.00  0.00    +0.000 OA
ATOM     23  C   UNL     1       1.965   3.750  20.510  0.00  0.00    +0.000 C 
ENDBRANCH  10  22
BRANCH  11  24
ATOM     24  O   UNL     1       3.765   5.469  17.271  0.00  0.00    +0.000 OA
ATOM     25  C   UNL     1       4.957   5.959  16.674  0.00  0.00    +0.000 C 
ENDBRANCH  11  24
BRANCH  19  26
ATOM     26  O   UNL     1      -3.231  12.924  23.441  0.00  0.00    +0.000 OA
ATOM     27  H   UNL     1      -2.790  13.652  23.907  0.00  0.00    +0.000 HD
ENDBRANCH  19  26
TORSDOF 4
ENDMDL
MODEL 2
REMARK VINA RESULT:      -7.4      1.479      1.979
REMARK  Name = 
REMARK  8 active torsions:
REMARK  status: ('A' for Active; 'I' for Inactive)
REMARK    1  A    between atoms: C_1  and  O_2
REMARK    2  A    between atoms: O_2  and  C_3
REMARK    3  A    between atoms: C_12  and  O_13
REMARK    4  A    between atoms: O_13  and  C_14
REMARK    5  A    between atoms: C_15  and  O_16
REMARK    6  A    between atoms: O_16  and  C_17
REMARK    7  A    between atoms: N_21  and  C_22
REMARK    8  A    between atoms: C_25  and  O_26
REMARK                            x       y       z     vdW  Elec       q    Type
REMARK                         _______ _______ _______ _____ _____    ______ ____
ROOT
ATOM      1  C   UNL     1      -1.272  11.842  19.809  0.00  0.00    +0.000 A 
ATOM      2  C   UNL     1      -0.402  10.855  19.305  0.00  0.00    +0.000 A 
ATOM      3  C   UNL     1       0.311   9.940  20.133  0.00  0.00    +0.000 A 
ATOM      4  C   UNL     1       0.005  10.029  21.511  0.00  0.00    +0.000 A 
ATOM      5  C   UNL     1       0.463   9.063  22.394  0.00  0.00    +0.000 A 
ATOM      6  C   UNL     1       1.140   7.947  21.930  0.00  0.00    +0.000 A 
ATOM      7  C   UNL     1       1.497   7.807  20.578  0.00  0.00    +0.000 A 
ATOM      8  C   UNL     1       2.121   6.619  20.082  0.00  0.00    +0.000 A 
ATOM      9  C   UNL     1       2.266   5.420  20.827  0.00  0.00    +0.000 A 
ATOM     10  C   UNL     1       2.804   4.233  20.296  0.00  0.00    +0.000 A 
ATOM     11  C   UNL     1       3.301   4.253  18.993  0.00  0.00    +0.000 A 
ATOM     12  C   UNL     1       3.182   5.435  18.247  0.00  0.00    +0.000 A 
ATOM     13  C   UNL     1       2.576   6.595  18.764  0.00  0.00    +0.000 A 
ATOM     14  C   UNL     1       2.443   7.750  18.002  0.00  0.00    +0.000 A 
ATOM     15  N   UNL     1       1.833   8.864  18.471  0.00  0.00    +0.000 N 
ATOM     16  C   UNL     1       2.093  10.110  17.709  0.00  0.00    +0.000 C 
ATOM     17  C   UNL     1       1.209   8.894  19.692  0.00  0.00    +0.000 A 
ATOM     18  C   UNL     1      -0.808  11.056  22.024  0.00  0.00    +0.000 A 
ATOM     19  C   UNL     1      -1.442  11.959  21.179  0.00  0.00    +0.000 A 
ENDROOT
BRANCH   1  21
ATOM     20  C   UNL     1      -2.426  11.781  17.743  0.00  0.00    +0.000 C 
ATOM     21  O   UNL     1      -1.945  12.543  18.844  0.00  0.00    +0.000 OA
ENDBRANCH   1  21
BRANCH  10  22
ATOM     22  O   UNL     1       2.840   3.076  21.032  0.00  0.00    +0.000 OA
ATOM     23  C   UNL     1       1.601   2.661  21.614  0.00  0.00    +0.000 C 
ENDBRANCH  10  22
BRANCH  11  24
ATOM     24  O   UNL     1       3.859   3.249  18.254  0.00  0.00    +0.000 OA
ATOM     25  C   UNL     1       3.072   2.147  17.828  0.00  0.00    +0.000 C 
ENDBRANCH  11  24
BRANCH  19  26
ATOM     26  O   UNL     1      -2.279  12.887  21.723  0.00  0.00    +0.000 OA
ATOM     27  H   UNL     1      -2.443  13.594  21.078  0.00  0.00    +0.000 HD
ENDBRANCH  19  26
TORSDOF 4
ENDMDL
MODEL 3
REMARK VINA RESULT:      -7.2      2.097      7.856
REMARK  Name = 
REMARK  8 active torsions:
REMARK  status: ('A' for Active; 'I' for Inactive)
REMARK    1  A    between atoms: C_1  and  O_2
REMARK    2  A    between atoms: O_2  and  C_3
REMARK    3  A    between atoms: C_12  and  O_13
REMARK    4  A    between atoms: O_13  and  C_14
REMARK    5  A    between atoms: C_15  and  O_16
REMARK    6  A    between atoms: O_16  and  C_17
REMARK    7  A    between atoms: N_21  and  C_22
REMARK    8  A    between atoms: C_25  and  O_26
REMARK                            x       y       z     vdW  Elec       q    Type
REMARK                         _______ _______ _______ _____ _____    ______ ____
ROOT
ATOM      1  C   UNL     1       5.331   4.143  18.970  0.00  0.00    +0.000 A 
ATOM      2  C   UNL     1       4.716   5.384  18.715  0.00  0.00    +0.000 A 
ATOM      3  C   UNL     1       3.423   5.734  19.199  0.00  0.00    +0.000 A 
ATOM      4  C   UNL     1       2.830   4.771  20.050  0.00  0.00    +0.000 A 
ATOM      5  C   UNL     1       1.676   5.076  20.756  0.00  0.00    +0.000 A 
ATOM      6  C   UNL     1       1.143   6.355  20.718  0.00  0.00    +0.000 A 
ATOM      7  C   UNL     1       1.667   7.351  19.877  0.00  0.00    +0.000 A 
ATOM      8  C   UNL     1       1.172   8.692  19.900  0.00  0.00    +0.000 A 
ATOM      9  C   UNL     1       0.267   9.196  20.869  0.00  0.00    +0.000 A 
ATOM     10  C   UNL     1      -0.144  10.542  20.927  0.00  0.00    +0.000 A 
ATOM     11  C   UNL     1       0.293  11.414  19.931  0.00  0.00    +0.000 A 
ATOM     12  C   UNL     1       1.175  10.929  18.953  0.00  0.00    +0.000 A 
ATOM     13  C   UNL     1       1.637   9.600  18.947  0.00  0.00    +0.000 A 
ATOM     14  C   UNL     1       2.530   9.142  17.986  0.00  0.00    +0.000 A 
ATOM     15  N   UNL     1       3.011   7.876  17.984  0.00  0.00    +0.000 N 
ATOM     16  C   UNL     1       3.641   7.429  16.717  0.00  0.00    +0.000 C 
ATOM     17  C   UNL     1       2.732   6.989  18.992  0.00  0.00    +0.000 A 
ATOM     18  C   UNL     1       3.409   3.505  20.250  0.00  0.00    +0.000 A 
ATOM     19  C   UNL     1       4.651   3.190  19.713  0.00  0.00    +0.000 A 
ENDROOT
BRANCH   1  21
ATOM     20  C   UNL     1       7.094   5.158  17.760  0.00  0.00    +0.000 C 
ATOM     21  O   UNL     1       6.618   4.048  18.512  0.00  0.00    +0.000 OA
ENDBRANCH   1  21
BRANCH  10  22
ATOM     22  O   UNL     1      -0.950  10.996  21.939  0.00  0.00    +0.000 OA
ATOM     23  C   UNL     1      -0.864  10.289  23.180  0.00  0.00    +0.000 C 
ENDBRANCH  10  22
BRANCH  11  24
ATOM     24  O   UNL     1       0.048  12.746  19.766  0.00  0.00    +0.000 OA
ATOM     25  C   UNL     1      -0.452  13.238  18.531  0.00  0.00    +0.000 C 
ENDBRANCH  11  24
BRANCH  19  26
ATOM     26  O   UNL     1       5.201   1.977  20.001  0.00  0.00    +0.000 OA
ATOM     27  H   UNL     1       6.138   1.977  19.752  0.00  0.00    +0.000 HD
ENDBRANCH  19  26
TORSDOF 4
ENDMDL
MODEL 4
REMARK VINA RESULT:      -7.0      1.162      1.261
REMARK  Name = 
REMARK  8 active torsions:
REMARK  status: ('A' for Active; 'I' for Inactive)
REMARK    1  A    between atoms: C_1  and  O_2
REMARK    2  A    between atoms: O_2  and  C_3
REMARK    3  A    between atoms: C_12  and  O_13
REMARK    4  A    between atoms: O_13  and  C_14
REMARK    5  A    between atoms: C_15  and  O_16
REMARK    6  A    between atoms: O_16  and  C_17
REMARK    7  A    between atoms: N_21  and  C_22
REMARK    8  A    between atoms: C_25  and  O_26
REMARK                            x       y       z     vdW  Elec       q    Type
REMARK                         _______ _______ _______ _____ _____    ______ ____
ROOT
ATOM      1  C   UNL     1      -1.266  12.541  20.683  0.00  0.00    +0.000 A 
ATOM      2  C   UNL     1      -0.456  11.628  19.979  0.00  0.00    +0.000 A 
ATOM      3  C   UNL     1       0.229  10.545  20.601  0.00  0.00    +0.000 A 
ATOM      4  C   UNL     1      -0.044  10.387  21.980  0.00  0.00    +0.000 A 
ATOM      5  C   UNL     1       0.385   9.254  22.654  0.00  0.00    +0.000 A 
ATOM      6  C   UNL     1       0.997   8.215  21.970  0.00  0.00    +0.000 A 
ATOM      7  C   UNL     1       1.319   8.316  20.606  0.00  0.00    +0.000 A 
ATOM      8  C   UNL     1       1.873   7.215  19.880  0.00  0.00    +0.000 A 
ATOM      9  C   UNL     1       1.975   5.893  20.385  0.00  0.00    +0.000 A 
ATOM     10  C   UNL     1       2.444   4.803  19.626  0.00  0.00    +0.000 A 
ATOM     11  C   UNL     1       2.914   5.045  18.336  0.00  0.00    +0.000 A 
ATOM     12  C   UNL     1       2.837   6.350  17.826  0.00  0.00    +0.000 A 
ATOM     13  C   UNL     1       2.299   7.418  18.567  0.00  0.00    +0.000 A 
ATOM     14  C   UNL     1       2.206   8.700  18.038  0.00  0.00    +0.000 A 
ATOM     15  N   UNL     1       1.661   9.732  18.724  0.00  0.00    +0.000 N 
ATOM     16  C   UNL     1       1.966  11.087  18.199  0.00  0.00    +0.000 C 
ATOM     17  C   UNL     1       1.065   9.561  19.947  0.00  0.00    +0.000 A 
ATOM     18  C   UNL     1      -0.795  11.335  22.699  0.00  0.00    +0.000 A 
ATOM     19  C   UNL     1      -1.402  12.407  22.056  0.00  0.00    +0.000 A 
ENDROOT
BRANCH   1  21
ATOM     20  C   UNL     1      -1.313  14.717  19.752  0.00  0.00    +0.000 C 
ATOM     21  O   UNL     1      -1.924  13.439  19.886  0.00  0.00    +0.000 OA
ENDBRANCH   1  21
BRANCH  10  22
ATOM     22  O   UNL     1       2.438   3.529  20.133  0.00  0.00    +0.000 OA
ATOM     23  C   UNL     1       1.187   2.839  20.089  0.00  0.00    +0.000 C 
ENDBRANCH  10  22
BRANCH  11  24
ATOM     24  O   UNL     1       3.407   4.174  17.407  0.00  0.00    +0.000 OA
ATOM     25  C   UNL     1       4.682   4.393  16.822  0.00  0.00    +0.000 C 
ENDBRANCH  11  24
BRANCH  19  26
ATOM     26  O   UNL     1      -2.181  13.253  22.787  0.00  0.00    +0.000 OA
ATOM     27  H   UNL     1      -1.889  14.167  22.646  0.00  0.00    +0.000 HD
ENDBRANCH  19  26
TORSDOF 4
ENDMDL
MODEL 5
REMARK VINA RESULT:      -7.0      1.799      3.636
REMARK  Name = 
REMARK  8 active torsions:
REMARK  status: ('A' for Active; 'I' for Inactive)
REMARK    1  A    between atoms: C_1  and  O_2
REMARK    2  A    between atoms: O_2  and  C_3
REMARK    3  A    between atoms: C_12  and  O_13
REMARK    4  A    between atoms: O_13  and  C_14
REMARK    5  A    between atoms: C_15  and  O_16
REMARK    6  A    between atoms: O_16  and  C_17
REMARK    7  A    between atoms: N_21  and  C_22
REMARK    8  A    between atoms: C_25  and  O_26
REMARK                            x       y       z     vdW  Elec       q    Type
REMARK                         _______ _______ _______ _____ _____    ______ ____
ROOT
ATOM      1  C   UNL     1       0.212  12.544  21.189  0.00  0.00    +0.000 A 
ATOM      2  C   UNL     1       0.500  11.165  21.222  0.00  0.00    +0.000 A 
ATOM      3  C   UNL     1       0.854  10.410  20.067  0.00  0.00    +0.000 A 
ATOM      4  C   UNL     1       0.995  11.171  18.883  0.00  0.00    +0.000 A 
ATOM      5  C   UNL     1       1.541  10.600  17.743  0.00  0.00    +0.000 A 
ATOM      6  C   UNL     1       2.047   9.310  17.774  0.00  0.00    +0.000 A 
ATOM      7  C   UNL     1       1.918   8.491  18.908  0.00  0.00    +0.000 A 
ATOM      8  C   UNL     1       2.513   7.192  18.970  0.00  0.00    +0.000 A 
ATOM      9  C   UNL     1       3.426   6.682  18.011  0.00  0.00    +0.000 A 
ATOM     10  C   UNL     1       4.068   5.435  18.132  0.00  0.00    +0.000 A 
ATOM     11  C   UNL     1       3.730   4.615  19.208  0.00  0.00    +0.000 A 
ATOM     12  C   UNL     1       2.816   5.095  20.158  0.00  0.00    +0.000 A 
ATOM     13  C   UNL     1       2.235   6.373  20.065  0.00  0.00    +0.000 A 
ATOM     14  C   UNL     1       1.351   6.844  21.028  0.00  0.00    +0.000 A 
ATOM     15  N   UNL     1       0.808   8.083  20.973  0.00  0.00    +0.000 N 
ATOM     16  C   UNL     1      -0.379   8.306  21.837  0.00  0.00    +0.000 C 
ATOM     17  C   UNL     1       1.176   8.999  20.022  0.00  0.00    +0.000 A 
ATOM     18  C   UNL     1       0.643  12.532  18.832  0.00  0.00    +0.000 A 
ATOM     19  C   UNL     1       0.251  13.215  19.977  0.00  0.00    +0.000 A 
ENDROOT
BRANCH   1  21
ATOM     20  C   UNL     1      -1.333  13.067  22.904  0.00  0.00    +0.000 C 
ATOM     21  O   UNL     1       0.005  13.104  22.421  0.00  0.00    +0.000 OA
ENDBRANCH   1  21
BRANCH  10  22
ATOM     22  O   UNL     1       5.010   5.029  17.221  0.00  0.00    +0.000 OA
ATOM     23  C   UNL     1       5.200   5.881  16.089  0.00  0.00    +0.000 C 
ENDBRANCH  10  22
BRANCH  11  24
ATOM     24  O   UNL     1       4.206   3.382  19.551  0.00  0.00    +0.000 OA
ATOM     25  C   UNL     1       3.656   2.211  18.966  0.00  0.00    +0.000 C 
ENDBRANCH  11  24
BRANCH  19  26
ATOM     26  O   UNL     1      -0.007  14.551  19.887  0.00  0.00    +0.000 OA
ATOM     27  H   UNL     1       0.461  15.020  20.595  0.00  0.00    +0.000 HD
ENDBRANCH  19  26
TORSDOF 4
ENDMDL
MODEL 6
REMARK VINA RESULT:      -6.9      2.116      3.884
REMARK  Name = 
REMARK  8 active torsions:
REMARK  status: ('A' for Active; 'I' for Inactive)
REMARK    1  A    between atoms: C_1  and  O_2
REMARK    2  A    between atoms: O_2  and  C_3
REMARK    3  A    between atoms: C_12  and  O_13
REMARK    4  A    between atoms: O_13  and  C_14
REMARK    5  A    between atoms: C_15  and  O_16
REMARK    6  A    between atoms: O_16  and  C_17
REMARK    7  A    between atoms: N_21  and  C_22
REMARK    8  A    between atoms: C_25  and  O_26
REMARK                            x       y       z     vdW  Elec       q    Type
REMARK                         _______ _______ _______ _____ _____    ______ ____
ROOT
ATOM      1  C   UNL     1       0.836  12.848  20.830  0.00  0.00    +0.000 A 
ATOM      2  C   UNL     1       0.890  11.454  21.031  0.00  0.00    +0.000 A 
ATOM      3  C   UNL     1       1.147  10.521  19.985  0.00  0.00    +0.000 A 
ATOM      4  C   UNL     1       1.445  11.105  18.732  0.00  0.00    +0.000 A 
ATOM      5  C   UNL     1       1.920  10.323  17.690  0.00  0.00    +0.000 A 
ATOM      6  C   UNL     1       2.204   8.981  17.888  0.00  0.00    +0.000 A 
ATOM      7  C   UNL     1       1.909   8.333  19.099  0.00  0.00    +0.000 A 
ATOM      8  C   UNL     1       2.278   6.971  19.334  0.00  0.00    +0.000 A 
ATOM      9  C   UNL     1       3.120   6.211  18.481  0.00  0.00    +0.000 A 
ATOM     10  C   UNL     1       3.543   4.899  18.771  0.00  0.00    +0.000 A 
ATOM     11  C   UNL     1       3.043   4.277  19.915  0.00  0.00    +0.000 A 
ATOM     12  C   UNL     1       2.195   5.008  20.761  0.00  0.00    +0.000 A 
ATOM     13  C   UNL     1       1.837   6.343  20.499  0.00  0.00    +0.000 A 
ATOM     14  C   UNL     1       1.017   7.061  21.361  0.00  0.00    +0.000 A 
ATOM     15  N   UNL     1       0.689   8.356  21.143  0.00  0.00    +0.000 N 
ATOM     16  C   UNL     1      -0.468   8.868  21.919  0.00  0.00    +0.000 C 
ATOM     17  C   UNL     1       1.231   9.082  20.113  0.00  0.00    +0.000 A 
ATOM     18  C   UNL     1       1.325  12.489  18.513  0.00  0.00    +0.000 A 
ATOM     19  C   UNL     1       1.020  13.357  19.555  0.00  0.00    +0.000 A 
ENDROOT
BRANCH   1  21
ATOM     20  C   UNL     1      -0.647  13.879  22.361  0.00  0.00    +0.000 C 
ATOM     21  O   UNL     1       0.691  13.576  21.981  0.00  0.00    +0.000 OA
ENDBRANCH   1  21
BRANCH  10  22
ATOM     22  O   UNL     1       4.429   4.242  17.957  0.00  0.00    +0.000 OA
ATOM     23  C   UNL     1       5.814   4.522  18.176  0.00  0.00    +0.000 C 
ENDBRANCH  10  22
BRANCH  11  24
ATOM     24  O   UNL     1       3.297   3.033  20.415  0.00  0.00    +0.000 OA
ATOM     25  C   UNL     1       2.536   2.525  21.501  0.00  0.00    +0.000 C 
ENDBRANCH  11  24
BRANCH  19  26
ATOM     26  O   UNL     1       0.990  14.696  19.304  0.00  0.00    +0.000 OA
ATOM     27  H   UNL     1       1.707  14.927  18.692  0.00  0.00    +0.000 HD
ENDBRANCH  19  26
TORSDOF 4
ENDMDL
MODEL 7
REMARK VINA RESULT:      -6.9      1.258      8.066
REMARK  Name = 
REMARK  8 active torsions:
REMARK  status: ('A' for Active; 'I' for Inactive)
REMARK    1  A    between atoms: C_1  and  O_2
REMARK    2  A    between atoms: O_2  and  C_3
REMARK    3  A    between atoms: C_12  and  O_13
REMARK    4  A    between atoms: O_13  and  C_14
REMARK    5  A    between atoms: C_15  and  O_16
REMARK    6  A    between atoms: O_16  and  C_17
REMARK    7  A    between atoms: N_21  and  C_22
REMARK    8  A    between atoms: C_25  and  O_26
REMARK                            x       y       z     vdW  Elec       q    Type
REMARK                         _______ _______ _______ _____ _____    ______ ____
ROOT
ATOM      1  C   UNL     1       2.463   6.699  19.666  0.00  0.00    +0.000 A 
ATOM      2  C   UNL     1       1.720   7.553  20.505  0.00  0.00    +0.000 A 
ATOM      3  C   UNL     1       1.234   8.828  20.095  0.00  0.00    +0.000 A 
ATOM      4  C   UNL     1       1.468   9.140  18.735  0.00  0.00    +0.000 A 
ATOM      5  C   UNL     1       0.865  10.246  18.156  0.00  0.00    +0.000 A 
ATOM      6  C   UNL     1      -0.052  11.003  18.868  0.00  0.00    +0.000 A 
ATOM      7  C   UNL     1      -0.313  10.763  20.227  0.00  0.00    +0.000 A 
ATOM      8  C   UNL     1      -1.319  11.488  20.941  0.00  0.00    +0.000 A 
ATOM      9  C   UNL     1      -2.261  12.358  20.334  0.00  0.00    +0.000 A 
ATOM     10  C   UNL     1      -3.299  12.997  21.039  0.00  0.00    +0.000 A 
ATOM     11  C   UNL     1      -3.359  12.836  22.422  0.00  0.00    +0.000 A 
ATOM     12  C   UNL     1      -2.425  11.993  23.043  0.00  0.00    +0.000 A 
ATOM     13  C   UNL     1      -1.436  11.302  22.318  0.00  0.00    +0.000 A 
ATOM     14  C   UNL     1      -0.535  10.450  22.944  0.00  0.00    +0.000 A 
ATOM     15  N   UNL     1       0.401   9.751  22.260  0.00  0.00    +0.000 N 
ATOM     16  C   UNL     1       1.510   9.192  23.073  0.00  0.00    +0.000 C 
ATOM     17  C   UNL     1       0.455   9.753  20.890  0.00  0.00    +0.000 A 
ATOM     18  C   UNL     1       2.268   8.323  17.915  0.00  0.00    +0.000 A 
ATOM     19  C   UNL     1       2.765   7.110  18.378  0.00  0.00    +0.000 A 
ENDROOT
BRANCH   1  21
ATOM     20  C   UNL     1       1.614   4.637  20.461  0.00  0.00    +0.000 C 
ATOM     21  O   UNL     1       2.738   5.474  20.213  0.00  0.00    +0.000 OA
ENDBRANCH   1  21
BRANCH  10  22
ATOM     22  O   UNL     1      -4.237  13.758  20.389  0.00  0.00    +0.000 OA
ATOM     23  C   UNL     1      -5.393  13.063  19.915  0.00  0.00    +0.000 C 
ENDBRANCH  10  22
BRANCH  11  24
ATOM     24  O   UNL     1      -4.256  13.336  23.322  0.00  0.00    +0.000 OA
ATOM     25  C   UNL     1      -4.514  12.649  24.537  0.00  0.00    +0.000 C 
ENDBRANCH  11  24
BRANCH  19  26
ATOM     26  O   UNL     1       3.470   6.321  17.518  0.00  0.00    +0.000 OA
ATOM     27  H   UNL     1       3.287   6.592  16.605  0.00  0.00    +0.000 HD
ENDBRANCH  19  26
TORSDOF 4
ENDMDL
MODEL 8
REMARK VINA RESULT:      -6.8      2.075      8.453
REMARK  Name = 
REMARK  8 active torsions:
REMARK  status: ('A' for Active; 'I' for Inactive)
REMARK    1  A    between atoms: C_1  and  O_2
REMARK    2  A    between atoms: O_2  and  C_3
REMARK    3  A    between atoms: C_12  and  O_13
REMARK    4  A    between atoms: O_13  and  C_14
REMARK    5  A    between atoms: C_15  and  O_16
REMARK    6  A    between atoms: O_16  and  C_17
REMARK    7  A    between atoms: N_21  and  C_22
REMARK    8  A    between atoms: C_25  and  O_26
REMARK                            x       y       z     vdW  Elec       q    Type
REMARK                         _______ _______ _______ _____ _____    ______ ____
ROOT
ATOM      1  C   UNL     1       3.871   3.229  17.641  0.00  0.00    +0.000 A 
ATOM      2  C   UNL     1       3.151   4.143  18.436  0.00  0.00    +0.000 A 
ATOM      3  C   UNL     1       3.310   5.556  18.345  0.00  0.00    +0.000 A 
ATOM      4  C   UNL     1       4.182   5.988  17.318  0.00  0.00    +0.000 A 
ATOM      5  C   UNL     1       4.260   7.332  16.985  0.00  0.00    +0.000 A 
ATOM      6  C   UNL     1       3.415   8.256  17.580  0.00  0.00    +0.000 A 
ATOM      7  C   UNL     1       2.544   7.899  18.622  0.00  0.00    +0.000 A 
ATOM      8  C   UNL     1       1.614   8.832  19.179  0.00  0.00    +0.000 A 
ATOM      9  C   UNL     1       1.341  10.113  18.634  0.00  0.00    +0.000 A 
ATOM     10  C   UNL     1       0.360  10.985  19.145  0.00  0.00    +0.000 A 
ATOM     11  C   UNL     1      -0.326  10.610  20.299  0.00  0.00    +0.000 A 
ATOM     12  C   UNL     1      -0.057   9.353  20.863  0.00  0.00    +0.000 A 
ATOM     13  C   UNL     1       0.873   8.460  20.301  0.00  0.00    +0.000 A 
ATOM     14  C   UNL     1       1.109   7.208  20.857  0.00  0.00    +0.000 A 
ATOM     15  N   UNL     1       1.976   6.322  20.312  0.00  0.00    +0.000 N 
ATOM     16  C   UNL     1       2.401   5.208  21.197  0.00  0.00    +0.000 C 
ATOM     17  C   UNL     1       2.601   6.556  19.114  0.00  0.00    +0.000 A 
ATOM     18  C   UNL     1       4.952   5.080  16.571  0.00  0.00    +0.000 A 
ATOM     19  C   UNL     1       4.801   3.707  16.731  0.00  0.00    +0.000 A 
ENDROOT
BRANCH   1  21
ATOM     20  C   UNL     1       2.477   1.685  18.771  0.00  0.00    +0.000 C 
ATOM     21  O   UNL     1       3.491   1.923  17.801  0.00  0.00    +0.000 OA
ENDBRANCH   1  21
BRANCH  10  22
ATOM     22  O   UNL     1       0.075  12.175  18.526  0.00  0.00    +0.000 OA
ATOM     23  C   UNL     1       1.087  13.182  18.599  0.00  0.00    +0.000 C 
ENDBRANCH  10  22
BRANCH  11  24
ATOM     24  O   UNL     1      -1.313  11.262  20.981  0.00  0.00    +0.000 OA
ATOM     25  C   UNL     1      -1.176  11.523  22.370  0.00  0.00    +0.000 C 
ENDBRANCH  11  24
BRANCH  19  26
ATOM     26  O   UNL     1       5.517   2.871  15.928  0.00  0.00    +0.000 OA
ATOM     27  H   UNL     1       4.917   2.413  15.318  0.00  0.00    +0.000 HD
ENDBRANCH  19  26
TORSDOF 4
ENDMDL
MODEL 9
REMARK VINA RESULT:      -6.2      2.148      4.323
REMARK  Name = 
REMARK  8 active torsions:
REMARK  status: ('A' for Active; 'I' for Inactive)
REMARK    1  A    between atoms: C_1  and  O_2
REMARK    2  A    between atoms: O_2  and  C_3
REMARK    3  A    between atoms: C_12  and  O_13
REMARK    4  A    between atoms: O_13  and  C_14
REMARK    5  A    between atoms: C_15  and  O_16
REMARK    6  A    between atoms: O_16  and  C_17
REMARK    7  A    between atoms: N_21  and  C_22
REMARK    8  A    between atoms: C_25  and  O_26
REMARK                            x       y       z     vdW  Elec       q    Type
REMARK                         _______ _______ _______ _____ _____    ______ ____
ROOT
ATOM      1  C   UNL     1      -0.069  10.280  21.665  0.00  0.00    +0.000 A 
ATOM      2  C   UNL     1       0.711   9.160  21.319  0.00  0.00    +0.000 A 
ATOM      3  C   UNL     1       1.088   8.850  19.980  0.00  0.00    +0.000 A 
ATOM      4  C   UNL     1       0.701   9.813  19.019  0.00  0.00    +0.000 A 
ATOM      5  C   UNL     1       1.185   9.742  17.722  0.00  0.00    +0.000 A 
ATOM      6  C   UNL     1       2.130   8.790  17.373  0.00  0.00    +0.000 A 
ATOM      7  C   UNL     1       2.540   7.790  18.271  0.00  0.00    +0.000 A 
ATOM      8  C   UNL     1       3.575   6.860  17.940  0.00  0.00    +0.000 A 
ATOM      9  C   UNL     1       4.405   6.959  16.794  0.00  0.00    +0.000 A 
ATOM     10  C   UNL     1       5.475   6.083  16.529  0.00  0.00    +0.000 A 
ATOM     11  C   UNL     1       5.684   5.008  17.392  0.00  0.00    +0.000 A 
ATOM     12  C   UNL     1       4.861   4.884  18.522  0.00  0.00    +0.000 A 
ATOM     13  C   UNL     1       3.841   5.806  18.816  0.00  0.00    +0.000 A 
ATOM     14  C   UNL     1       3.051   5.683  19.953  0.00  0.00    +0.000 A 
ATOM     15  N   UNL     1       2.087   6.580  20.270  0.00  0.00    +0.000 N 
ATOM     16  C   UNL     1       1.097   6.131  21.280  0.00  0.00    +0.000 C 
ATOM     17  C   UNL     1       1.895   7.729  19.547  0.00  0.00    +0.000 A 
ATOM     18  C   UNL     1      -0.135  10.894  19.351  0.00  0.00    +0.000 A 
ATOM     19  C   UNL     1      -0.521  11.127  20.666  0.00  0.00    +0.000 A 
ENDROOT
BRANCH   1  21
ATOM     20  C   UNL     1       0.253   9.408  23.843  0.00  0.00    +0.000 C 
ATOM     21  O   UNL     1      -0.225  10.462  23.014  0.00  0.00    +0.000 OA
ENDBRANCH   1  21
BRANCH  10  22
ATOM     22  O   UNL     1       6.303   6.277  15.452  0.00  0.00    +0.000 OA
ATOM     23  C   UNL     1       6.387   5.197  14.519  0.00  0.00    +0.000 C 
ENDBRANCH  10  22
BRANCH  11  24
ATOM     24  O   UNL     1       6.641   4.034  17.361  0.00  0.00    +0.000 OA
ATOM     25  C   UNL     1       7.966   4.315  17.787  0.00  0.00    +0.000 C 
ENDBRANCH  11  24
BRANCH  19  26
ATOM     26  O   UNL     1      -1.269  12.232  20.943  0.00  0.00    +0.000 OA
ATOM     27  H   UNL     1      -1.503  12.682  20.115  0.00  0.00    +0.000 HD
ENDBRANCH  19  26
TORSDOF 4
ENDMDL
