MODEL 1
REMARK VINA RESULT:      -6.0      0.000      0.000
REMARK  Name = 
REMARK  11 active torsions:
REMARK  status: ('A' for Active; 'I' for Inactive)
REMARK    1  A    between atoms: C_1  and  N_2
REMARK    2  A    between atoms: N_2  and  C_3
REMARK    3  A    between atoms: N_2  and  C_10
REMARK    4  A    between atoms: C_3  and  C_4
REMARK    5  A    between atoms: C_4  and  C_5
REMARK    6  A    between atoms: C_5  and  S_6
REMARK    7  A    between atoms: S_6  and  C_7
REMARK    8  A    between atoms: C_10  and  C_11
REMARK    9  A    between atoms: N_14  and  C_15
REMARK   10  A    between atoms: C_15  and  C_16
REMARK   11  A    between atoms: C_16  and  O_17
REMARK                            x       y       z     vdW  Elec       q    Type
REMARK                         _______ _______ _______ _____ _____    ______ ____
ROOT
ATOM      1  C   UNL     1       4.421   3.906  16.756  0.00  0.00    +0.000 C 
ENDROOT
BRANCH   1   2
ATOM      2  C   UNL     1       5.271   4.735  15.758  0.00  0.00    +0.000 C 
ATOM      3  C   UNL     1       6.743   4.300  15.793  0.00  0.00    +0.000 C 
ATOM      4  C   UNL     1       7.468   4.757  17.063  0.00  0.00    +0.000 C 
ATOM      5  N   UNL     1       7.392   6.217  17.235  0.00  0.00    +0.000 NA
ATOM      6  C   UNL     1       5.988   6.669  17.262  0.00  0.00    +0.000 C 
ATOM      7  C   UNL     1       5.210   6.248  16.012  0.00  0.00    +0.000 C 
BRANCH   5   8
ATOM      8  C   UNL     1       8.055   6.646  18.494  0.00  0.00    +0.000 C 
BRANCH   8   9
ATOM      9  C   UNL     1       7.649   5.811  19.720  0.00  0.00    +0.000 C 
BRANCH   9  10
ATOM     10  O   UNL     1       8.797   5.200  20.303  0.00  0.00    +0.000 OA
ATOM     11  H   UNL     1       8.703   4.247  20.105  0.00  0.00    +0.000 HD
ENDBRANCH   9  10
ENDBRANCH   8   9
ENDBRANCH   5   8
ENDBRANCH   1   2
BRANCH   1  13
ATOM     12  C   UNL     1       2.030   3.722  17.160  0.00  0.00    +0.000 C 
ATOM     13  N   UNL     1       3.211   4.592  17.258  0.00  0.00    +0.000 NA
BRANCH  13  14
ATOM     14  C   UNL     1       3.359   5.030  18.662  0.00  0.00    +0.000 C 
BRANCH  14  15
ATOM     15  C   UNL     1       2.041   5.245  19.413  0.00  0.00    +0.000 C 
BRANCH  15  16
ATOM     16  C   UNL     1       2.119   4.798  20.867  0.00  0.00    +0.000 C 
BRANCH  16  17
ATOM     17  S   UNL     1       1.828   3.046  21.017  0.00  0.00    +0.000 S 
ATOM     18  C   UNL     1       3.380   2.347  20.505  0.00  0.00    +0.000 C 
ATOM     19  O   UNL     1       1.645   2.733  22.419  0.00  0.00    +0.000 OA
ATOM     20  O   UNL     1       0.836   2.665  20.028  0.00  0.00    +0.000 OA
ENDBRANCH  16  17
ENDBRANCH  15  16
ENDBRANCH  14  15
ENDBRANCH  13  14
ENDBRANCH   1  13
TORSDOF 9
ENDMDL
MODEL 2
REMARK VINA RESULT:      -6.0      0.733      1.555
REMARK  Name = 
REMARK  11 active torsions:
REMARK  status: ('A' for Active; 'I' for Inactive)
REMARK    1  A    between atoms: C_1  and  N_2
REMARK    2  A    between atoms: N_2  and  C_3
REMARK    3  A    between atoms: N_2  and  C_10
REMARK    4  A    between atoms: C_3  and  C_4
REMARK    5  A    between atoms: C_4  and  C_5
REMARK    6  A    between atoms: C_5  and  S_6
REMARK    7  A    between atoms: S_6  and  C_7
REMARK    8  A    between atoms: C_10  and  C_11
REMARK    9  A    between atoms: N_14  and  C_15
REMARK   10  A    between atoms: C_15  and  C_16
REMARK   11  A    between atoms: C_16  and  O_17
REMARK                            x       y       z     vdW  Elec       q    Type
REMARK                         _______ _______ _______ _____ _____    ______ ____
ROOT
ATOM      1  C   UNL     1       4.488   4.126  16.110  0.00  0.00    +0.000 C 
ENDROOT
BRANCH   1   2
ATOM      2  C   UNL     1       5.519   4.965  15.309  0.00  0.00    +0.000 C 
ATOM      3  C   UNL     1       6.950   4.464  15.557  0.00  0.00    +0.000 C 
ATOM      4  C   UNL     1       7.473   4.826  16.950  0.00  0.00    +0.000 C 
ATOM      5  N   UNL     1       7.422   6.278  17.188  0.00  0.00    +0.000 NA
ATOM      6  C   UNL     1       6.049   6.789  17.014  0.00  0.00    +0.000 C 
ATOM      7  C   UNL     1       5.471   6.465  15.634  0.00  0.00    +0.000 C 
BRANCH   5   8
ATOM      8  C   UNL     1       7.885   6.615  18.560  0.00  0.00    +0.000 C 
BRANCH   8   9
ATOM      9  C   UNL     1       7.590   5.520  19.598  0.00  0.00    +0.000 C 
BRANCH   9  10
ATOM     10  O   UNL     1       8.757   5.239  20.367  0.00  0.00    +0.000 OA
ATOM     11  H   UNL     1       9.478   5.719  19.913  0.00  0.00    +0.000 HD
ENDBRANCH   9  10
ENDBRANCH   8   9
ENDBRANCH   5   8
ENDBRANCH   1   2
BRANCH   1  13
ATOM     12  C   UNL     1       2.795   4.923  17.662  0.00  0.00    +0.000 C 
ATOM     13  N   UNL     1       4.221   4.616  17.479  0.00  0.00    +0.000 NA
BRANCH  13  14
ATOM     14  C   UNL     1       4.630   3.640  18.511  0.00  0.00    +0.000 C 
BRANCH  14  15
ATOM     15  C   UNL     1       3.531   2.665  18.947  0.00  0.00    +0.000 C 
BRANCH  15  16
ATOM     16  C   UNL     1       3.315   2.665  20.455  0.00  0.00    +0.000 C 
BRANCH  16  17
ATOM     17  S   UNL     1       1.633   3.089  20.862  0.00  0.00    +0.000 S 
ATOM     18  C   UNL     1       1.697   4.861  20.990  0.00  0.00    +0.000 C 
ATOM     19  O   UNL     1       0.794   2.759  19.729  0.00  0.00    +0.000 OA
ATOM     20  O   UNL     1       1.342   2.570  22.186  0.00  0.00    +0.000 OA
ENDBRANCH  16  17
ENDBRANCH  15  16
ENDBRANCH  14  15
ENDBRANCH  13  14
ENDBRANCH   1  13
TORSDOF 9
ENDMDL
MODEL 3
REMARK VINA RESULT:      -6.0      2.376      3.308
REMARK  Name = 
REMARK  11 active torsions:
REMARK  status: ('A' for Active; 'I' for Inactive)
REMARK    1  A    between atoms: C_1  and  N_2
REMARK    2  A    between atoms: N_2  and  C_3
REMARK    3  A    between atoms: N_2  and  C_10
REMARK    4  A    between atoms: C_3  and  C_4
REMARK    5  A    between atoms: C_4  and  C_5
REMARK    6  A    between atoms: C_5  and  S_6
REMARK    7  A    between atoms: S_6  and  C_7
REMARK    8  A    between atoms: C_10  and  C_11
REMARK    9  A    between atoms: N_14  and  C_15
REMARK   10  A    between atoms: C_15  and  C_16
REMARK   11  A    between atoms: C_16  and  O_17
REMARK                            x       y       z     vdW  Elec       q    Type
REMARK                         _______ _______ _______ _____ _____    ______ ____
ROOT
ATOM      1  C   UNL     1       4.343   4.716  17.953  0.00  0.00    +0.000 C 
ENDROOT
BRANCH   1   2
ATOM      2  C   UNL     1       5.443   5.801  17.808  0.00  0.00    +0.000 C 
ATOM      3  C   UNL     1       5.176   6.698  16.590  0.00  0.00    +0.000 C 
ATOM      4  C   UNL     1       5.450   5.991  15.260  0.00  0.00    +0.000 C 
ATOM      5  N   UNL     1       6.830   5.482  15.191  0.00  0.00    +0.000 NA
ATOM      6  C   UNL     1       7.109   4.570  16.318  0.00  0.00    +0.000 C 
ATOM      7  C   UNL     1       6.859   5.223  17.679  0.00  0.00    +0.000 C 
BRANCH   5   8
ATOM      8  C   UNL     1       7.074   4.754  13.918  0.00  0.00    +0.000 C 
BRANCH   8   9
ATOM      9  C   UNL     1       5.955   3.767  13.549  0.00  0.00    +0.000 C 
BRANCH   9  10
ATOM     10  O   UNL     1       6.382   2.907  12.495  0.00  0.00    +0.000 OA
ATOM     11  H   UNL     1       5.765   2.149  12.523  0.00  0.00    +0.000 HD
ENDBRANCH   9  10
ENDBRANCH   8   9
ENDBRANCH   5   8
ENDBRANCH   1   2
BRANCH   1  13
ATOM     12  C   UNL     1       2.079   4.094  17.322  0.00  0.00    +0.000 C 
ATOM     13  N   UNL     1       2.964   5.198  17.721  0.00  0.00    +0.000 NA
BRANCH  13  14
ATOM     14  C   UNL     1       2.393   5.852  18.917  0.00  0.00    +0.000 C 
BRANCH  14  15
ATOM     15  C   UNL     1       2.876   5.283  20.255  0.00  0.00    +0.000 C 
BRANCH  15  16
ATOM     16  C   UNL     1       1.770   4.562  21.016  0.00  0.00    +0.000 C 
BRANCH  16  17
ATOM     17  S   UNL     1       2.112   2.818  21.145  0.00  0.00    +0.000 S 
ATOM     18  C   UNL     1       1.141   2.131  19.825  0.00  0.00    +0.000 C 
ATOM     19  O   UNL     1       3.508   2.604  20.824  0.00  0.00    +0.000 OA
ATOM     20  O   UNL     1       1.548   2.337  22.393  0.00  0.00    +0.000 OA
ENDBRANCH  16  17
ENDBRANCH  15  16
ENDBRANCH  14  15
ENDBRANCH  13  14
ENDBRANCH   1  13
TORSDOF 9
ENDMDL
MODEL 4
REMARK VINA RESULT:      -5.9      3.062      5.808
REMARK  Name = 
REMARK  11 active torsions:
REMARK  status: ('A' for Active; 'I' for Inactive)
REMARK    1  A    between atoms: C_1  and  N_2
REMARK    2  A    between atoms: N_2  and  C_3
REMARK    3  A    between atoms: N_2  and  C_10
REMARK    4  A    between atoms: C_3  and  C_4
REMARK    5  A    between atoms: C_4  and  C_5
REMARK    6  A    between atoms: C_5  and  S_6
REMARK    7  A    between atoms: S_6  and  C_7
REMARK    8  A    between atoms: C_10  and  C_11
REMARK    9  A    between atoms: N_14  and  C_15
REMARK   10  A    between atoms: C_15  and  C_16
REMARK   11  A    between atoms: C_16  and  O_17
REMARK                            x       y       z     vdW  Elec       q    Type
REMARK                         _______ _______ _______ _____ _____    ______ ____
ROOT
ATOM      1  C   UNL     1       2.545   6.023  19.103  0.00  0.00    +0.000 C 
ENDROOT
BRANCH   1   2
ATOM      2  C   UNL     1       1.365   5.033  18.923  0.00  0.00    +0.000 C 
ATOM      3  C   UNL     1       1.269   4.066  20.113  0.00  0.00    +0.000 C 
ATOM      4  C   UNL     1       2.382   3.015  20.115  0.00  0.00    +0.000 C 
ATOM      5  N   UNL     1       2.397   2.239  18.864  0.00  0.00    +0.000 NA
ATOM      6  C   UNL     1       2.544   3.131  17.697  0.00  0.00    +0.000 C 
ATOM      7  C   UNL     1       1.454   4.203  17.634  0.00  0.00    +0.000 C 
BRANCH   5   8
ATOM      8  C   UNL     1       3.511   1.255  18.853  0.00  0.00    +0.000 C 
BRANCH   8   9
ATOM      9  C   UNL     1       4.634   1.583  19.850  0.00  0.00    +0.000 C 
BRANCH   9  10
ATOM     10  O   UNL     1       5.372   2.720  19.407  0.00  0.00    +0.000 OA
ATOM     11  H   UNL     1       4.705   3.427  19.301  0.00  0.00    +0.000 HD
ENDBRANCH   9  10
ENDBRANCH   8   9
ENDBRANCH   5   8
ENDBRANCH   1   2
BRANCH   1  13
ATOM     12  C   UNL     1       2.110   8.158  18.023  0.00  0.00    +0.000 C 
ATOM     13  N   UNL     1       2.823   6.875  17.927  0.00  0.00    +0.000 NA
BRANCH  13  14
ATOM     14  C   UNL     1       4.266   7.149  17.764  0.00  0.00    +0.000 C 
BRANCH  14  15
ATOM     15  C   UNL     1       5.183   5.946  18.015  0.00  0.00    +0.000 C 
BRANCH  15  16
ATOM     16  C   UNL     1       5.410   5.115  16.759  0.00  0.00    +0.000 C 
BRANCH  16  17
ATOM     17  S   UNL     1       7.111   5.199  16.233  0.00  0.00    +0.000 S 
ATOM     18  C   UNL     1       7.024   4.660  14.542  0.00  0.00    +0.000 C 
ATOM     19  O   UNL     1       7.518   6.589  16.233  0.00  0.00    +0.000 OA
ATOM     20  O   UNL     1       7.863   4.199  16.969  0.00  0.00    +0.000 OA
ENDBRANCH  16  17
ENDBRANCH  15  16
ENDBRANCH  14  15
ENDBRANCH  13  14
ENDBRANCH   1  13
TORSDOF 9
ENDMDL
MODEL 5
REMARK VINA RESULT:      -5.9      2.294      3.300
REMARK  Name = 
REMARK  11 active torsions:
REMARK  status: ('A' for Active; 'I' for Inactive)
REMARK    1  A    between atoms: C_1  and  N_2
REMARK    2  A    between atoms: N_2  and  C_3
REMARK    3  A    between atoms: N_2  and  C_10
REMARK    4  A    between atoms: C_3  and  C_4
REMARK    5  A    between atoms: C_4  and  C_5
REMARK    6  A    between atoms: C_5  and  S_6
REMARK    7  A    between atoms: S_6  and  C_7
REMARK    8  A    between atoms: C_10  and  C_11
REMARK    9  A    between atoms: N_14  and  C_15
REMARK   10  A    between atoms: C_15  and  C_16
REMARK   11  A    between atoms: C_16  and  O_17
REMARK                            x       y       z     vdW  Elec       q    Type
REMARK                         _______ _______ _______ _____ _____    ______ ____
ROOT
ATOM      1  C   UNL     1       4.592   4.821  18.583  0.00  0.00    +0.000 C 
ENDROOT
BRANCH   1   2
ATOM      2  C   UNL     1       5.441   6.068  18.218  0.00  0.00    +0.000 C 
ATOM      3  C   UNL     1       4.943   6.712  16.916  0.00  0.00    +0.000 C 
ATOM      4  C   UNL     1       5.297   5.890  15.673  0.00  0.00    +0.000 C 
ATOM      5  N   UNL     1       6.747   5.656  15.573  0.00  0.00    +0.000 NA
ATOM      6  C   UNL     1       7.255   4.986  16.786  0.00  0.00    +0.000 C 
ATOM      7  C   UNL     1       6.938   5.765  18.065  0.00  0.00    +0.000 C 
BRANCH   5   8
ATOM      8  C   UNL     1       7.076   4.816  14.391  0.00  0.00    +0.000 C 
BRANCH   8   9
ATOM      9  C   UNL     1       5.908   3.939  13.913  0.00  0.00    +0.000 C 
BRANCH   9  10
ATOM     10  O   UNL     1       6.338   3.066  12.872  0.00  0.00    +0.000 OA
ATOM     11  H   UNL     1       5.646   3.133  12.184  0.00  0.00    +0.000 HD
ENDBRANCH   9  10
ENDBRANCH   8   9
ENDBRANCH   5   8
ENDBRANCH   1   2
BRANCH   1  13
ATOM     12  C   UNL     1       4.055   2.966  17.106  0.00  0.00    +0.000 C 
ATOM     13  N   UNL     1       3.706   4.338  17.502  0.00  0.00    +0.000 NA
BRANCH  13  14
ATOM     14  C   UNL     1       2.281   4.368  17.893  0.00  0.00    +0.000 C 
BRANCH  14  15
ATOM     15  C   UNL     1       1.695   3.011  18.298  0.00  0.00    +0.000 C 
BRANCH  15  16
ATOM     16  C   UNL     1       0.898   3.084  19.594  0.00  0.00    +0.000 C 
BRANCH  16  17
ATOM     17  S   UNL     1       1.973   3.010  21.013  0.00  0.00    +0.000 S 
ATOM     18  C   UNL     1       2.268   4.726  21.370  0.00  0.00    +0.000 C 
ATOM     19  O   UNL     1       1.225   2.451  22.121  0.00  0.00    +0.000 OA
ATOM     20  O   UNL     1       3.237   2.431  20.595  0.00  0.00    +0.000 OA
ENDBRANCH  16  17
ENDBRANCH  15  16
ENDBRANCH  14  15
ENDBRANCH  13  14
ENDBRANCH   1  13
TORSDOF 9
ENDMDL
MODEL 6
REMARK VINA RESULT:      -5.8      1.121      1.324
REMARK  Name = 
REMARK  11 active torsions:
REMARK  status: ('A' for Active; 'I' for Inactive)
REMARK    1  A    between atoms: C_1  and  N_2
REMARK    2  A    between atoms: N_2  and  C_3
REMARK    3  A    between atoms: N_2  and  C_10
REMARK    4  A    between atoms: C_3  and  C_4
REMARK    5  A    between atoms: C_4  and  C_5
REMARK    6  A    between atoms: C_5  and  S_6
REMARK    7  A    between atoms: S_6  and  C_7
REMARK    8  A    between atoms: C_10  and  C_11
REMARK    9  A    between atoms: N_14  and  C_15
REMARK   10  A    between atoms: C_15  and  C_16
REMARK   11  A    between atoms: C_16  and  O_17
REMARK                            x       y       z     vdW  Elec       q    Type
REMARK                         _______ _______ _______ _____ _____    ______ ____
ROOT
ATOM      1  C   UNL     1       4.401   3.788  17.110  0.00  0.00    +0.000 C 
ENDROOT
BRANCH   1   2
ATOM      2  C   UNL     1       5.103   4.592  15.984  0.00  0.00    +0.000 C 
ATOM      3  C   UNL     1       6.599   4.252  15.915  0.00  0.00    +0.000 C 
ATOM      4  C   UNL     1       7.398   4.845  17.079  0.00  0.00    +0.000 C 
ATOM      5  N   UNL     1       7.239   6.307  17.156  0.00  0.00    +0.000 NA
ATOM      6  C   UNL     1       5.814   6.672  17.280  0.00  0.00    +0.000 C 
ATOM      7  C   UNL     1       4.961   6.113  16.139  0.00  0.00    +0.000 C 
BRANCH   5   8
ATOM      8  C   UNL     1       7.977   6.869  18.318  0.00  0.00    +0.000 C 
BRANCH   8   9
ATOM      9  C   UNL     1       8.291   5.832  19.409  0.00  0.00    +0.000 C 
BRANCH   9  10
ATOM     10  O   UNL     1       7.107   5.499  20.130  0.00  0.00    +0.000 OA
ATOM     11  H   UNL     1       7.420   5.229  21.016  0.00  0.00    +0.000 HD
ENDBRANCH   9  10
ENDBRANCH   8   9
ENDBRANCH   5   8
ENDBRANCH   1   2
BRANCH   1  13
ATOM     12  C   UNL     1       2.463   2.324  17.224  0.00  0.00    +0.000 C 
ATOM     13  N   UNL     1       2.931   3.696  16.980  0.00  0.00    +0.000 NA
BRANCH  13  14
ATOM     14  C   UNL     1       2.230   4.606  17.911  0.00  0.00    +0.000 C 
BRANCH  14  15
ATOM     15  C   UNL     1       3.078   5.103  19.087  0.00  0.00    +0.000 C 
BRANCH  15  16
ATOM     16  C   UNL     1       2.365   4.952  20.425  0.00  0.00    +0.000 C 
BRANCH  16  17
ATOM     17  S   UNL     1       2.489   3.282  21.033  0.00  0.00    +0.000 S 
ATOM     18  C   UNL     1       1.038   2.511  20.354  0.00  0.00    +0.000 C 
ATOM     19  O   UNL     1       3.645   2.660  20.422  0.00  0.00    +0.000 OA
ATOM     20  O   UNL     1       2.328   3.312  22.475  0.00  0.00    +0.000 OA
ENDBRANCH  16  17
ENDBRANCH  15  16
ENDBRANCH  14  15
ENDBRANCH  13  14
ENDBRANCH   1  13
TORSDOF 9
ENDMDL
MODEL 7
REMARK VINA RESULT:      -5.7      2.682      3.601
REMARK  Name = 
REMARK  11 active torsions:
REMARK  status: ('A' for Active; 'I' for Inactive)
REMARK    1  A    between atoms: C_1  and  N_2
REMARK    2  A    between atoms: N_2  and  C_3
REMARK    3  A    between atoms: N_2  and  C_10
REMARK    4  A    between atoms: C_3  and  C_4
REMARK    5  A    between atoms: C_4  and  C_5
REMARK    6  A    between atoms: C_5  and  S_6
REMARK    7  A    between atoms: S_6  and  C_7
REMARK    8  A    between atoms: C_10  and  C_11
REMARK    9  A    between atoms: N_14  and  C_15
REMARK   10  A    between atoms: C_15  and  C_16
REMARK   11  A    between atoms: C_16  and  O_17
REMARK                            x       y       z     vdW  Elec       q    Type
REMARK                         _______ _______ _______ _____ _____    ______ ____
ROOT
ATOM      1  C   UNL     1       4.243   5.818  18.089  0.00  0.00    +0.000 C 
ENDROOT
BRANCH   1   2
ATOM      2  C   UNL     1       5.780   5.930  18.264  0.00  0.00    +0.000 C 
ATOM      3  C   UNL     1       6.361   7.022  17.354  0.00  0.00    +0.000 C 
ATOM      4  C   UNL     1       6.382   6.616  15.878  0.00  0.00    +0.000 C 
ATOM      5  N   UNL     1       7.132   5.366  15.670  0.00  0.00    +0.000 NA
ATOM      6  C   UNL     1       6.568   4.275  16.489  0.00  0.00    +0.000 C 
ATOM      7  C   UNL     1       6.526   4.619  17.979  0.00  0.00    +0.000 C 
BRANCH   5   8
ATOM      8  C   UNL     1       7.106   4.953  14.242  0.00  0.00    +0.000 C 
BRANCH   8   9
ATOM      9  C   UNL     1       6.144   3.788  13.955  0.00  0.00    +0.000 C 
BRANCH   9  10
ATOM     10  O   UNL     1       6.081   3.533  12.554  0.00  0.00    +0.000 OA
ATOM     11  H   UNL     1       5.351   4.097  12.228  0.00  0.00    +0.000 HD
ENDBRANCH   9  10
ENDBRANCH   8   9
ENDBRANCH   5   8
ENDBRANCH   1   2
BRANCH   1  13
ATOM     12  C   UNL     1       2.788   7.759  17.928  0.00  0.00    +0.000 C 
ATOM     13  N   UNL     1       3.459   6.822  18.840  0.00  0.00    +0.000 NA
BRANCH  13  14
ATOM     14  C   UNL     1       2.440   6.198  19.709  0.00  0.00    +0.000 C 
BRANCH  14  15
ATOM     15  C   UNL     1       2.717   4.737  20.082  0.00  0.00    +0.000 C 
BRANCH  15  16
ATOM     16  C   UNL     1       1.455   3.885  20.079  0.00  0.00    +0.000 C 
BRANCH  16  17
ATOM     17  S   UNL     1       1.290   2.987  18.548  0.00  0.00    +0.000 S 
ATOM     18  C   UNL     1       2.834   2.113  18.440  0.00  0.00    +0.000 C 
ATOM     19  O   UNL     1       0.238   2.005  18.708  0.00  0.00    +0.000 OA
ATOM     20  O   UNL     1       1.260   3.947  17.460  0.00  0.00    +0.000 OA
ENDBRANCH  16  17
ENDBRANCH  15  16
ENDBRANCH  14  15
ENDBRANCH  13  14
ENDBRANCH   1  13
TORSDOF 9
ENDMDL
MODEL 8
REMARK VINA RESULT:      -5.7      3.266      6.501
REMARK  Name = 
REMARK  11 active torsions:
REMARK  status: ('A' for Active; 'I' for Inactive)
REMARK    1  A    between atoms: C_1  and  N_2
REMARK    2  A    between atoms: N_2  and  C_3
REMARK    3  A    between atoms: N_2  and  C_10
REMARK    4  A    between atoms: C_3  and  C_4
REMARK    5  A    between atoms: C_4  and  C_5
REMARK    6  A    between atoms: C_5  and  S_6
REMARK    7  A    between atoms: S_6  and  C_7
REMARK    8  A    between atoms: C_10  and  C_11
REMARK    9  A    between atoms: N_14  and  C_15
REMARK   10  A    between atoms: C_15  and  C_16
REMARK   11  A    between atoms: C_16  and  O_17
REMARK                            x       y       z     vdW  Elec       q    Type
REMARK                         _______ _______ _______ _____ _____    ______ ____
ROOT
ATOM      1  C   UNL     1       4.423   5.748  19.416  0.00  0.00    +0.000 C 
ENDROOT
BRANCH   1   2
ATOM      2  C   UNL     1       2.971   6.262  19.234  0.00  0.00    +0.000 C 
ATOM      3  C   UNL     1       2.063   5.762  20.368  0.00  0.00    +0.000 C 
ATOM      4  C   UNL     1       1.738   4.270  20.254  0.00  0.00    +0.000 C 
ATOM      5  N   UNL     1       1.114   3.948  18.960  0.00  0.00    +0.000 NA
ATOM      6  C   UNL     1       1.983   4.365  17.842  0.00  0.00    +0.000 C 
ATOM      7  C   UNL     1       2.340   5.852  17.896  0.00  0.00    +0.000 C 
BRANCH   5   8
ATOM      8  C   UNL     1       0.846   2.491  18.837  0.00  0.00    +0.000 C 
BRANCH   8   9
ATOM      9  C   UNL     1       1.966   1.608  19.412  0.00  0.00    +0.000 C 
BRANCH   9  10
ATOM     10  O   UNL     1       2.901   1.269  18.391  0.00  0.00    +0.000 OA
ATOM     11  H   UNL     1       2.485   0.530  17.904  0.00  0.00    +0.000 HD
ENDBRANCH   9  10
ENDBRANCH   8   9
ENDBRANCH   5   8
ENDBRANCH   1   2
BRANCH   1  13
ATOM     12  C   UNL     1       5.778   6.935  17.783  0.00  0.00    +0.000 C 
ATOM     13  N   UNL     1       5.202   5.638  18.163  0.00  0.00    +0.000 NA
BRANCH  13  14
ATOM     14  C   UNL     1       6.295   4.649  18.271  0.00  0.00    +0.000 C 
BRANCH  14  15
ATOM     15  C   UNL     1       7.302   4.672  17.116  0.00  0.00    +0.000 C 
BRANCH  15  16
ATOM     16  C   UNL     1       6.819   3.883  15.906  0.00  0.00    +0.000 C 
BRANCH  16  17
ATOM     17  S   UNL     1       6.639   4.939  14.482  0.00  0.00    +0.000 S 
ATOM     18  C   UNL     1       6.182   3.794  13.202  0.00  0.00    +0.000 C 
ATOM     19  O   UNL     1       5.513   5.820  14.709  0.00  0.00    +0.000 OA
ATOM     20  O   UNL     1       7.948   5.468  14.142  0.00  0.00    +0.000 OA
ENDBRANCH  16  17
ENDBRANCH  15  16
ENDBRANCH  14  15
ENDBRANCH  13  14
ENDBRANCH   1  13
TORSDOF 9
ENDMDL
MODEL 9
REMARK VINA RESULT:      -5.7      2.245      3.272
REMARK  Name = 
REMARK  11 active torsions:
REMARK  status: ('A' for Active; 'I' for Inactive)
REMARK    1  A    between atoms: C_1  and  N_2
REMARK    2  A    between atoms: N_2  and  C_3
REMARK    3  A    between atoms: N_2  and  C_10
REMARK    4  A    between atoms: C_3  and  C_4
REMARK    5  A    between atoms: C_4  and  C_5
REMARK    6  A    between atoms: C_5  and  S_6
REMARK    7  A    between atoms: S_6  and  C_7
REMARK    8  A    between atoms: C_10  and  C_11
REMARK    9  A    between atoms: N_14  and  C_15
REMARK   10  A    between atoms: C_15  and  C_16
REMARK   11  A    between atoms: C_16  and  O_17
REMARK                            x       y       z     vdW  Elec       q    Type
REMARK                         _______ _______ _______ _____ _____    ______ ____
ROOT
ATOM      1  C   UNL     1       5.410   5.169  19.084  0.00  0.00    +0.000 C 
ENDROOT
BRANCH   1   2
ATOM      2  C   UNL     1       6.680   5.765  18.422  0.00  0.00    +0.000 C 
ATOM      3  C   UNL     1       6.315   6.897  17.450  0.00  0.00    +0.000 C 
ATOM      4  C   UNL     1       5.667   6.387  16.160  0.00  0.00    +0.000 C 
ATOM      5  N   UNL     1       6.529   5.416  15.467  0.00  0.00    +0.000 NA
ATOM      6  C   UNL     1       6.857   4.282  16.353  0.00  0.00    +0.000 C 
ATOM      7  C   UNL     1       7.516   4.727  17.660  0.00  0.00    +0.000 C 
BRANCH   5   8
ATOM      8  C   UNL     1       5.871   4.889  14.242  0.00  0.00    +0.000 C 
BRANCH   8   9
ATOM      9  C   UNL     1       6.835   4.170  13.285  0.00  0.00    +0.000 C 
BRANCH   9  10
ATOM     10  O   UNL     1       6.269   2.938  12.845  0.00  0.00    +0.000 OA
ATOM     11  H   UNL     1       7.008   2.459  12.419  0.00  0.00    +0.000 HD
ENDBRANCH   9  10
ENDBRANCH   8   9
ENDBRANCH   5   8
ENDBRANCH   1   2
BRANCH   1  13
ATOM     12  C   UNL     1       3.473   4.437  17.810  0.00  0.00    +0.000 C 
ATOM     13  N   UNL     1       4.134   5.579  18.458  0.00  0.00    +0.000 NA
BRANCH  13  14
ATOM     14  C   UNL     1       3.199   6.174  19.435  0.00  0.00    +0.000 C 
BRANCH  14  15
ATOM     15  C   UNL     1       1.976   5.310  19.766  0.00  0.00    +0.000 C 
BRANCH  15  16
ATOM     16  C   UNL     1       2.078   4.656  21.138  0.00  0.00    +0.000 C 
BRANCH  16  17
ATOM     17  S   UNL     1       1.916   2.885  21.018  0.00  0.00    +0.000 S 
ATOM     18  C   UNL     1       3.590   2.358  20.738  0.00  0.00    +0.000 C 
ATOM     19  O   UNL     1       1.504   2.379  22.311  0.00  0.00    +0.000 OA
ATOM     20  O   UNL     1       1.159   2.580  19.818  0.00  0.00    +0.000 OA
ENDBRANCH  16  17
ENDBRANCH  15  16
ENDBRANCH  14  15
ENDBRANCH  13  14
ENDBRANCH   1  13
TORSDOF 9
ENDMDL
