MODEL 1
REMARK VINA RESULT:      -8.6      0.000      0.000
REMARK  Name = 
REMARK  6 active torsions:
REMARK  status: ('A' for Active; 'I' for Inactive)
REMARK    1  A    between atoms: C_2  and  C_3
REMARK    2  A    between atoms: C_2  and  C_10
REMARK    3  A    between atoms: N_13  and  C_14
REMARK    4  A    between atoms: N_17  and  C_18
REMARK    5  A    between atoms: C_18  and  C_19
REMARK    6  A    between atoms: C_27  and  O_28
REMARK                            x       y       z     vdW  Elec       q    Type
REMARK                         _______ _______ _______ _____ _____    ______ ____
ROOT
ATOM      1  C   UNL     1       3.062   6.682  18.987  0.00  0.00    +0.000 C 
ATOM      2  C   UNL     1       2.695   7.647  17.859  0.00  0.00    +0.000 C 
ATOM      3  C   UNL     1       2.401   9.028  18.392  0.00  0.00    +0.000 C 
ATOM      4  N   UNL     1       1.189   8.956  19.203  0.00  0.00    +0.000 NA
ATOM      5  C   UNL     1       1.431   8.125  20.390  0.00  0.00    +0.000 C 
ATOM      6  C   UNL     1       1.891   6.681  20.031  0.00  0.00    +0.000 C 
ENDROOT
BRANCH   1  10
ATOM      7  C   UNL     1       6.172   5.772  17.325  0.00  0.00    +0.000 C 
ATOM      8  C   UNL     1       6.064   5.383  18.814  0.00  0.00    +0.000 C 
ATOM      9  C   UNL     1       4.714   4.817  19.257  0.00  0.00    +0.000 C 
ATOM     10  N   UNL     1       3.538   5.342  18.559  0.00  0.00    +0.000 NA
ATOM     11  C   UNL     1       3.684   5.084  17.132  0.00  0.00    +0.000 C 
ATOM     12  C   UNL     1       4.873   5.786  16.492  0.00  0.00    +0.000 C 
BRANCH   7  14
ATOM     13  O   UNL     1       8.035   4.238  17.230  0.00  0.00    +0.000 OA
ATOM     14  C   UNL     1       7.179   4.876  16.624  0.00  0.00    +0.000 C 
BRANCH  14  15
ATOM     15  C   UNL     1       7.048   4.671  15.151  0.00  0.00    +0.000 A 
ATOM     16  C   UNL     1       7.859   5.460  14.329  0.00  0.00    +0.000 A 
ATOM     17  C   UNL     1       7.828   5.285  12.940  0.00  0.00    +0.000 A 
ATOM     18  C   UNL     1       6.978   4.331  12.393  0.00  0.00    +0.000 A 
ATOM     19  F   UNL     1       6.947   4.165  11.063  0.00  0.00    +0.000 F 
ATOM     20  C   UNL     1       6.159   3.553  13.201  0.00  0.00    +0.000 A 
ATOM     21  C   UNL     1       6.188   3.719  14.588  0.00  0.00    +0.000 A 
ENDBRANCH  14  15
ENDBRANCH   7  14
ENDBRANCH   1  10
BRANCH   6  22
ATOM     22  O   UNL     1       2.264   6.011  21.243  0.00  0.00    +0.000 OA
ATOM     23  H   UNL     1       2.658   5.157  20.998  0.00  0.00    +0.000 HD
ENDBRANCH   6  22
BRANCH   4  24
ATOM     24  C   UNL     1       0.692  10.304  19.514  0.00  0.00    +0.000 C 
BRANCH  24  25
ATOM     25  C   UNL     1      -0.608  10.583  18.764  0.00  0.00    +0.000 A 
ATOM     26  C   UNL     1      -1.505  11.551  19.253  0.00  0.00    +0.000 A 
ATOM     27  C   UNL     1      -2.773  11.693  18.686  0.00  0.00    +0.000 A 
ATOM     28  C   UNL     1      -3.143  10.877  17.625  0.00  0.00    +0.000 A 
ATOM     29  F   UNL     1      -4.371  10.993  17.102  0.00  0.00    +0.000 F 
ATOM     30  C   UNL     1      -2.266   9.928  17.112  0.00  0.00    +0.000 A 
ATOM     31  C   UNL     1      -0.997   9.781  17.678  0.00  0.00    +0.000 A 
ENDBRANCH  24  25
ENDBRANCH   4  24
TORSDOF 6
ENDMDL
MODEL 2
REMARK VINA RESULT:      -8.4      0.264      1.276
REMARK  Name = 
REMARK  6 active torsions:
REMARK  status: ('A' for Active; 'I' for Inactive)
REMARK    1  A    between atoms: C_2  and  C_3
REMARK    2  A    between atoms: C_2  and  C_10
REMARK    3  A    between atoms: N_13  and  C_14
REMARK    4  A    between atoms: N_17  and  C_18
REMARK    5  A    between atoms: C_18  and  C_19
REMARK    6  A    between atoms: C_27  and  O_28
REMARK                            x       y       z     vdW  Elec       q    Type
REMARK                         _______ _______ _______ _____ _____    ______ ____
ROOT
ATOM      1  C   UNL     1       3.060   6.872  18.956  0.00  0.00    +0.000 C 
ATOM      2  C   UNL     1       2.771   7.761  17.746  0.00  0.00    +0.000 C 
ATOM      3  C   UNL     1       2.437   9.171  18.167  0.00  0.00    +0.000 C 
ATOM      4  N   UNL     1       1.171   9.142  18.895  0.00  0.00    +0.000 NA
ATOM      5  C   UNL     1       1.333   8.391  20.147  0.00  0.00    +0.000 C 
ATOM      6  C   UNL     1       1.819   6.930  19.915  0.00  0.00    +0.000 C 
ENDROOT
BRANCH   1  10
ATOM      7  C   UNL     1       6.149   5.893  17.295  0.00  0.00    +0.000 C 
ATOM      8  C   UNL     1       6.098   5.653  18.818  0.00  0.00    +0.000 C 
ATOM      9  C   UNL     1       4.781   5.094  19.359  0.00  0.00    +0.000 C 
ATOM     10  N   UNL     1       3.568   5.510  18.649  0.00  0.00    +0.000 NA
ATOM     11  C   UNL     1       3.682   5.114  17.251  0.00  0.00    +0.000 C 
ATOM     12  C   UNL     1       4.827   5.783  16.506  0.00  0.00    +0.000 C 
BRANCH   7  14
ATOM     13  O   UNL     1       7.998   4.338  17.307  0.00  0.00    +0.000 OA
ATOM     14  C   UNL     1       7.165   4.961  16.655  0.00  0.00    +0.000 C 
BRANCH  14  15
ATOM     15  C   UNL     1       7.072   4.703  15.188  0.00  0.00    +0.000 A 
ATOM     16  C   UNL     1       6.169   3.717  14.776  0.00  0.00    +0.000 A 
ATOM     17  C   UNL     1       5.991   3.458  13.412  0.00  0.00    +0.000 A 
ATOM     18  C   UNL     1       6.726   4.180  12.480  0.00  0.00    +0.000 A 
ATOM     19  F   UNL     1       6.557   3.931  11.173  0.00  0.00    +0.000 F 
ATOM     20  C   UNL     1       7.636   5.151  12.880  0.00  0.00    +0.000 A 
ATOM     21  C   UNL     1       7.815   5.418  14.239  0.00  0.00    +0.000 A 
ENDBRANCH  14  15
ENDBRANCH   7  14
ENDBRANCH   1  10
BRANCH   6  22
ATOM     22  O   UNL     1       2.108   6.342  21.190  0.00  0.00    +0.000 OA
ATOM     23  H   UNL     1       3.075   6.286  21.276  0.00  0.00    +0.000 HD
ENDBRANCH   6  22
BRANCH   4  24
ATOM     24  C   UNL     1       0.651  10.504  19.084  0.00  0.00    +0.000 C 
BRANCH  24  25
ATOM     25  C   UNL     1      -0.801  10.593  18.619  0.00  0.00    +0.000 A 
ATOM     26  C   UNL     1      -1.224   9.855  17.497  0.00  0.00    +0.000 A 
ATOM     27  C   UNL     1      -2.492  10.059  16.952  0.00  0.00    +0.000 A 
ATOM     28  C   UNL     1      -3.344  10.991  17.531  0.00  0.00    +0.000 A 
ATOM     29  F   UNL     1      -4.549  11.207  16.989  0.00  0.00    +0.000 F 
ATOM     30  C   UNL     1      -2.956  11.716  18.652  0.00  0.00    +0.000 A 
ATOM     31  C   UNL     1      -1.686  11.517  19.200  0.00  0.00    +0.000 A 
ENDBRANCH  24  25
ENDBRANCH   4  24
TORSDOF 6
ENDMDL
MODEL 3
REMARK VINA RESULT:      -8.0      1.211      1.723
REMARK  Name = 
REMARK  6 active torsions:
REMARK  status: ('A' for Active; 'I' for Inactive)
REMARK    1  A    between atoms: C_2  and  C_3
REMARK    2  A    between atoms: C_2  and  C_10
REMARK    3  A    between atoms: N_13  and  C_14
REMARK    4  A    between atoms: N_17  and  C_18
REMARK    5  A    between atoms: C_18  and  C_19
REMARK    6  A    between atoms: C_27  and  O_28
REMARK                            x       y       z     vdW  Elec       q    Type
REMARK                         _______ _______ _______ _____ _____    ______ ____
ROOT
ATOM      1  C   UNL     1       2.479   7.478  19.375  0.00  0.00    +0.000 C 
ATOM      2  C   UNL     1       1.972   7.845  17.980  0.00  0.00    +0.000 C 
ATOM      3  C   UNL     1       1.658   9.318  17.879  0.00  0.00    +0.000 C 
ATOM      4  N   UNL     1       0.524   9.603  18.754  0.00  0.00    +0.000 NA
ATOM      5  C   UNL     1       0.906   9.383  20.155  0.00  0.00    +0.000 C 
ATOM      6  C   UNL     1       1.402   7.932  20.423  0.00  0.00    +0.000 C 
ENDROOT
BRANCH   1  10
ATOM      7  C   UNL     1       4.260   5.392  16.980  0.00  0.00    +0.000 C 
ATOM      8  C   UNL     1       5.103   5.950  18.146  0.00  0.00    +0.000 C 
ATOM      9  C   UNL     1       4.436   5.920  19.522  0.00  0.00    +0.000 C 
ATOM     10  N   UNL     1       2.981   6.089  19.534  0.00  0.00    +0.000 NA
ATOM     11  C   UNL     1       2.378   5.040  18.722  0.00  0.00    +0.000 C 
ATOM     12  C   UNL     1       2.772   5.087  17.253  0.00  0.00    +0.000 C 
BRANCH   7  14
ATOM     13  O   UNL     1       4.825   3.043  16.975  0.00  0.00    +0.000 OA
ATOM     14  C   UNL     1       4.910   4.136  16.422  0.00  0.00    +0.000 C 
BRANCH  14  15
ATOM     15  C   UNL     1       5.578   4.210  15.089  0.00  0.00    +0.000 A 
ATOM     16  C   UNL     1       6.767   4.943  15.019  0.00  0.00    +0.000 A 
ATOM     17  C   UNL     1       7.475   5.012  13.813  0.00  0.00    +0.000 A 
ATOM     18  C   UNL     1       6.979   4.355  12.693  0.00  0.00    +0.000 A 
ATOM     19  F   UNL     1       7.656   4.422  11.538  0.00  0.00    +0.000 F 
ATOM     20  C   UNL     1       5.791   3.637  12.750  0.00  0.00    +0.000 A 
ATOM     21  C   UNL     1       5.081   3.560  13.951  0.00  0.00    +0.000 A 
ENDBRANCH  14  15
ENDBRANCH   7  14
ENDBRANCH   1  10
BRANCH   6  22
ATOM     22  O   UNL     1       1.909   7.867  21.763  0.00  0.00    +0.000 OA
ATOM     23  H   UNL     1       1.232   7.438  22.313  0.00  0.00    +0.000 HD
ENDBRANCH   6  22
BRANCH   4  24
ATOM     24  C   UNL     1      -0.009  10.948  18.489  0.00  0.00    +0.000 C 
BRANCH  24  25
ATOM     25  C   UNL     1      -1.505  10.883  18.192  0.00  0.00    +0.000 A 
ATOM     26  C   UNL     1      -1.977  10.081  17.136  0.00  0.00    +0.000 A 
ATOM     27  C   UNL     1      -3.312  10.147  16.737  0.00  0.00    +0.000 A 
ATOM     28  C   UNL     1      -4.182  11.004  17.398  0.00  0.00    +0.000 A 
ATOM     29  F   UNL     1      -5.457  11.089  16.995  0.00  0.00    +0.000 F 
ATOM     30  C   UNL     1      -3.745  11.790  18.458  0.00  0.00    +0.000 A 
ATOM     31  C   UNL     1      -2.408  11.729  18.859  0.00  0.00    +0.000 A 
ENDBRANCH  24  25
ENDBRANCH   4  24
TORSDOF 6
ENDMDL
MODEL 4
REMARK VINA RESULT:      -7.9      4.724     11.155
REMARK  Name = 
REMARK  6 active torsions:
REMARK  status: ('A' for Active; 'I' for Inactive)
REMARK    1  A    between atoms: C_2  and  C_3
REMARK    2  A    between atoms: C_2  and  C_10
REMARK    3  A    between atoms: N_13  and  C_14
REMARK    4  A    between atoms: N_17  and  C_18
REMARK    5  A    between atoms: C_18  and  C_19
REMARK    6  A    between atoms: C_27  and  O_28
REMARK                            x       y       z     vdW  Elec       q    Type
REMARK                         _______ _______ _______ _____ _____    ______ ____
ROOT
ATOM      1  C   UNL     1       0.825  10.415  19.239  0.00  0.00    +0.000 C 
ATOM      2  C   UNL     1       0.332   9.316  20.181  0.00  0.00    +0.000 C 
ATOM      3  C   UNL     1       1.467   8.429  20.631  0.00  0.00    +0.000 C 
ATOM      4  N   UNL     1       1.966   7.700  19.468  0.00  0.00    +0.000 NA
ATOM      5  C   UNL     1       2.564   8.639  18.510  0.00  0.00    +0.000 C 
ATOM      6  C   UNL     1       1.564   9.733  18.034  0.00  0.00    +0.000 C 
ENDROOT
BRANCH   1  10
ATOM      7  C   UNL     1      -0.836  12.860  21.366  0.00  0.00    +0.000 C 
ATOM      8  C   UNL     1       0.248  13.416  20.420  0.00  0.00    +0.000 C 
ATOM      9  C   UNL     1       0.249  12.843  19.002  0.00  0.00    +0.000 C 
ATOM     10  N   UNL     1      -0.178  11.447  18.873  0.00  0.00    +0.000 NA
ATOM     11  C   UNL     1      -1.529  11.318  19.406  0.00  0.00    +0.000 C 
ATOM     12  C   UNL     1      -1.645  11.634  20.889  0.00  0.00    +0.000 C 
BRANCH   7  14
ATOM     13  O   UNL     1      -1.696  15.117  21.347  0.00  0.00    +0.000 OA
ATOM     14  C   UNL     1      -1.815  13.960  21.741  0.00  0.00    +0.000 C 
BRANCH  14  15
ATOM     15  C   UNL     1      -3.034  13.596  22.521  0.00  0.00    +0.000 A 
ATOM     16  C   UNL     1      -4.269  13.808  21.898  0.00  0.00    +0.000 A 
ATOM     17  C   UNL     1      -5.453  13.441  22.550  0.00  0.00    +0.000 A 
ATOM     18  C   UNL     1      -5.386  12.878  23.819  0.00  0.00    +0.000 A 
ATOM     19  F   UNL     1      -6.519  12.528  24.444  0.00  0.00    +0.000 F 
ATOM     20  C   UNL     1      -4.165  12.678  24.451  0.00  0.00    +0.000 A 
ATOM     21  C   UNL     1      -2.979  13.037  23.804  0.00  0.00    +0.000 A 
ENDBRANCH  14  15
ENDBRANCH   7  14
ENDBRANCH   1  10
BRANCH   6  22
ATOM     22  O   UNL     1       2.282  10.690  17.244  0.00  0.00    +0.000 OA
ATOM     23  H   UNL     1       2.969  10.210  16.752  0.00  0.00    +0.000 HD
ENDBRANCH   6  22
BRANCH   4  24
ATOM     24  C   UNL     1       2.873   6.619  19.884  0.00  0.00    +0.000 C 
BRANCH  24  25
ATOM     25  C   UNL     1       2.263   5.256  19.565  0.00  0.00    +0.000 A 
ATOM     26  C   UNL     1       2.199   4.812  18.231  0.00  0.00    +0.000 A 
ATOM     27  C   UNL     1       1.488   3.657  17.902  0.00  0.00    +0.000 A 
ATOM     28  C   UNL     1       0.850   2.938  18.904  0.00  0.00    +0.000 A 
ATOM     29  F   UNL     1       0.143   1.846  18.583  0.00  0.00    +0.000 F 
ATOM     30  C   UNL     1       0.917   3.345  20.232  0.00  0.00    +0.000 A 
ATOM     31  C   UNL     1       1.625   4.502  20.565  0.00  0.00    +0.000 A 
ENDBRANCH  24  25
ENDBRANCH   4  24
TORSDOF 6
ENDMDL
MODEL 5
REMARK VINA RESULT:      -7.7      4.635     10.998
REMARK  Name = 
REMARK  6 active torsions:
REMARK  status: ('A' for Active; 'I' for Inactive)
REMARK    1  A    between atoms: C_2  and  C_3
REMARK    2  A    between atoms: C_2  and  C_10
REMARK    3  A    between atoms: N_13  and  C_14
REMARK    4  A    between atoms: N_17  and  C_18
REMARK    5  A    between atoms: C_18  and  C_19
REMARK    6  A    between atoms: C_27  and  O_28
REMARK                            x       y       z     vdW  Elec       q    Type
REMARK                         _______ _______ _______ _____ _____    ______ ____
ROOT
ATOM      1  C   UNL     1       0.940  10.462  19.574  0.00  0.00    +0.000 C 
ATOM      2  C   UNL     1       0.521   9.248  20.405  0.00  0.00    +0.000 C 
ATOM      3  C   UNL     1       1.660   8.272  20.565  0.00  0.00    +0.000 C 
ATOM      4  N   UNL     1       1.969   7.712  19.253  0.00  0.00    +0.000 NA
ATOM      5  C   UNL     1       2.483   8.766  18.368  0.00  0.00    +0.000 C 
ATOM      6  C   UNL     1       1.483   9.947  18.195  0.00  0.00    +0.000 C 
ENDROOT
BRANCH   1  10
ATOM      7  C   UNL     1      -0.325  12.595  22.240  0.00  0.00    +0.000 C 
ATOM      8  C   UNL     1       0.657  13.260  21.254  0.00  0.00    +0.000 C 
ATOM      9  C   UNL     1       0.455  12.912  19.778  0.00  0.00    +0.000 C 
ATOM     10  N   UNL     1      -0.051  11.566  19.500  0.00  0.00    +0.000 NA
ATOM     11  C   UNL     1      -1.329  11.394  20.179  0.00  0.00    +0.000 C 
ATOM     12  C   UNL     1      -1.244  11.480  21.695  0.00  0.00    +0.000 C 
BRANCH   7  14
ATOM     13  O   UNL     1      -0.742  14.526  23.631  0.00  0.00    +0.000 OA
ATOM     14  C   UNL     1      -1.197  13.652  22.899  0.00  0.00    +0.000 C 
BRANCH  14  15
ATOM     15  C   UNL     1      -2.647  13.702  22.548  0.00  0.00    +0.000 A 
ATOM     16  C   UNL     1      -3.537  13.120  23.457  0.00  0.00    +0.000 A 
ATOM     17  C   UNL     1      -4.916  13.175  23.219  0.00  0.00    +0.000 A 
ATOM     18  C   UNL     1      -5.384  13.802  22.070  0.00  0.00    +0.000 A 
ATOM     19  F   UNL     1      -6.704  13.854  21.841  0.00  0.00    +0.000 F 
ATOM     20  C   UNL     1      -4.507  14.369  21.154  0.00  0.00    +0.000 A 
ATOM     21  C   UNL     1      -3.130  14.322  21.388  0.00  0.00    +0.000 A 
ENDBRANCH  14  15
ENDBRANCH   7  14
ENDBRANCH   1  10
BRANCH   6  22
ATOM     22  O   UNL     1       2.139  10.991  17.462  0.00  0.00    +0.000 OA
ATOM     23  H   UNL     1       1.824  10.949  16.543  0.00  0.00    +0.000 HD
ENDBRANCH   6  22
BRANCH   4  24
ATOM     24  C   UNL     1       2.868   6.555  19.381  0.00  0.00    +0.000 C 
BRANCH  24  25
ATOM     25  C   UNL     1       2.105   5.254  19.146  0.00  0.00    +0.000 A 
ATOM     26  C   UNL     1       1.464   4.613  20.223  0.00  0.00    +0.000 A 
ATOM     27  C   UNL     1       0.917   3.339  20.066  0.00  0.00    +0.000 A 
ATOM     28  C   UNL     1       0.999   2.707  18.832  0.00  0.00    +0.000 A 
ATOM     29  F   UNL     1       0.500   1.472  18.690  0.00  0.00    +0.000 F 
ATOM     30  C   UNL     1       1.608   3.329  17.748  0.00  0.00    +0.000 A 
ATOM     31  C   UNL     1       2.159   4.603  17.902  0.00  0.00    +0.000 A 
ENDBRANCH  24  25
ENDBRANCH   4  24
TORSDOF 6
ENDMDL
MODEL 6
REMARK VINA RESULT:      -7.7      1.215      1.677
REMARK  Name = 
REMARK  6 active torsions:
REMARK  status: ('A' for Active; 'I' for Inactive)
REMARK    1  A    between atoms: C_2  and  C_3
REMARK    2  A    between atoms: C_2  and  C_10
REMARK    3  A    between atoms: N_13  and  C_14
REMARK    4  A    between atoms: N_17  and  C_18
REMARK    5  A    between atoms: C_18  and  C_19
REMARK    6  A    between atoms: C_27  and  O_28
REMARK                            x       y       z     vdW  Elec       q    Type
REMARK                         _______ _______ _______ _____ _____    ______ ____
ROOT
ATOM      1  C   UNL     1       2.357   7.450  19.437  0.00  0.00    +0.000 C 
ATOM      2  C   UNL     1       1.958   7.953  18.050  0.00  0.00    +0.000 C 
ATOM      3  C   UNL     1       1.812   9.454  18.030  0.00  0.00    +0.000 C 
ATOM      4  N   UNL     1       0.676   9.813  18.875  0.00  0.00    +0.000 NA
ATOM      5  C   UNL     1       0.967   9.469  20.274  0.00  0.00    +0.000 C 
ATOM      6  C   UNL     1       1.288   7.958  20.468  0.00  0.00    +0.000 C 
ENDROOT
BRANCH   1  10
ATOM      7  C   UNL     1       4.334   5.409  17.159  0.00  0.00    +0.000 C 
ATOM      8  C   UNL     1       5.007   5.767  18.500  0.00  0.00    +0.000 C 
ATOM      9  C   UNL     1       4.111   5.684  19.737  0.00  0.00    +0.000 C 
ATOM     10  N   UNL     1       2.697   6.007  19.527  0.00  0.00    +0.000 NA
ATOM     11  C   UNL     1       2.153   5.105  18.520  0.00  0.00    +0.000 C 
ATOM     12  C   UNL     1       2.799   5.241  17.149  0.00  0.00    +0.000 C 
BRANCH   7  14
ATOM     13  O   UNL     1       4.787   3.038  17.083  0.00  0.00    +0.000 OA
ATOM     14  C   UNL     1       4.955   4.147  16.584  0.00  0.00    +0.000 C 
BRANCH  14  15
ATOM     15  C   UNL     1       5.702   4.241  15.296  0.00  0.00    +0.000 A 
ATOM     16  C   UNL     1       5.180   3.532  14.209  0.00  0.00    +0.000 A 
ATOM     17  C   UNL     1       5.799   3.617  12.956  0.00  0.00    +0.000 A 
ATOM     18  C   UNL     1       6.937   4.400  12.810  0.00  0.00    +0.000 A 
ATOM     19  F   UNL     1       7.531   4.480  11.611  0.00  0.00    +0.000 F 
ATOM     20  C   UNL     1       7.472   5.096  13.887  0.00  0.00    +0.000 A 
ATOM     21  C   UNL     1       6.857   5.020  15.140  0.00  0.00    +0.000 A 
ENDBRANCH  14  15
ENDBRANCH   7  14
ENDBRANCH   1  10
BRANCH   6  22
ATOM     22  O   UNL     1       1.722   7.759  21.821  0.00  0.00    +0.000 OA
ATOM     23  H   UNL     1       2.626   7.402  21.791  0.00  0.00    +0.000 HD
ENDBRANCH   6  22
BRANCH   4  24
ATOM     24  C   UNL     1       0.306  11.222  18.676  0.00  0.00    +0.000 C 
BRANCH  24  25
ATOM     25  C   UNL     1      -1.191  11.350  18.407  0.00  0.00    +0.000 A 
ATOM     26  C   UNL     1      -2.022  11.981  19.352  0.00  0.00    +0.000 A 
ATOM     27  C   UNL     1      -3.409  11.949  19.210  0.00  0.00    +0.000 A 
ATOM     28  C   UNL     1      -3.971  11.297  18.119  0.00  0.00    +0.000 A 
ATOM     29  F   UNL     1      -5.304  11.241  17.999  0.00  0.00    +0.000 F 
ATOM     30  C   UNL     1      -3.170  10.685  17.161  0.00  0.00    +0.000 A 
ATOM     31  C   UNL     1      -1.780  10.713  17.301  0.00  0.00    +0.000 A 
ENDBRANCH  24  25
ENDBRANCH   4  24
TORSDOF 6
ENDMDL
MODEL 7
REMARK VINA RESULT:      -7.6      4.939     11.317
REMARK  Name = 
REMARK  6 active torsions:
REMARK  status: ('A' for Active; 'I' for Inactive)
REMARK    1  A    between atoms: C_2  and  C_3
REMARK    2  A    between atoms: C_2  and  C_10
REMARK    3  A    between atoms: N_13  and  C_14
REMARK    4  A    between atoms: N_17  and  C_18
REMARK    5  A    between atoms: C_18  and  C_19
REMARK    6  A    between atoms: C_27  and  O_28
REMARK                            x       y       z     vdW  Elec       q    Type
REMARK                         _______ _______ _______ _____ _____    ______ ____
ROOT
ATOM      1  C   UNL     1       0.762  10.426  19.318  0.00  0.00    +0.000 C 
ATOM      2  C   UNL     1       0.282   9.328  20.268  0.00  0.00    +0.000 C 
ATOM      3  C   UNL     1       1.423   8.446  20.710  0.00  0.00    +0.000 C 
ATOM      4  N   UNL     1       1.914   7.716  19.544  0.00  0.00    +0.000 NA
ATOM      5  C   UNL     1       2.500   8.654  18.578  0.00  0.00    +0.000 C 
ATOM      6  C   UNL     1       1.492   9.743  18.108  0.00  0.00    +0.000 C 
ENDROOT
BRANCH   1  10
ATOM      7  C   UNL     1      -0.643  13.083  21.375  0.00  0.00    +0.000 C 
ATOM      8  C   UNL     1       0.361  13.528  20.293  0.00  0.00    +0.000 C 
ATOM      9  C   UNL     1       0.221  12.843  18.933  0.00  0.00    +0.000 C 
ATOM     10  N   UNL     1      -0.248  11.455  18.959  0.00  0.00    +0.000 NA
ATOM     11  C   UNL     1      -1.546  11.409  19.620  0.00  0.00    +0.000 C 
ATOM     12  C   UNL     1      -1.518  11.847  21.077  0.00  0.00    +0.000 C 
BRANCH   7  14
ATOM     13  O   UNL     1      -2.400  14.691  20.971  0.00  0.00    +0.000 OA
ATOM     14  C   UNL     1      -1.559  14.238  21.743  0.00  0.00    +0.000 C 
BRANCH  14  15
ATOM     15  C   UNL     1      -1.517  14.767  23.138  0.00  0.00    +0.000 A 
ATOM     16  C   UNL     1      -0.485  15.660  23.444  0.00  0.00    +0.000 A 
ATOM     17  C   UNL     1      -0.414  16.236  24.719  0.00  0.00    +0.000 A 
ATOM     18  C   UNL     1      -1.369  15.902  25.671  0.00  0.00    +0.000 A 
ATOM     19  F   UNL     1      -1.300  16.453  26.892  0.00  0.00    +0.000 F 
ATOM     20  C   UNL     1      -2.389  15.005  25.381  0.00  0.00    +0.000 A 
ATOM     21  C   UNL     1      -2.469  14.430  24.110  0.00  0.00    +0.000 A 
ENDBRANCH  14  15
ENDBRANCH   7  14
ENDBRANCH   1  10
BRANCH   6  22
ATOM     22  O   UNL     1       2.200  10.701  17.309  0.00  0.00    +0.000 OA
ATOM     23  H   UNL     1       2.418  10.274  16.463  0.00  0.00    +0.000 HD
ENDBRANCH   6  22
BRANCH   4  24
ATOM     24  C   UNL     1       2.827   6.638  19.954  0.00  0.00    +0.000 C 
BRANCH  24  25
ATOM     25  C   UNL     1       2.238   5.274  19.605  0.00  0.00    +0.000 A 
ATOM     26  C   UNL     1       2.206   4.847  18.264  0.00  0.00    +0.000 A 
ATOM     27  C   UNL     1       1.514   3.690  17.905  0.00  0.00    +0.000 A 
ATOM     28  C   UNL     1       0.862   2.951  18.884  0.00  0.00    +0.000 A 
ATOM     29  F   UNL     1       0.173   1.857  18.535  0.00  0.00    +0.000 F 
ATOM     30  C   UNL     1       0.898   3.341  20.218  0.00  0.00    +0.000 A 
ATOM     31  C   UNL     1       1.588   4.501  20.581  0.00  0.00    +0.000 A 
ENDBRANCH  24  25
ENDBRANCH   4  24
TORSDOF 6
ENDMDL
MODEL 8
REMARK VINA RESULT:      -7.6      0.994      1.165
REMARK  Name = 
REMARK  6 active torsions:
REMARK  status: ('A' for Active; 'I' for Inactive)
REMARK    1  A    between atoms: C_2  and  C_3
REMARK    2  A    between atoms: C_2  and  C_10
REMARK    3  A    between atoms: N_13  and  C_14
REMARK    4  A    between atoms: N_17  and  C_18
REMARK    5  A    between atoms: C_18  and  C_19
REMARK    6  A    between atoms: C_27  and  O_28
REMARK                            x       y       z     vdW  Elec       q    Type
REMARK                         _______ _______ _______ _____ _____    ______ ____
ROOT
ATOM      1  C   UNL     1       2.645   7.313  18.970  0.00  0.00    +0.000 C 
ATOM      2  C   UNL     1       2.189   8.482  18.098  0.00  0.00    +0.000 C 
ATOM      3  C   UNL     1       2.041   9.747  18.908  0.00  0.00    +0.000 C 
ATOM      4  N   UNL     1       0.941   9.559  19.850  0.00  0.00    +0.000 NA
ATOM      5  C   UNL     1       1.290   8.514  20.822  0.00  0.00    +0.000 C 
ATOM      6  C   UNL     1       1.620   7.150  20.147  0.00  0.00    +0.000 C 
ENDROOT
BRANCH   1  10
ATOM      7  C   UNL     1       5.925   5.981  18.118  0.00  0.00    +0.000 C 
ATOM      8  C   UNL     1       5.175   5.250  19.250  0.00  0.00    +0.000 C 
ATOM      9  C   UNL     1       3.679   5.030  19.021  0.00  0.00    +0.000 C 
ATOM     10  N   UNL     1       2.989   6.063  18.244  0.00  0.00    +0.000 NA
ATOM     11  C   UNL     1       3.629   6.176  16.939  0.00  0.00    +0.000 C 
ATOM     12  C   UNL     1       5.082   6.624  16.996  0.00  0.00    +0.000 C 
BRANCH   7  14
ATOM     13  O   UNL     1       7.838   4.505  18.112  0.00  0.00    +0.000 OA
ATOM     14  C   UNL     1       6.938   5.046  17.476  0.00  0.00    +0.000 C 
BRANCH  14  15
ATOM     15  C   UNL     1       6.762   4.680  16.040  0.00  0.00    +0.000 A 
ATOM     16  C   UNL     1       7.561   5.357  15.113  0.00  0.00    +0.000 A 
ATOM     17  C   UNL     1       7.487   5.028  13.754  0.00  0.00    +0.000 A 
ATOM     18  C   UNL     1       6.608   4.034  13.341  0.00  0.00    +0.000 A 
ATOM     19  F   UNL     1       6.535   3.720  12.039  0.00  0.00    +0.000 F 
ATOM     20  C   UNL     1       5.800   3.367  14.253  0.00  0.00    +0.000 A 
ATOM     21  C   UNL     1       5.872   3.687  15.611  0.00  0.00    +0.000 A 
ENDBRANCH  14  15
ENDBRANCH   7  14
ENDBRANCH   1  10
BRANCH   6  22
ATOM     22  O   UNL     1       2.110   6.255  21.155  0.00  0.00    +0.000 OA
ATOM     23  H   UNL     1       2.343   6.787  21.934  0.00  0.00    +0.000 HD
ENDBRANCH   6  22
BRANCH   4  24
ATOM     24  C   UNL     1       0.562  10.839  20.466  0.00  0.00    +0.000 C 
BRANCH  24  25
ATOM     25  C   UNL     1      -0.770  11.330  19.906  0.00  0.00    +0.000 A 
ATOM     26  C   UNL     1      -1.539  12.257  20.635  0.00  0.00    +0.000 A 
ATOM     27  C   UNL     1      -2.834  12.580  20.228  0.00  0.00    +0.000 A 
ATOM     28  C   UNL     1      -3.360  11.987  19.087  0.00  0.00    +0.000 A 
ATOM     29  F   UNL     1      -4.614  12.275  18.714  0.00  0.00    +0.000 F 
ATOM     30  C   UNL     1      -2.612  11.086  18.338  0.00  0.00    +0.000 A 
ATOM     31  C   UNL     1      -1.316  10.758  18.744  0.00  0.00    +0.000 A 
ENDBRANCH  24  25
ENDBRANCH   4  24
TORSDOF 6
ENDMDL
MODEL 9
REMARK VINA RESULT:      -7.5      1.627      2.017
REMARK  Name = 
REMARK  6 active torsions:
REMARK  status: ('A' for Active; 'I' for Inactive)
REMARK    1  A    between atoms: C_2  and  C_3
REMARK    2  A    between atoms: C_2  and  C_10
REMARK    3  A    between atoms: N_13  and  C_14
REMARK    4  A    between atoms: N_17  and  C_18
REMARK    5  A    between atoms: C_18  and  C_19
REMARK    6  A    between atoms: C_27  and  O_28
REMARK                            x       y       z     vdW  Elec       q    Type
REMARK                         _______ _______ _______ _____ _____    ______ ____
ROOT
ATOM      1  C   UNL     1       2.632   6.922  19.190  0.00  0.00    +0.000 C 
ATOM      2  C   UNL     1       2.043   8.142  18.483  0.00  0.00    +0.000 C 
ATOM      3  C   UNL     1       1.864   9.298  19.436  0.00  0.00    +0.000 C 
ATOM      4  N   UNL     1       0.844   8.929  20.414  0.00  0.00    +0.000 NA
ATOM      5  C   UNL     1       1.324   7.814  21.241  0.00  0.00    +0.000 C 
ATOM      6  C   UNL     1       1.700   6.559  20.399  0.00  0.00    +0.000 C 
ENDROOT
BRANCH   1  10
ATOM      7  C   UNL     1       5.949   5.748  18.253  0.00  0.00    +0.000 C 
ATOM      8  C   UNL     1       5.180   4.863  19.254  0.00  0.00    +0.000 C 
ATOM      9  C   UNL     1       3.693   4.663  18.958  0.00  0.00    +0.000 C 
ATOM     10  N   UNL     1       3.010   5.786  18.311  0.00  0.00    +0.000 NA
ATOM     11  C   UNL     1       3.682   6.082  17.051  0.00  0.00    +0.000 C 
ATOM     12  C   UNL     1       5.127   6.531  17.207  0.00  0.00    +0.000 C 
BRANCH   7  14
ATOM     13  O   UNL     1       7.954   4.411  18.083  0.00  0.00    +0.000 OA
ATOM     14  C   UNL     1       6.990   4.920  17.517  0.00  0.00    +0.000 C 
BRANCH  14  15
ATOM     15  C   UNL     1       6.769   4.614  16.073  0.00  0.00    +0.000 A 
ATOM     16  C   UNL     1       7.579   5.290  15.154  0.00  0.00    +0.000 A 
ATOM     17  C   UNL     1       7.463   5.015  13.786  0.00  0.00    +0.000 A 
ATOM     18  C   UNL     1       6.533   4.076  13.356  0.00  0.00    +0.000 A 
ATOM     19  F   UNL     1       6.421   3.814  12.046  0.00  0.00    +0.000 F 
ATOM     20  C   UNL     1       5.714   3.411  14.261  0.00  0.00    +0.000 A 
ATOM     21  C   UNL     1       5.828   3.677  15.628  0.00  0.00    +0.000 A 
ENDBRANCH  14  15
ENDBRANCH   7  14
ENDBRANCH   1  10
BRANCH   6  22
ATOM     22  O   UNL     1       2.313   5.598  21.270  0.00  0.00    +0.000 OA
ATOM     23  H   UNL     1       3.275   5.729  21.221  0.00  0.00    +0.000 HD
ENDBRANCH   6  22
BRANCH   4  24
ATOM     24  C   UNL     1       0.421  10.105  21.190  0.00  0.00    +0.000 C 
BRANCH  24  25
ATOM     25  C   UNL     1       0.264  11.320  20.281  0.00  0.00    +0.000 A 
ATOM     26  C   UNL     1       1.158  12.402  20.395  0.00  0.00    +0.000 A 
ATOM     27  C   UNL     1       0.926  13.590  19.702  0.00  0.00    +0.000 A 
ATOM     28  C   UNL     1      -0.193  13.698  18.885  0.00  0.00    +0.000 A 
ATOM     29  F   UNL     1      -0.431  14.850  18.244  0.00  0.00    +0.000 F 
ATOM     30  C   UNL     1      -1.078  12.636  18.740  0.00  0.00    +0.000 A 
ATOM     31  C   UNL     1      -0.850  11.445  19.434  0.00  0.00    +0.000 A 
ENDBRANCH  24  25
ENDBRANCH   4  24
TORSDOF 6
ENDMDL
