MODEL 1
REMARK VINA RESULT:      -8.5      0.000      0.000
REMARK  Name = 
REMARK  10 active torsions:
REMARK  status: ('A' for Active; 'I' for Inactive)
REMARK    1  A    between atoms: C_2  and  C_3
REMARK    2  A    between atoms: C_3  and  N_4
REMARK    3  A    between atoms: C_6  and  O_7
REMARK    4  A    between atoms: O_7  and  C_8
REMARK    5  A    between atoms: C_8  and  C_9
REMARK    6  A    between atoms: C_15  and  C_16
REMARK    7  A    between atoms: C_16  and  N_17
REMARK    8  A    between atoms: N_17  and  C_18
REMARK    9  A    between atoms: C_29  and  C_30
REMARK   10  A    between atoms: C_29  and  C_31
REMARK                            x       y       z     vdW  Elec       q    Type
REMARK                         _______ _______ _______ _____ _____    ______ ____
ROOT
ATOM      1  N   UNL     1       6.441   4.524  15.550  0.00  0.00    +0.000 NA
ATOM      2  C   UNL     1       4.998   4.678  15.735  0.00  0.00    +0.000 C 
ATOM      3  C   UNL     1       4.618   4.807  17.226  0.00  0.00    +0.000 C 
ATOM      4  C   UNL     1       5.309   6.007  17.902  0.00  0.00    +0.000 C 
ATOM      5  C   UNL     1       6.866   6.147  17.466  0.00  0.00    +0.000 C 
ATOM      6  C   UNL     1       7.838   5.311  18.322  0.00  0.00    +0.000 C 
ATOM      7  C   UNL     1       7.354   7.620  17.548  0.00  0.00    +0.000 C 
ATOM      8  C   UNL     1       7.101   5.761  15.953  0.00  0.00    +0.000 C 
ENDROOT
BRANCH   1   9
ATOM      9  C   UNL     1       6.795   4.060  14.201  0.00  0.00    +0.000 C 
BRANCH   9  11
ATOM     10  C   UNL     1       5.791   3.110  12.096  0.00  0.00    +0.000 C 
ATOM     11  C   UNL     1       5.656   3.743  13.268  0.00  0.00    +0.000 C 
ENDBRANCH   9  11
ENDBRANCH   1   9
BRANCH   3  12
ATOM     12  O   UNL     1       4.862   3.595  17.976  0.00  0.00    +0.000 OA
BRANCH  12  13
ATOM     13  C   UNL     1       3.706   2.762  17.943  0.00  0.00    +0.000 C 
BRANCH  13  14
ATOM     14  C   UNL     1       2.858   2.736  19.187  0.00  0.00    +0.000 A 
ATOM     15  C   UNL     1       3.350   2.547  20.479  0.00  0.00    +0.000 A 
ATOM     16  C   UNL     1       2.488   2.647  21.577  0.00  0.00    +0.000 A 
ATOM     17  C   UNL     1       1.133   2.917  21.386  0.00  0.00    +0.000 A 
ATOM     18  C   UNL     1       0.631   3.096  20.103  0.00  0.00    +0.000 A 
ATOM     19  C   UNL     1       1.490   3.013  19.009  0.00  0.00    +0.000 A 
ENDBRANCH  13  14
ENDBRANCH  12  13
ENDBRANCH   3  12
BRANCH   4  20
ATOM     20  C   UNL     1       4.889   5.978  19.432  0.00  0.00    +0.000 C 
BRANCH  20  21
ATOM     21  N   UNL     1       3.389   5.888  19.599  0.00  0.00    +0.000 N 
ATOM     22  H   UNL     1       3.154   5.180  18.885  0.00  0.00    +0.000 HD
BRANCH  21  23
ATOM     23  C   UNL     1       2.312   6.795  19.388  0.00  0.00    +0.000 A 
ATOM     24  C   UNL     1       2.144   7.100  18.036  0.00  0.00    +0.000 A 
ATOM     25  C   UNL     1       2.051   8.436  17.698  0.00  0.00    +0.000 A 
ATOM     26  N   UNL     1       2.003   9.428  18.608  0.00  0.00    +0.000 NA
ATOM     27  C   UNL     1       1.682   9.073  19.847  0.00  0.00    +0.000 A 
ATOM     28  C   UNL     1       1.143  10.071  20.634  0.00  0.00    +0.000 A 
ATOM     29  C   UNL     1       0.228   9.744  21.618  0.00  0.00    +0.000 A 
ATOM     30 CL   UNL     1      -0.607  10.993  22.458  0.00  0.00    +0.000 Cl
ATOM     31  C   UNL     1      -0.102   8.410  21.817  0.00  0.00    +0.000 A 
ATOM     32  C   UNL     1       0.644   7.402  21.172  0.00  0.00    +0.000 A 
ATOM     33  C   UNL     1       1.674   7.716  20.249  0.00  0.00    +0.000 A 
ENDBRANCH  21  23
ENDBRANCH  20  21
ENDBRANCH   4  20
TORSDOF 8
ENDMDL
MODEL 2
REMARK VINA RESULT:      -8.2      3.023      7.617
REMARK  Name = 
REMARK  10 active torsions:
REMARK  status: ('A' for Active; 'I' for Inactive)
REMARK    1  A    between atoms: C_2  and  C_3
REMARK    2  A    between atoms: C_3  and  N_4
REMARK    3  A    between atoms: C_6  and  O_7
REMARK    4  A    between atoms: O_7  and  C_8
REMARK    5  A    between atoms: C_8  and  C_9
REMARK    6  A    between atoms: C_15  and  C_16
REMARK    7  A    between atoms: C_16  and  N_17
REMARK    8  A    between atoms: N_17  and  C_18
REMARK    9  A    between atoms: C_29  and  C_30
REMARK   10  A    between atoms: C_29  and  C_31
REMARK                            x       y       z     vdW  Elec       q    Type
REMARK                         _______ _______ _______ _____ _____    ______ ____
ROOT
ATOM      1  N   UNL     1       0.369   8.819  20.891  0.00  0.00    +0.000 NA
ATOM      2  C   UNL     1       1.545   8.062  21.324  0.00  0.00    +0.000 C 
ATOM      3  C   UNL     1       2.153   7.233  20.171  0.00  0.00    +0.000 C 
ATOM      4  C   UNL     1       2.574   8.114  18.979  0.00  0.00    +0.000 C 
ATOM      5  C   UNL     1       1.472   9.256  18.639  0.00  0.00    +0.000 C 
ATOM      6  C   UNL     1       0.352   8.788  17.689  0.00  0.00    +0.000 C 
ATOM      7  C   UNL     1       2.125  10.502  17.976  0.00  0.00    +0.000 C 
ATOM      8  C   UNL     1       0.792   9.840  19.938  0.00  0.00    +0.000 C 
ENDROOT
BRANCH   1   9
ATOM      9  C   UNL     1      -0.422   9.333  22.018  0.00  0.00    +0.000 C 
BRANCH   9  11
ATOM     10  C   UNL     1      -1.338  11.468  22.991  0.00  0.00    +0.000 C 
ATOM     11  C   UNL     1      -0.484  10.829  22.182  0.00  0.00    +0.000 C 
ENDBRANCH   9  11
ENDBRANCH   1   9
BRANCH   3  12
ATOM     12  O   UNL     1       1.286   6.163  19.729  0.00  0.00    +0.000 OA
BRANCH  12  13
ATOM     13  C   UNL     1       1.590   4.966  20.439  0.00  0.00    +0.000 C 
BRANCH  13  14
ATOM     14  C   UNL     1       2.144   3.824  19.629  0.00  0.00    +0.000 A 
ATOM     15  C   UNL     1       1.714   3.479  18.347  0.00  0.00    +0.000 A 
ATOM     16  C   UNL     1       2.370   2.466  17.639  0.00  0.00    +0.000 A 
ATOM     17  C   UNL     1       3.441   1.784  18.216  0.00  0.00    +0.000 A 
ATOM     18  C   UNL     1       3.870   2.112  19.496  0.00  0.00    +0.000 A 
ATOM     19  C   UNL     1       3.229   3.132  20.197  0.00  0.00    +0.000 A 
ENDBRANCH  13  14
ENDBRANCH  12  13
ENDBRANCH   3  12
BRANCH   4  20
ATOM     20  C   UNL     1       3.111   7.136  17.851  0.00  0.00    +0.000 C 
BRANCH  20  21
ATOM     21  N   UNL     1       4.157   6.184  18.387  0.00  0.00    +0.000 N 
ATOM     22  H   UNL     1       4.801   6.843  18.853  0.00  0.00    +0.000 HD
BRANCH  21  23
ATOM     23  C   UNL     1       5.112   5.319  17.782  0.00  0.00    +0.000 A 
ATOM     24  C   UNL     1       6.131   4.964  18.668  0.00  0.00    +0.000 A 
ATOM     25  C   UNL     1       7.431   5.108  18.224  0.00  0.00    +0.000 A 
ATOM     26  N   UNL     1       7.747   5.462  16.963  0.00  0.00    +0.000 NA
ATOM     27  C   UNL     1       6.789   5.316  16.054  0.00  0.00    +0.000 A 
ATOM     28  C   UNL     1       7.219   5.177  14.750  0.00  0.00    +0.000 A 
ATOM     29  C   UNL     1       6.474   4.421  13.864  0.00  0.00    +0.000 A 
ATOM     30 CL   UNL     1       7.105   4.066  12.302  0.00  0.00    +0.000 Cl
ATOM     31  C   UNL     1       5.287   3.846  14.298  0.00  0.00    +0.000 A 
ATOM     32  C   UNL     1       4.753   4.207  15.553  0.00  0.00    +0.000 A 
ATOM     33  C   UNL     1       5.444   5.082  16.429  0.00  0.00    +0.000 A 
ENDBRANCH  21  23
ENDBRANCH  20  21
ENDBRANCH   4  20
TORSDOF 8
ENDMDL
MODEL 3
REMARK VINA RESULT:      -8.0      0.741      1.132
REMARK  Name = 
REMARK  10 active torsions:
REMARK  status: ('A' for Active; 'I' for Inactive)
REMARK    1  A    between atoms: C_2  and  C_3
REMARK    2  A    between atoms: C_3  and  N_4
REMARK    3  A    between atoms: C_6  and  O_7
REMARK    4  A    between atoms: O_7  and  C_8
REMARK    5  A    between atoms: C_8  and  C_9
REMARK    6  A    between atoms: C_15  and  C_16
REMARK    7  A    between atoms: C_16  and  N_17
REMARK    8  A    between atoms: N_17  and  C_18
REMARK    9  A    between atoms: C_29  and  C_30
REMARK   10  A    between atoms: C_29  and  C_31
REMARK                            x       y       z     vdW  Elec       q    Type
REMARK                         _______ _______ _______ _____ _____    ______ ____
ROOT
ATOM      1  N   UNL     1       6.310   4.279  15.288  0.00  0.00    +0.000 NA
ATOM      2  C   UNL     1       4.872   4.530  15.387  0.00  0.00    +0.000 C 
ATOM      3  C   UNL     1       4.386   4.530  16.853  0.00  0.00    +0.000 C 
ATOM      4  C   UNL     1       5.109   5.591  17.705  0.00  0.00    +0.000 C 
ATOM      5  C   UNL     1       6.701   5.648  17.398  0.00  0.00    +0.000 C 
ATOM      6  C   UNL     1       7.538   4.649  18.222  0.00  0.00    +0.000 C 
ATOM      7  C   UNL     1       7.289   7.059  17.680  0.00  0.00    +0.000 C 
ATOM      8  C   UNL     1       7.027   5.408  15.872  0.00  0.00    +0.000 C 
ENDROOT
BRANCH   1   9
ATOM      9  C   UNL     1       6.735   3.933  13.923  0.00  0.00    +0.000 C 
BRANCH   9  11
ATOM     10  C   UNL     1       7.538   5.004  11.790  0.00  0.00    +0.000 C 
ATOM     11  C   UNL     1       7.404   5.018  13.122  0.00  0.00    +0.000 C 
ENDBRANCH   9  11
ENDBRANCH   1   9
BRANCH   3  12
ATOM     12  O   UNL     1       4.480   3.229  17.477  0.00  0.00    +0.000 OA
BRANCH  12  13
ATOM     13  C   UNL     1       3.176   2.690  17.675  0.00  0.00    +0.000 C 
BRANCH  13  14
ATOM     14  C   UNL     1       2.527   2.969  19.005  0.00  0.00    +0.000 A 
ATOM     15  C   UNL     1       1.353   3.703  19.176  0.00  0.00    +0.000 A 
ATOM     16  C   UNL     1       0.776   3.812  20.447  0.00  0.00    +0.000 A 
ATOM     17  C   UNL     1       1.379   3.205  21.548  0.00  0.00    +0.000 A 
ATOM     18  C   UNL     1       2.553   2.481  21.390  0.00  0.00    +0.000 A 
ATOM     19  C   UNL     1       3.122   2.357  20.124  0.00  0.00    +0.000 A 
ENDBRANCH  13  14
ENDBRANCH  12  13
ENDBRANCH   3  12
BRANCH   4  20
ATOM     20  C   UNL     1       4.569   5.434  19.189  0.00  0.00    +0.000 C 
BRANCH  20  21
ATOM     21  N   UNL     1       3.871   6.688  19.667  0.00  0.00    +0.000 N 
ATOM     22  H   UNL     1       3.779   6.490  20.675  0.00  0.00    +0.000 HD
BRANCH  21  23
ATOM     23  C   UNL     1       2.590   7.261  19.426  0.00  0.00    +0.000 A 
ATOM     24  C   UNL     1       2.297   7.333  18.063  0.00  0.00    +0.000 A 
ATOM     25  C   UNL     1       1.851   8.546  17.577  0.00  0.00    +0.000 A 
ATOM     26  N   UNL     1       1.585   9.606  18.364  0.00  0.00    +0.000 NA
ATOM     27  C   UNL     1       1.413   9.349  19.656  0.00  0.00    +0.000 A 
ATOM     28  C   UNL     1       0.666  10.276  20.356  0.00  0.00    +0.000 A 
ATOM     29  C   UNL     1      -0.096   9.863  21.433  0.00  0.00    +0.000 A 
ATOM     30 CL   UNL     1      -1.192  10.964  22.177  0.00  0.00    +0.000 Cl
ATOM     31  C   UNL     1      -0.064   8.528  21.812  0.00  0.00    +0.000 A 
ATOM     32  C   UNL     1       0.891   7.662  21.239  0.00  0.00    +0.000 A 
ATOM     33  C   UNL     1       1.770   8.098  20.216  0.00  0.00    +0.000 A 
ENDBRANCH  21  23
ENDBRANCH  20  21
ENDBRANCH   4  20
TORSDOF 8
ENDMDL
MODEL 4
REMARK VINA RESULT:      -7.4      4.205      9.414
REMARK  Name = 
REMARK  10 active torsions:
REMARK  status: ('A' for Active; 'I' for Inactive)
REMARK    1  A    between atoms: C_2  and  C_3
REMARK    2  A    between atoms: C_3  and  N_4
REMARK    3  A    between atoms: C_6  and  O_7
REMARK    4  A    between atoms: O_7  and  C_8
REMARK    5  A    between atoms: C_8  and  C_9
REMARK    6  A    between atoms: C_15  and  C_16
REMARK    7  A    between atoms: C_16  and  N_17
REMARK    8  A    between atoms: N_17  and  C_18
REMARK    9  A    between atoms: C_29  and  C_30
REMARK   10  A    between atoms: C_29  and  C_31
REMARK                            x       y       z     vdW  Elec       q    Type
REMARK                         _______ _______ _______ _____ _____    ______ ____
ROOT
ATOM      1  N   UNL     1       0.121  12.709  19.780  0.00  0.00    +0.000 NA
ATOM      2  C   UNL     1       0.761  12.418  21.064  0.00  0.00    +0.000 C 
ATOM      3  C   UNL     1       0.498  10.967  21.523  0.00  0.00    +0.000 C 
ATOM      4  C   UNL     1       1.005   9.932  20.500  0.00  0.00    +0.000 C 
ATOM      5  C   UNL     1       0.658  10.355  18.972  0.00  0.00    +0.000 C 
ATOM      6  C   UNL     1      -0.737   9.905  18.495  0.00  0.00    +0.000 C 
ATOM      7  C   UNL     1       1.685   9.763  17.967  0.00  0.00    +0.000 C 
ATOM      8  C   UNL     1       0.768  11.913  18.742  0.00  0.00    +0.000 C 
ENDROOT
BRANCH   1   9
ATOM      9  C   UNL     1       0.060  14.149  19.489  0.00  0.00    +0.000 C 
BRANCH   9  11
ATOM     10  C   UNL     1      -1.057  15.606  21.213  0.00  0.00    +0.000 C 
ATOM     11  C   UNL     1      -1.101  14.913  20.068  0.00  0.00    +0.000 C 
ENDBRANCH   9  11
ENDBRANCH   1   9
BRANCH   3  12
ATOM     12  O   UNL     1      -0.890  10.722  21.846  0.00  0.00    +0.000 OA
BRANCH  12  13
ATOM     13  C   UNL     1      -1.286  11.545  22.940  0.00  0.00    +0.000 C 
BRANCH  13  14
ATOM     14  C   UNL     1      -2.532  12.368  22.747  0.00  0.00    +0.000 A 
ATOM     15  C   UNL     1      -3.097  13.191  23.722  0.00  0.00    +0.000 A 
ATOM     16  C   UNL     1      -4.197  13.997  23.404  0.00  0.00    +0.000 A 
ATOM     17  C   UNL     1      -4.743  13.969  22.121  0.00  0.00    +0.000 A 
ATOM     18  C   UNL     1      -4.194  13.145  21.147  0.00  0.00    +0.000 A 
ATOM     19  C   UNL     1      -3.089  12.353  21.456  0.00  0.00    +0.000 A 
ENDBRANCH  13  14
ENDBRANCH  12  13
ENDBRANCH   3  12
BRANCH   4  20
ATOM     20  C   UNL     1       0.611   8.501  21.061  0.00  0.00    +0.000 C 
BRANCH  20  21
ATOM     21  N   UNL     1       1.763   7.525  20.964  0.00  0.00    +0.000 N 
ATOM     22  H   UNL     1       2.531   8.156  20.685  0.00  0.00    +0.000 HD
BRANCH  21  23
ATOM     23  C   UNL     1       2.054   6.418  20.119  0.00  0.00    +0.000 A 
ATOM     24  C   UNL     1       1.308   5.289  20.461  0.00  0.00    +0.000 A 
ATOM     25  C   UNL     1       1.995   4.101  20.617  0.00  0.00    +0.000 A 
ATOM     26  N   UNL     1       3.308   3.966  20.349  0.00  0.00    +0.000 NA
ATOM     27  C   UNL     1       3.852   4.907  19.585  0.00  0.00    +0.000 A 
ATOM     28  C   UNL     1       4.993   4.537  18.901  0.00  0.00    +0.000 A 
ATOM     29  C   UNL     1       5.269   5.112  17.675  0.00  0.00    +0.000 A 
ATOM     30 CL   UNL     1       6.569   4.508  16.720  0.00  0.00    +0.000 Cl
ATOM     31  C   UNL     1       4.409   6.080  17.173  0.00  0.00    +0.000 A 
ATOM     32  C   UNL     1       3.396   6.610  17.998  0.00  0.00    +0.000 A 
ATOM     33  C   UNL     1       3.174   6.119  19.310  0.00  0.00    +0.000 A 
ENDBRANCH  21  23
ENDBRANCH  20  21
ENDBRANCH   4  20
TORSDOF 8
ENDMDL
MODEL 5
REMARK VINA RESULT:      -7.3      2.925      7.370
REMARK  Name = 
REMARK  10 active torsions:
REMARK  status: ('A' for Active; 'I' for Inactive)
REMARK    1  A    between atoms: C_2  and  C_3
REMARK    2  A    between atoms: C_3  and  N_4
REMARK    3  A    between atoms: C_6  and  O_7
REMARK    4  A    between atoms: O_7  and  C_8
REMARK    5  A    between atoms: C_8  and  C_9
REMARK    6  A    between atoms: C_15  and  C_16
REMARK    7  A    between atoms: C_16  and  N_17
REMARK    8  A    between atoms: N_17  and  C_18
REMARK    9  A    between atoms: C_29  and  C_30
REMARK   10  A    between atoms: C_29  and  C_31
REMARK                            x       y       z     vdW  Elec       q    Type
REMARK                         _______ _______ _______ _____ _____    ______ ____
ROOT
ATOM      1  N   UNL     1       0.107   9.704  21.559  0.00  0.00    +0.000 NA
ATOM      2  C   UNL     1       1.436   9.097  21.641  0.00  0.00    +0.000 C 
ATOM      3  C   UNL     1       1.784   8.297  20.366  0.00  0.00    +0.000 C 
ATOM      4  C   UNL     1       1.744   9.174  19.099  0.00  0.00    +0.000 C 
ATOM      5  C   UNL     1       0.467  10.175  19.083  0.00  0.00    +0.000 C 
ATOM      6  C   UNL     1      -0.815   9.552  18.497  0.00  0.00    +0.000 C 
ATOM      7  C   UNL     1       0.756  11.459  18.255  0.00  0.00    +0.000 C 
ATOM      8  C   UNL     1       0.121  10.729  20.520  0.00  0.00    +0.000 C 
ENDROOT
BRANCH   1   9
ATOM      9  C   UNL     1      -0.386  10.171  22.863  0.00  0.00    +0.000 C 
BRANCH   9  11
ATOM     10  C   UNL     1      -2.302  11.744  23.304  0.00  0.00    +0.000 C 
ATOM     11  C   UNL     1      -1.045  11.524  22.899  0.00  0.00    +0.000 C 
ENDBRANCH   9  11
ENDBRANCH   1   9
BRANCH   3  12
ATOM     12  O   UNL     1       0.957   7.123  20.196  0.00  0.00    +0.000 OA
BRANCH  12  13
ATOM     13  C   UNL     1       1.463   6.053  20.989  0.00  0.00    +0.000 C 
BRANCH  13  14
ATOM     14  C   UNL     1       1.390   4.675  20.388  0.00  0.00    +0.000 A 
ATOM     15  C   UNL     1       1.466   3.487  21.116  0.00  0.00    +0.000 A 
ATOM     16  C   UNL     1       1.279   2.259  20.471  0.00  0.00    +0.000 A 
ATOM     17  C   UNL     1       1.034   2.214  19.099  0.00  0.00    +0.000 A 
ATOM     18  C   UNL     1       0.967   3.391  18.363  0.00  0.00    +0.000 A 
ATOM     19  C   UNL     1       1.136   4.616  19.005  0.00  0.00    +0.000 A 
ENDBRANCH  13  14
ENDBRANCH  12  13
ENDBRANCH   3  12
BRANCH   4  20
ATOM     20  C   UNL     1       2.049   8.218  17.869  0.00  0.00    +0.000 C 
BRANCH  20  21
ATOM     21  N   UNL     1       3.535   8.077  17.625  0.00  0.00    +0.000 N 
ATOM     22  H   UNL     1       3.609   8.435  16.660  0.00  0.00    +0.000 HD
BRANCH  21  23
ATOM     23  C   UNL     1       4.421   6.968  17.529  0.00  0.00    +0.000 A 
ATOM     24  C   UNL     1       5.247   7.054  16.407  0.00  0.00    +0.000 A 
ATOM     25  C   UNL     1       5.326   5.940  15.595  0.00  0.00    +0.000 A 
ATOM     26  N   UNL     1       4.742   4.763  15.894  0.00  0.00    +0.000 NA
ATOM     27  C   UNL     1       4.391   4.588  17.163  0.00  0.00    +0.000 A 
ATOM     28  C   UNL     1       4.281   3.275  17.577  0.00  0.00    +0.000 A 
ATOM     29  C   UNL     1       4.558   2.951  18.892  0.00  0.00    +0.000 A 
ATOM     30 CL   UNL     1       4.632   1.297  19.367  0.00  0.00    +0.000 Cl
ATOM     31  C   UNL     1       4.905   3.961  19.779  0.00  0.00    +0.000 A 
ATOM     32  C   UNL     1       4.768   5.309  19.390  0.00  0.00    +0.000 A 
ATOM     33  C   UNL     1       4.365   5.667  18.079  0.00  0.00    +0.000 A 
ENDBRANCH  21  23
ENDBRANCH  20  21
ENDBRANCH   4  20
TORSDOF 8
ENDMDL
MODEL 6
REMARK VINA RESULT:      -7.2      4.110      9.057
REMARK  Name = 
REMARK  10 active torsions:
REMARK  status: ('A' for Active; 'I' for Inactive)
REMARK    1  A    between atoms: C_2  and  C_3
REMARK    2  A    between atoms: C_3  and  N_4
REMARK    3  A    between atoms: C_6  and  O_7
REMARK    4  A    between atoms: O_7  and  C_8
REMARK    5  A    between atoms: C_8  and  C_9
REMARK    6  A    between atoms: C_15  and  C_16
REMARK    7  A    between atoms: C_16  and  N_17
REMARK    8  A    between atoms: N_17  and  C_18
REMARK    9  A    between atoms: C_29  and  C_30
REMARK   10  A    between atoms: C_29  and  C_31
REMARK                            x       y       z     vdW  Elec       q    Type
REMARK                         _______ _______ _______ _____ _____    ______ ____
ROOT
ATOM      1  N   UNL     1       0.654  12.628  19.440  0.00  0.00    +0.000 NA
ATOM      2  C   UNL     1       1.189  12.305  20.763  0.00  0.00    +0.000 C 
ATOM      3  C   UNL     1       0.756  10.899  21.233  0.00  0.00    +0.000 C 
ATOM      4  C   UNL     1       1.210   9.794  20.259  0.00  0.00    +0.000 C 
ATOM      5  C   UNL     1       0.991  10.213  18.707  0.00  0.00    +0.000 C 
ATOM      6  C   UNL     1      -0.414   9.894  18.160  0.00  0.00    +0.000 C 
ATOM      7  C   UNL     1       2.006   9.497  17.772  0.00  0.00    +0.000 C 
ATOM      8  C   UNL     1       1.271  11.746  18.454  0.00  0.00    +0.000 C 
ENDROOT
BRANCH   1   9
ATOM      9  C   UNL     1       0.755  14.059  19.119  0.00  0.00    +0.000 C 
BRANCH   9  11
ATOM     10  C   UNL     1       2.394  15.833  18.404  0.00  0.00    +0.000 C 
ATOM     11  C   UNL     1       2.072  14.544  18.573  0.00  0.00    +0.000 C 
ENDBRANCH   9  11
ENDBRANCH   1   9
BRANCH   3  12
ATOM     12  O   UNL     1      -0.665  10.803  21.482  0.00  0.00    +0.000 OA
BRANCH  12  13
ATOM     13  C   UNL     1      -0.942  11.115  22.844  0.00  0.00    +0.000 C 
BRANCH  13  14
ATOM     14  C   UNL     1      -1.808  12.321  23.096  0.00  0.00    +0.000 A 
ATOM     15  C   UNL     1      -1.477  13.626  22.728  0.00  0.00    +0.000 A 
ATOM     16  C   UNL     1      -2.401  14.660  22.914  0.00  0.00    +0.000 A 
ATOM     17  C   UNL     1      -3.647  14.397  23.483  0.00  0.00    +0.000 A 
ATOM     18  C   UNL     1      -3.982  13.103  23.862  0.00  0.00    +0.000 A 
ATOM     19  C   UNL     1      -3.070  12.069  23.663  0.00  0.00    +0.000 A 
ENDBRANCH  13  14
ENDBRANCH  12  13
ENDBRANCH   3  12
BRANCH   4  20
ATOM     20  C   UNL     1       0.642   8.424  20.823  0.00  0.00    +0.000 C 
BRANCH  20  21
ATOM     21  N   UNL     1       1.712   7.356  20.881  0.00  0.00    +0.000 N 
ATOM     22  H   UNL     1       2.564   7.926  20.761  0.00  0.00    +0.000 HD
BRANCH  21  23
ATOM     23  C   UNL     1       2.055   6.252  20.051  0.00  0.00    +0.000 A 
ATOM     24  C   UNL     1       1.350   5.098  20.399  0.00  0.00    +0.000 A 
ATOM     25  C   UNL     1       2.081   3.940  20.574  0.00  0.00    +0.000 A 
ATOM     26  N   UNL     1       3.401   3.854  20.320  0.00  0.00    +0.000 NA
ATOM     27  C   UNL     1       3.915   4.807  19.550  0.00  0.00    +0.000 A 
ATOM     28  C   UNL     1       5.076   4.474  18.882  0.00  0.00    +0.000 A 
ATOM     29  C   UNL     1       5.342   5.046  17.651  0.00  0.00    +0.000 A 
ATOM     30 CL   UNL     1       6.673   4.482  16.716  0.00  0.00    +0.000 Cl
ATOM     31  C   UNL     1       4.449   5.973  17.131  0.00  0.00    +0.000 A 
ATOM     32  C   UNL     1       3.409   6.473  17.941  0.00  0.00    +0.000 A 
ATOM     33  C   UNL     1       3.193   5.988  19.256  0.00  0.00    +0.000 A 
ENDBRANCH  21  23
ENDBRANCH  20  21
ENDBRANCH   4  20
TORSDOF 8
ENDMDL
MODEL 7
REMARK VINA RESULT:      -7.1      1.468      2.029
REMARK  Name = 
REMARK  10 active torsions:
REMARK  status: ('A' for Active; 'I' for Inactive)
REMARK    1  A    between atoms: C_2  and  C_3
REMARK    2  A    between atoms: C_3  and  N_4
REMARK    3  A    between atoms: C_6  and  O_7
REMARK    4  A    between atoms: O_7  and  C_8
REMARK    5  A    between atoms: C_8  and  C_9
REMARK    6  A    between atoms: C_15  and  C_16
REMARK    7  A    between atoms: C_16  and  N_17
REMARK    8  A    between atoms: N_17  and  C_18
REMARK    9  A    between atoms: C_29  and  C_30
REMARK   10  A    between atoms: C_29  and  C_31
REMARK                            x       y       z     vdW  Elec       q    Type
REMARK                         _______ _______ _______ _____ _____    ______ ____
ROOT
ATOM      1  N   UNL     1       6.383   4.559  15.512  0.00  0.00    +0.000 NA
ATOM      2  C   UNL     1       4.928   4.536  15.361  0.00  0.00    +0.000 C 
ATOM      3  C   UNL     1       4.206   4.682  16.719  0.00  0.00    +0.000 C 
ATOM      4  C   UNL     1       4.584   5.989  17.442  0.00  0.00    +0.000 C 
ATOM      5  C   UNL     1       6.173   6.305  17.353  0.00  0.00    +0.000 C 
ATOM      6  C   UNL     1       7.012   5.638  18.461  0.00  0.00    +0.000 C 
ATOM      7  C   UNL     1       6.458   7.831  17.436  0.00  0.00    +0.000 C 
ATOM      8  C   UNL     1       6.790   5.886  15.961  0.00  0.00    +0.000 C 
ENDROOT
BRANCH   1   9
ATOM      9  C   UNL     1       7.087   4.084  14.311  0.00  0.00    +0.000 C 
BRANCH   9  11
ATOM     10  C   UNL     1       6.103   3.064  12.230  0.00  0.00    +0.000 C 
ATOM     11  C   UNL     1       6.325   4.127  13.013  0.00  0.00    +0.000 C 
ENDBRANCH   9  11
ENDBRANCH   1   9
BRANCH   3  12
ATOM     12  O   UNL     1       4.408   3.544  17.588  0.00  0.00    +0.000 OA
BRANCH  12  13
ATOM     13  C   UNL     1       3.193   2.811  17.720  0.00  0.00    +0.000 C 
BRANCH  13  14
ATOM     14  C   UNL     1       2.579   2.765  19.094  0.00  0.00    +0.000 A 
ATOM     15  C   UNL     1       3.290   2.539  20.273  0.00  0.00    +0.000 A 
ATOM     16  C   UNL     1       2.638   2.623  21.509  0.00  0.00    +0.000 A 
ATOM     17  C   UNL     1       1.275   2.913  21.568  0.00  0.00    +0.000 A 
ATOM     18  C   UNL     1       0.557   3.129  20.399  0.00  0.00    +0.000 A 
ATOM     19  C   UNL     1       1.206   3.063  19.168  0.00  0.00    +0.000 A 
ENDBRANCH  13  14
ENDBRANCH  12  13
ENDBRANCH   3  12
BRANCH   4  20
ATOM     20  C   UNL     1       3.831   5.974  18.840  0.00  0.00    +0.000 C 
BRANCH  20  21
ATOM     21  N   UNL     1       2.571   6.810  18.806  0.00  0.00    +0.000 N 
ATOM     22  H   UNL     1       2.617   7.195  17.850  0.00  0.00    +0.000 HD
BRANCH  21  23
ATOM     23  C   UNL     1       2.133   7.971  19.503  0.00  0.00    +0.000 A 
ATOM     24  C   UNL     1       1.927   7.719  20.860  0.00  0.00    +0.000 A 
ATOM     25  C   UNL     1       0.727   8.132  21.404  0.00  0.00    +0.000 A 
ATOM     26  N   UNL     1      -0.186   8.850  20.722  0.00  0.00    +0.000 NA
ATOM     27  C   UNL     1       0.250   9.466  19.628  0.00  0.00    +0.000 A 
ATOM     28  C   UNL     1      -0.483  10.566  19.229  0.00  0.00    +0.000 A 
ATOM     29  C   UNL     1       0.151  11.609  18.580  0.00  0.00    +0.000 A 
ATOM     30 CL   UNL     1      -0.705  13.070  18.269  0.00  0.00    +0.000 Cl
ATOM     31  C   UNL     1       1.509  11.510  18.309  0.00  0.00    +0.000 A 
ATOM     32  C   UNL     1       2.173  10.281  18.505  0.00  0.00    +0.000 A 
ATOM     33  C   UNL     1       1.508   9.157  19.057  0.00  0.00    +0.000 A 
ENDBRANCH  21  23
ENDBRANCH  20  21
ENDBRANCH   4  20
TORSDOF 8
ENDMDL
MODEL 8
REMARK VINA RESULT:      -7.0      3.071      7.565
REMARK  Name = 
REMARK  10 active torsions:
REMARK  status: ('A' for Active; 'I' for Inactive)
REMARK    1  A    between atoms: C_2  and  C_3
REMARK    2  A    between atoms: C_3  and  N_4
REMARK    3  A    between atoms: C_6  and  O_7
REMARK    4  A    between atoms: O_7  and  C_8
REMARK    5  A    between atoms: C_8  and  C_9
REMARK    6  A    between atoms: C_15  and  C_16
REMARK    7  A    between atoms: C_16  and  N_17
REMARK    8  A    between atoms: N_17  and  C_18
REMARK    9  A    between atoms: C_29  and  C_30
REMARK   10  A    between atoms: C_29  and  C_31
REMARK                            x       y       z     vdW  Elec       q    Type
REMARK                         _______ _______ _______ _____ _____    ______ ____
ROOT
ATOM      1  N   UNL     1       0.356   9.322  20.935  0.00  0.00    +0.000 NA
ATOM      2  C   UNL     1       1.528   8.546  21.343  0.00  0.00    +0.000 C 
ATOM      3  C   UNL     1       2.108   7.720  20.174  0.00  0.00    +0.000 C 
ATOM      4  C   UNL     1       2.522   8.607  18.984  0.00  0.00    +0.000 C 
ATOM      5  C   UNL     1       1.430   9.765  18.669  0.00  0.00    +0.000 C 
ATOM      6  C   UNL     1       0.290   9.319  17.733  0.00  0.00    +0.000 C 
ATOM      7  C   UNL     1       2.088  11.009  18.008  0.00  0.00    +0.000 C 
ATOM      8  C   UNL     1       0.777  10.346  19.984  0.00  0.00    +0.000 C 
ENDROOT
BRANCH   1   9
ATOM      9  C   UNL     1      -0.412   9.835  22.078  0.00  0.00    +0.000 C 
BRANCH   9  11
ATOM     10  C   UNL     1      -0.764  12.224  22.795  0.00  0.00    +0.000 C 
ATOM     11  C   UNL     1      -0.995  11.217  21.943  0.00  0.00    +0.000 C 
ENDBRANCH   9  11
ENDBRANCH   1   9
BRANCH   3  12
ATOM     12  O   UNL     1       1.222   6.665  19.736  0.00  0.00    +0.000 OA
BRANCH  12  13
ATOM     13  C   UNL     1       1.381   5.520  20.568  0.00  0.00    +0.000 C 
BRANCH  13  14
ATOM     14  C   UNL     1       1.678   4.218  19.873  0.00  0.00    +0.000 A 
ATOM     15  C   UNL     1       1.917   3.007  20.525  0.00  0.00    +0.000 A 
ATOM     16  C   UNL     1       2.077   1.833  19.781  0.00  0.00    +0.000 A 
ATOM     17  C   UNL     1       2.018   1.868  18.388  0.00  0.00    +0.000 A 
ATOM     18  C   UNL     1       1.792   3.070  17.729  0.00  0.00    +0.000 A 
ATOM     19  C   UNL     1       1.615   4.238  18.468  0.00  0.00    +0.000 A 
ENDBRANCH  13  14
ENDBRANCH  12  13
ENDBRANCH   3  12
BRANCH   4  20
ATOM     20  C   UNL     1       3.031   7.632  17.839  0.00  0.00    +0.000 C 
BRANCH  20  21
ATOM     21  N   UNL     1       3.940   6.554  18.385  0.00  0.00    +0.000 N 
ATOM     22  H   UNL     1       4.432   7.071  19.130  0.00  0.00    +0.000 HD
BRANCH  21  23
ATOM     23  C   UNL     1       5.035   5.818  17.852  0.00  0.00    +0.000 A 
ATOM     24  C   UNL     1       6.197   5.990  18.607  0.00  0.00    +0.000 A 
ATOM     25  C   UNL     1       7.350   6.322  17.924  0.00  0.00    +0.000 A 
ATOM     26  N   UNL     1       7.424   6.377  16.580  0.00  0.00    +0.000 NA
ATOM     27  C   UNL     1       6.462   5.749  15.913  0.00  0.00    +0.000 A 
ATOM     28  C   UNL     1       6.780   5.363  14.626  0.00  0.00    +0.000 A 
ATOM     29  C   UNL     1       6.197   4.229  14.092  0.00  0.00    +0.000 A 
ATOM     30 CL   UNL     1       6.743   3.620  12.576  0.00  0.00    +0.000 Cl
ATOM     31  C   UNL     1       5.273   3.522  14.850  0.00  0.00    +0.000 A 
ATOM     32  C   UNL     1       4.787   4.075  16.053  0.00  0.00    +0.000 A 
ATOM     33  C   UNL     1       5.284   5.303  16.559  0.00  0.00    +0.000 A 
ENDBRANCH  21  23
ENDBRANCH  20  21
ENDBRANCH   4  20
TORSDOF 8
ENDMDL
MODEL 9
REMARK VINA RESULT:      -7.0      2.390      5.663
REMARK  Name = 
REMARK  10 active torsions:
REMARK  status: ('A' for Active; 'I' for Inactive)
REMARK    1  A    between atoms: C_2  and  C_3
REMARK    2  A    between atoms: C_3  and  N_4
REMARK    3  A    between atoms: C_6  and  O_7
REMARK    4  A    between atoms: O_7  and  C_8
REMARK    5  A    between atoms: C_8  and  C_9
REMARK    6  A    between atoms: C_15  and  C_16
REMARK    7  A    between atoms: C_16  and  N_17
REMARK    8  A    between atoms: N_17  and  C_18
REMARK    9  A    between atoms: C_29  and  C_30
REMARK   10  A    between atoms: C_29  and  C_31
REMARK                            x       y       z     vdW  Elec       q    Type
REMARK                         _______ _______ _______ _____ _____    ______ ____
ROOT
ATOM      1  N   UNL     1       4.142   3.324  18.934  0.00  0.00    +0.000 NA
ATOM      2  C   UNL     1       5.162   4.372  18.984  0.00  0.00    +0.000 C 
ATOM      3  C   UNL     1       4.724   5.639  18.217  0.00  0.00    +0.000 C 
ATOM      4  C   UNL     1       3.413   6.231  18.771  0.00  0.00    +0.000 C 
ATOM      5  C   UNL     1       2.312   5.087  19.104  0.00  0.00    +0.000 C 
ATOM      6  C   UNL     1       1.435   4.687  17.901  0.00  0.00    +0.000 C 
ATOM      7  C   UNL     1       1.342   5.535  20.233  0.00  0.00    +0.000 C 
ATOM      8  C   UNL     1       2.970   3.772  19.680  0.00  0.00    +0.000 C 
ENDROOT
BRANCH   1   9
ATOM      9  C   UNL     1       4.657   2.010  19.347  0.00  0.00    +0.000 C 
BRANCH   9  11
ATOM     10  C   UNL     1       5.532   0.916  21.440  0.00  0.00    +0.000 C 
ATOM     11  C   UNL     1       4.644   1.705  20.821  0.00  0.00    +0.000 C 
ENDBRANCH   9  11
ENDBRANCH   1   9
BRANCH   3  12
ATOM     12  O   UNL     1       4.619   5.426  16.790  0.00  0.00    +0.000 OA
BRANCH  12  13
ATOM     13  C   UNL     1       5.872   5.695  16.167  0.00  0.00    +0.000 C 
BRANCH  13  14
ATOM     14  C   UNL     1       6.142   4.990  14.864  0.00  0.00    +0.000 A 
ATOM     15  C   UNL     1       5.277   4.074  14.264  0.00  0.00    +0.000 A 
ATOM     16  C   UNL     1       5.576   3.557  12.998  0.00  0.00    +0.000 A 
ATOM     17  C   UNL     1       6.744   3.939  12.339  0.00  0.00    +0.000 A 
ATOM     18  C   UNL     1       7.616   4.842  12.933  0.00  0.00    +0.000 A 
ATOM     19  C   UNL     1       7.314   5.372  14.185  0.00  0.00    +0.000 A 
ENDBRANCH  13  14
ENDBRANCH  12  13
ENDBRANCH   3  12
BRANCH   4  20
ATOM     20  C   UNL     1       3.047   7.475  17.855  0.00  0.00    +0.000 C 
BRANCH  20  21
ATOM     21  N   UNL     1       2.083   8.414  18.546  0.00  0.00    +0.000 N 
ATOM     22  H   UNL     1       1.277   7.788  18.701  0.00  0.00    +0.000 HD
BRANCH  21  23
ATOM     23  C   UNL     1       1.388   9.590  18.145  0.00  0.00    +0.000 A 
ATOM     24  C   UNL     1       2.254  10.666  17.946  0.00  0.00    +0.000 A 
ATOM     25  C   UNL     1       1.929  11.859  18.560  0.00  0.00    +0.000 A 
ATOM     26  N   UNL     1       0.779  12.055  19.235  0.00  0.00    +0.000 NA
ATOM     27  C   UNL     1      -0.200  11.191  18.990  0.00  0.00    +0.000 A 
ATOM     28  C   UNL     1      -1.478  11.646  19.248  0.00  0.00    +0.000 A 
ATOM     29  C   UNL     1      -2.535  11.173  18.493  0.00  0.00    +0.000 A 
ATOM     30 CL   UNL     1      -4.093  11.887  18.662  0.00  0.00    +0.000 Cl
ATOM     31  C   UNL     1      -2.292  10.219  17.514  0.00  0.00    +0.000 A 
ATOM     32  C   UNL     1      -1.029   9.597  17.441  0.00  0.00    +0.000 A 
ATOM     33  C   UNL     1       0.038   9.982  18.292  0.00  0.00    +0.000 A 
ENDBRANCH  21  23
ENDBRANCH  20  21
ENDBRANCH   4  20
TORSDOF 8
ENDMDL
