MODEL 1
REMARK VINA RESULT:      -7.5      0.000      0.000
REMARK  Name = 
REMARK  5 active torsions:
REMARK  status: ('A' for Active; 'I' for Inactive)
REMARK    1  A    between atoms: C_1  and  S_2
REMARK    2  A    between atoms: S_2  and  C_5
REMARK    3  A    between atoms: C_5  and  C_6
REMARK    4  A    between atoms: C_6  and  C_7
REMARK    5  A    between atoms: C_6  and  C_15
REMARK                            x       y       z     vdW  Elec       q    Type
REMARK                         _______ _______ _______ _____ _____    ______ ____
ROOT
ATOM      1  C   UNL     1       3.918   5.493  18.146  0.00  0.00    +0.000 C 
ENDROOT
BRANCH   1   2
ATOM      2  C   UNL     1       3.092   6.741  18.437  0.00  0.00    +0.000 A 
ATOM      3  C   UNL     1       2.923   7.758  17.486  0.00  0.00    +0.000 A 
ATOM      4  C   UNL     1       2.133   8.877  17.768  0.00  0.00    +0.000 A 
ATOM      5  C   UNL     1       1.527   9.016  19.016  0.00  0.00    +0.000 A 
ATOM      6 CL   UNL     1       0.527  10.431  19.323  0.00  0.00    +0.000 Cl
ATOM      7  C   UNL     1       1.727   8.035  20.001  0.00  0.00    +0.000 A 
ATOM      8 CL   UNL     1       1.008   8.193  21.599  0.00  0.00    +0.000 Cl
ATOM      9  C   UNL     1       2.505   6.904  19.712  0.00  0.00    +0.000 A 
ENDBRANCH   1   2
BRANCH   1  10
ATOM     10  C   UNL     1       3.171   4.237  17.548  0.00  0.00    +0.000 C 
ATOM     11  C   UNL     1       1.651   4.061  17.766  0.00  0.00    +0.000 C 
ATOM     12  C   UNL     1       1.274   3.416  19.115  0.00  0.00    +0.000 C 
ATOM     13  N   UNL     1       2.024   2.176  19.361  0.00  0.00    +0.000 NA
ATOM     14  C   UNL     1       3.478   2.382  19.267  0.00  0.00    +0.000 C 
ATOM     15  C   UNL     1       3.865   2.898  17.871  0.00  0.00    +0.000 C 
ATOM     16  H   UNL     1       1.729   1.446  18.674  0.00  0.00    +0.000 HD
ENDBRANCH   1  10
BRANCH   1  17
ATOM     17  C   UNL     1       5.176   5.841  17.328  0.00  0.00    +0.000 C 
BRANCH  17  19
ATOM     18  C   UNL     1       7.938   6.898  18.482  0.00  0.00    +0.000 C 
ATOM     19  S   UNL     1       6.682   5.601  18.317  0.00  0.00    +0.000 S 
ATOM     20  O   UNL     1       7.372   4.292  17.902  0.00  0.00    +0.000 OA
ATOM     21  O   UNL     1       6.230   5.204  19.728  0.00  0.00    +0.000 OA
ENDBRANCH  17  19
ENDBRANCH   1  17
TORSDOF 4
ENDMDL
MODEL 2
REMARK VINA RESULT:      -7.3      0.940      1.076
REMARK  Name = 
REMARK  5 active torsions:
REMARK  status: ('A' for Active; 'I' for Inactive)
REMARK    1  A    between atoms: C_1  and  S_2
REMARK    2  A    between atoms: S_2  and  C_5
REMARK    3  A    between atoms: C_5  and  C_6
REMARK    4  A    between atoms: C_6  and  C_7
REMARK    5  A    between atoms: C_6  and  C_15
REMARK                            x       y       z     vdW  Elec       q    Type
REMARK                         _______ _______ _______ _____ _____    ______ ____
ROOT
ATOM      1  C   UNL     1       3.756   5.947  18.148  0.00  0.00    +0.000 C 
ENDROOT
BRANCH   1   2
ATOM      2  C   UNL     1       2.867   7.137  18.493  0.00  0.00    +0.000 A 
ATOM      3  C   UNL     1       2.577   8.143  17.558  0.00  0.00    +0.000 A 
ATOM      4  C   UNL     1       1.732   9.206  17.890  0.00  0.00    +0.000 A 
ATOM      5  C   UNL     1       1.189   9.302  19.171  0.00  0.00    +0.000 A 
ATOM      6 CL   UNL     1       0.117  10.646  19.542  0.00  0.00    +0.000 Cl
ATOM      7  C   UNL     1       1.510   8.334  20.138  0.00  0.00    +0.000 A 
ATOM      8 CL   UNL     1       0.873   8.441  21.774  0.00  0.00    +0.000 Cl
ATOM      9  C   UNL     1       2.343   7.258  19.799  0.00  0.00    +0.000 A 
ENDBRANCH   1   2
BRANCH   1  10
ATOM     10  C   UNL     1       3.071   4.674  17.512  0.00  0.00    +0.000 C 
ATOM     11  C   UNL     1       1.587   4.362  17.808  0.00  0.00    +0.000 C 
ATOM     12  C   UNL     1       1.350   3.605  19.130  0.00  0.00    +0.000 C 
ATOM     13  N   UNL     1       2.208   2.417  19.247  0.00  0.00    +0.000 NA
ATOM     14  C   UNL     1       3.632   2.747  19.080  0.00  0.00    +0.000 C 
ATOM     15  C   UNL     1       3.887   3.379  17.702  0.00  0.00    +0.000 C 
ATOM     16  H   UNL     1       1.926   1.710  18.530  0.00  0.00    +0.000 HD
ENDBRANCH   1  10
BRANCH   1  17
ATOM     17  C   UNL     1       4.984   6.393  17.331  0.00  0.00    +0.000 C 
BRANCH  17  19
ATOM     18  C   UNL     1       7.511   4.474  17.403  0.00  0.00    +0.000 C 
ATOM     19  S   UNL     1       6.524   5.821  18.108  0.00  0.00    +0.000 S 
ATOM     20  O   UNL     1       6.277   5.529  19.596  0.00  0.00    +0.000 OA
ATOM     21  O   UNL     1       7.436   7.047  18.246  0.00  0.00    +0.000 OA
ENDBRANCH  17  19
ENDBRANCH   1  17
TORSDOF 4
ENDMDL
MODEL 3
REMARK VINA RESULT:      -7.3      0.866      1.031
REMARK  Name = 
REMARK  5 active torsions:
REMARK  status: ('A' for Active; 'I' for Inactive)
REMARK    1  A    between atoms: C_1  and  S_2
REMARK    2  A    between atoms: S_2  and  C_5
REMARK    3  A    between atoms: C_5  and  C_6
REMARK    4  A    between atoms: C_6  and  C_7
REMARK    5  A    between atoms: C_6  and  C_15
REMARK                            x       y       z     vdW  Elec       q    Type
REMARK                         _______ _______ _______ _____ _____    ______ ____
ROOT
ATOM      1  C   UNL     1       4.418   4.644  18.507  0.00  0.00    +0.000 C 
ENDROOT
BRANCH   1   2
ATOM      2  C   UNL     1       3.618   5.942  18.542  0.00  0.00    +0.000 A 
ATOM      3  C   UNL     1       3.612   6.840  17.464  0.00  0.00    +0.000 A 
ATOM      4  C   UNL     1       2.844   8.007  17.510  0.00  0.00    +0.000 A 
ATOM      5  C   UNL     1       2.095   8.314  18.645  0.00  0.00    +0.000 A 
ATOM      6 CL   UNL     1       1.128   9.784  18.654  0.00  0.00    +0.000 Cl
ATOM      7  C   UNL     1       2.129   7.455  19.756  0.00  0.00    +0.000 A 
ATOM      8 CL   UNL     1       1.226   7.828  21.219  0.00  0.00    +0.000 Cl
ATOM      9  C   UNL     1       2.886   6.276  19.703  0.00  0.00    +0.000 A 
ENDBRANCH   1   2
BRANCH   1  10
ATOM     10  C   UNL     1       3.621   3.290  18.352  0.00  0.00    +0.000 C 
ATOM     11  C   UNL     1       2.137   3.308  17.917  0.00  0.00    +0.000 C 
ATOM     12  C   UNL     1       1.142   3.551  19.069  0.00  0.00    +0.000 C 
ATOM     13  N   UNL     1       1.384   2.650  20.206  0.00  0.00    +0.000 NA
ATOM     14  C   UNL     1       2.773   2.730  20.687  0.00  0.00    +0.000 C 
ATOM     15  C   UNL     1       3.758   2.352  19.569  0.00  0.00    +0.000 C 
ATOM     16  H   UNL     1       1.166   1.668  19.925  0.00  0.00    +0.000 HD
ENDBRANCH   1  10
BRANCH   1  17
ATOM     17  C   UNL     1       5.575   4.735  17.493  0.00  0.00    +0.000 C 
BRANCH  17  19
ATOM     18  C   UNL     1       7.684   7.058  17.968  0.00  0.00    +0.000 C 
ATOM     19  S   UNL     1       7.081   5.378  18.281  0.00  0.00    +0.000 S 
ATOM     20  O   UNL     1       8.237   4.389  18.075  0.00  0.00    +0.000 OA
ATOM     21  O   UNL     1       6.892   5.223  19.796  0.00  0.00    +0.000 OA
ENDBRANCH  17  19
ENDBRANCH   1  17
TORSDOF 4
ENDMDL
MODEL 4
REMARK VINA RESULT:      -7.3      1.083      1.249
REMARK  Name = 
REMARK  5 active torsions:
REMARK  status: ('A' for Active; 'I' for Inactive)
REMARK    1  A    between atoms: C_1  and  S_2
REMARK    2  A    between atoms: S_2  and  C_5
REMARK    3  A    between atoms: C_5  and  C_6
REMARK    4  A    between atoms: C_6  and  C_7
REMARK    5  A    between atoms: C_6  and  C_15
REMARK                            x       y       z     vdW  Elec       q    Type
REMARK                         _______ _______ _______ _____ _____    ______ ____
ROOT
ATOM      1  C   UNL     1       3.815   5.836  17.799  0.00  0.00    +0.000 C 
ENDROOT
BRANCH   1   2
ATOM      2  C   UNL     1       2.952   7.009  18.252  0.00  0.00    +0.000 A 
ATOM      3  C   UNL     1       2.594   8.048  17.380  0.00  0.00    +0.000 A 
ATOM      4  C   UNL     1       1.775   9.094  17.814  0.00  0.00    +0.000 A 
ATOM      5  C   UNL     1       1.328   9.140  19.135  0.00  0.00    +0.000 A 
ATOM      6 CL   UNL     1       0.285  10.466  19.634  0.00  0.00    +0.000 Cl
ATOM      7  C   UNL     1       1.720   8.138  20.037  0.00  0.00    +0.000 A 
ATOM      8 CL   UNL     1       1.206   8.181  21.719  0.00  0.00    +0.000 Cl
ATOM      9  C   UNL     1       2.526   7.079  19.597  0.00  0.00    +0.000 A 
ENDBRANCH   1   2
BRANCH   1  10
ATOM     10  C   UNL     1       3.084   4.496  17.393  0.00  0.00    +0.000 C 
ATOM     11  C   UNL     1       1.626   4.241  17.840  0.00  0.00    +0.000 C 
ATOM     12  C   UNL     1       1.492   3.671  19.266  0.00  0.00    +0.000 C 
ATOM     13  N   UNL     1       2.357   2.500  19.476  0.00  0.00    +0.000 NA
ATOM     14  C   UNL     1       3.764   2.791  19.158  0.00  0.00    +0.000 C 
ATOM     15  C   UNL     1       3.912   3.230  17.692  0.00  0.00    +0.000 C 
ATOM     16  H   UNL     1       2.021   1.707  18.884  0.00  0.00    +0.000 HD
ENDBRANCH   1  10
BRANCH   1  17
ATOM     17  C   UNL     1       4.822   6.276  16.719  0.00  0.00    +0.000 C 
BRANCH  17  19
ATOM     18  C   UNL     1       6.907   5.589  19.012  0.00  0.00    +0.000 C 
ATOM     19  S   UNL     1       6.524   6.214  17.354  0.00  0.00    +0.000 S 
ATOM     20  O   UNL     1       7.196   7.583  17.172  0.00  0.00    +0.000 OA
ATOM     21  O   UNL     1       7.347   5.400  16.346  0.00  0.00    +0.000 OA
ENDBRANCH  17  19
ENDBRANCH   1  17
TORSDOF 4
ENDMDL
MODEL 5
REMARK VINA RESULT:      -7.2      0.965      1.611
REMARK  Name = 
REMARK  5 active torsions:
REMARK  status: ('A' for Active; 'I' for Inactive)
REMARK    1  A    between atoms: C_1  and  S_2
REMARK    2  A    between atoms: S_2  and  C_5
REMARK    3  A    between atoms: C_5  and  C_6
REMARK    4  A    between atoms: C_6  and  C_7
REMARK    5  A    between atoms: C_6  and  C_15
REMARK                            x       y       z     vdW  Elec       q    Type
REMARK                         _______ _______ _______ _____ _____    ______ ____
ROOT
ATOM      1  C   UNL     1       4.224   4.971  19.315  0.00  0.00    +0.000 C 
ENDROOT
BRANCH   1   2
ATOM      2  C   UNL     1       3.414   6.238  19.059  0.00  0.00    +0.000 A 
ATOM      3  C   UNL     1       3.490   6.935  17.844  0.00  0.00    +0.000 A 
ATOM      4  C   UNL     1       2.712   8.075  17.623  0.00  0.00    +0.000 A 
ATOM      5  C   UNL     1       1.869   8.558  18.624  0.00  0.00    +0.000 A 
ATOM      6 CL   UNL     1       0.894   9.986  18.299  0.00  0.00    +0.000 Cl
ATOM      7  C   UNL     1       1.819   7.906  19.867  0.00  0.00    +0.000 A 
ATOM      8 CL   UNL     1       0.796   8.507  21.166  0.00  0.00    +0.000 Cl
ATOM      9  C   UNL     1       2.586   6.752  20.081  0.00  0.00    +0.000 A 
ENDBRANCH   1   2
BRANCH   1  10
ATOM     10  C   UNL     1       3.446   3.680  19.785  0.00  0.00    +0.000 C 
ATOM     11  C   UNL     1       3.958   2.277  19.386  0.00  0.00    +0.000 C 
ATOM     12  C   UNL     1       3.514   1.815  17.984  0.00  0.00    +0.000 C 
ATOM     13  N   UNL     1       2.063   1.959  17.790  0.00  0.00    +0.000 NA
ATOM     14  C   UNL     1       1.605   3.332  18.060  0.00  0.00    +0.000 C 
ATOM     15  C   UNL     1       1.930   3.740  19.505  0.00  0.00    +0.000 C 
ATOM     16  H   UNL     1       1.559   1.292  18.417  0.00  0.00    +0.000 HD
ENDBRANCH   1  10
BRANCH   1  17
ATOM     17  C   UNL     1       5.158   4.664  18.129  0.00  0.00    +0.000 C 
BRANCH  17  19
ATOM     18  C   UNL     1       7.333   6.942  17.733  0.00  0.00    +0.000 C 
ATOM     19  S   UNL     1       6.819   5.344  18.417  0.00  0.00    +0.000 S 
ATOM     20  O   UNL     1       7.880   4.290  18.066  0.00  0.00    +0.000 OA
ATOM     21  O   UNL     1       7.021   5.398  19.937  0.00  0.00    +0.000 OA
ENDBRANCH  17  19
ENDBRANCH   1  17
TORSDOF 4
ENDMDL
MODEL 6
REMARK VINA RESULT:      -7.2      1.135      1.334
REMARK  Name = 
REMARK  5 active torsions:
REMARK  status: ('A' for Active; 'I' for Inactive)
REMARK    1  A    between atoms: C_1  and  S_2
REMARK    2  A    between atoms: S_2  and  C_5
REMARK    3  A    between atoms: C_5  and  C_6
REMARK    4  A    between atoms: C_6  and  C_7
REMARK    5  A    between atoms: C_6  and  C_15
REMARK                            x       y       z     vdW  Elec       q    Type
REMARK                         _______ _______ _______ _____ _____    ______ ____
ROOT
ATOM      1  C   UNL     1       4.423   4.724  18.063  0.00  0.00    +0.000 C 
ENDROOT
BRANCH   1   2
ATOM      2  C   UNL     1       3.624   6.007  18.269  0.00  0.00    +0.000 A 
ATOM      3  C   UNL     1       3.566   7.010  17.290  0.00  0.00    +0.000 A 
ATOM      4  C   UNL     1       2.800   8.162  17.491  0.00  0.00    +0.000 A 
ATOM      5  C   UNL     1       2.105   8.347  18.687  0.00  0.00    +0.000 A 
ATOM      6 CL   UNL     1       1.138   9.803  18.892  0.00  0.00    +0.000 Cl
ATOM      7  C   UNL     1       2.193   7.379  19.700  0.00  0.00    +0.000 A 
ATOM      8 CL   UNL     1       1.360   7.595  21.235  0.00  0.00    +0.000 Cl
ATOM      9  C   UNL     1       2.948   6.216  19.491  0.00  0.00    +0.000 A 
ENDBRANCH   1   2
BRANCH   1  10
ATOM     10  C   UNL     1       3.624   3.366  17.955  0.00  0.00    +0.000 C 
ATOM     11  C   UNL     1       2.098   3.381  17.705  0.00  0.00    +0.000 C 
ATOM     12  C   UNL     1       1.249   3.570  18.978  0.00  0.00    +0.000 C 
ATOM     13  N   UNL     1       1.635   2.632  20.042  0.00  0.00    +0.000 NA
ATOM     14  C   UNL     1       3.071   2.711  20.353  0.00  0.00    +0.000 C 
ATOM     15  C   UNL     1       3.916   2.387  19.110  0.00  0.00    +0.000 C 
ATOM     16  H   UNL     1       1.392   1.657  19.753  0.00  0.00    +0.000 HD
ENDBRANCH   1  10
BRANCH   1  17
ATOM     17  C   UNL     1       5.428   4.878  16.906  0.00  0.00    +0.000 C 
BRANCH  17  19
ATOM     18  C   UNL     1       7.364   5.699  19.283  0.00  0.00    +0.000 C 
ATOM     19  S   UNL     1       7.068   5.356  17.528  0.00  0.00    +0.000 S 
ATOM     20  O   UNL     1       7.619   6.523  16.695  0.00  0.00    +0.000 OA
ATOM     21  O   UNL     1       8.047   4.258  17.093  0.00  0.00    +0.000 OA
ENDBRANCH  17  19
ENDBRANCH   1  17
TORSDOF 4
ENDMDL
MODEL 7
REMARK VINA RESULT:      -7.2      1.125      1.851
REMARK  Name = 
REMARK  5 active torsions:
REMARK  status: ('A' for Active; 'I' for Inactive)
REMARK    1  A    between atoms: C_1  and  S_2
REMARK    2  A    between atoms: S_2  and  C_5
REMARK    3  A    between atoms: C_5  and  C_6
REMARK    4  A    between atoms: C_6  and  C_7
REMARK    5  A    between atoms: C_6  and  C_15
REMARK                            x       y       z     vdW  Elec       q    Type
REMARK                         _______ _______ _______ _____ _____    ______ ____
ROOT
ATOM      1  C   UNL     1       3.618   5.370  18.251  0.00  0.00    +0.000 C 
ENDROOT
BRANCH   1   2
ATOM      2  C   UNL     1       2.796   6.453  18.942  0.00  0.00    +0.000 A 
ATOM      3  C   UNL     1       2.251   6.268  20.222  0.00  0.00    +0.000 A 
ATOM      4  C   UNL     1       1.529   7.290  20.845  0.00  0.00    +0.000 A 
ATOM      5  C   UNL     1       1.310   8.501  20.189  0.00  0.00    +0.000 A 
ATOM      6 CL   UNL     1       0.411   9.767  21.017  0.00  0.00    +0.000 Cl
ATOM      7  C   UNL     1       1.802   8.686  18.886  0.00  0.00    +0.000 A 
ATOM      8 CL   UNL     1       1.515  10.186  18.013  0.00  0.00    +0.000 Cl
ATOM      9  C   UNL     1       2.541   7.668  18.268  0.00  0.00    +0.000 A 
ENDBRANCH   1   2
BRANCH   1  10
ATOM     10  C   UNL     1       2.843   4.261  17.437  0.00  0.00    +0.000 C 
ATOM     11  C   UNL     1       1.360   3.960  17.753  0.00  0.00    +0.000 C 
ATOM     12  C   UNL     1       1.149   2.987  18.930  0.00  0.00    +0.000 C 
ATOM     13  N   UNL     1       1.952   1.764  18.786  0.00  0.00    +0.000 NA
ATOM     14  C   UNL     1       3.381   2.062  18.603  0.00  0.00    +0.000 C 
ATOM     15  C   UNL     1       3.602   2.921  17.347  0.00  0.00    +0.000 C 
ATOM     16  H   UNL     1       1.602   1.211  17.971  0.00  0.00    +0.000 HD
ENDBRANCH   1  10
BRANCH   1  17
ATOM     17  C   UNL     1       4.756   5.988  17.416  0.00  0.00    +0.000 C 
BRANCH  17  19
ATOM     18  C   UNL     1       7.452   4.412  16.848  0.00  0.00    +0.000 C 
ATOM     19  S   UNL     1       6.374   5.359  17.955  0.00  0.00    +0.000 S 
ATOM     20  O   UNL     1       6.217   4.589  19.275  0.00  0.00    +0.000 OA
ATOM     21  O   UNL     1       7.173   6.565  18.468  0.00  0.00    +0.000 OA
ENDBRANCH  17  19
ENDBRANCH   1  17
TORSDOF 4
ENDMDL
MODEL 8
REMARK VINA RESULT:      -7.1      1.144      1.883
REMARK  Name = 
REMARK  5 active torsions:
REMARK  status: ('A' for Active; 'I' for Inactive)
REMARK    1  A    between atoms: C_1  and  S_2
REMARK    2  A    between atoms: S_2  and  C_5
REMARK    3  A    between atoms: C_5  and  C_6
REMARK    4  A    between atoms: C_6  and  C_7
REMARK    5  A    between atoms: C_6  and  C_15
REMARK                            x       y       z     vdW  Elec       q    Type
REMARK                         _______ _______ _______ _____ _____    ______ ____
ROOT
ATOM      1  C   UNL     1       3.760   5.154  17.964  0.00  0.00    +0.000 C 
ENDROOT
BRANCH   1   2
ATOM      2  C   UNL     1       2.993   6.234  18.719  0.00  0.00    +0.000 A 
ATOM      3  C   UNL     1       2.537   6.041  20.032  0.00  0.00    +0.000 A 
ATOM      4  C   UNL     1       1.865   7.061  20.712  0.00  0.00    +0.000 A 
ATOM      5  C   UNL     1       1.608   8.279  20.083  0.00  0.00    +0.000 A 
ATOM      6 CL   UNL     1       0.775   9.541  20.982  0.00  0.00    +0.000 Cl
ATOM      7  C   UNL     1       2.010   8.473  18.751  0.00  0.00    +0.000 A 
ATOM      8 CL   UNL     1       1.671   9.982  17.912  0.00  0.00    +0.000 Cl
ATOM      9  C   UNL     1       2.699   7.456  18.075  0.00  0.00    +0.000 A 
ENDBRANCH   1   2
BRANCH   1  10
ATOM     10  C   UNL     1       2.931   3.981  17.308  0.00  0.00    +0.000 C 
ATOM     11  C   UNL     1       1.446   3.775  17.686  0.00  0.00    +0.000 C 
ATOM     12  C   UNL     1       1.229   2.963  18.979  0.00  0.00    +0.000 C 
ATOM     13  N   UNL     1       1.988   1.704  18.973  0.00  0.00    +0.000 NA
ATOM     14  C   UNL     1       3.422   1.925  18.728  0.00  0.00    +0.000 C 
ATOM     15  C   UNL     1       3.642   2.615  17.372  0.00  0.00    +0.000 C 
ATOM     16  H   UNL     1       1.602   1.067  18.240  0.00  0.00    +0.000 HD
ENDBRANCH   1  10
BRANCH   1  17
ATOM     17  C   UNL     1       4.746   5.778  16.956  0.00  0.00    +0.000 C 
BRANCH  17  19
ATOM     18  C   UNL     1       6.984   5.579  19.198  0.00  0.00    +0.000 C 
ATOM     19  S   UNL     1       6.467   5.485  17.463  0.00  0.00    +0.000 S 
ATOM     20  O   UNL     1       7.411   6.350  16.616  0.00  0.00    +0.000 OA
ATOM     21  O   UNL     1       6.858   4.100  16.932  0.00  0.00    +0.000 OA
ENDBRANCH  17  19
ENDBRANCH   1  17
TORSDOF 4
ENDMDL
MODEL 9
REMARK VINA RESULT:      -7.1      2.774      3.655
REMARK  Name = 
REMARK  5 active torsions:
REMARK  status: ('A' for Active; 'I' for Inactive)
REMARK    1  A    between atoms: C_1  and  S_2
REMARK    2  A    between atoms: S_2  and  C_5
REMARK    3  A    between atoms: C_5  and  C_6
REMARK    4  A    between atoms: C_6  and  C_7
REMARK    5  A    between atoms: C_6  and  C_15
REMARK                            x       y       z     vdW  Elec       q    Type
REMARK                         _______ _______ _______ _____ _____    ______ ____
ROOT
ATOM      1  C   UNL     1       3.221   6.232  18.041  0.00  0.00    +0.000 C 
ENDROOT
BRANCH   1   2
ATOM      2  C   UNL     1       2.471   7.471  18.520  0.00  0.00    +0.000 A 
ATOM      3  C   UNL     1       2.219   8.560  17.673  0.00  0.00    +0.000 A 
ATOM      4  C   UNL     1       1.500   9.669  18.129  0.00  0.00    +0.000 A 
ATOM      5  C   UNL     1       1.049   9.724  19.448  0.00  0.00    +0.000 A 
ATOM      6 CL   UNL     1       0.132  11.129  19.976  0.00  0.00    +0.000 Cl
ATOM      7  C   UNL     1       1.337   8.666  20.327  0.00  0.00    +0.000 A 
ATOM      8 CL   UNL     1       0.816   8.716  22.007  0.00  0.00    +0.000 Cl
ATOM      9  C   UNL     1       2.043   7.547  19.864  0.00  0.00    +0.000 A 
ENDBRANCH   1   2
BRANCH   1  10
ATOM     10  C   UNL     1       4.714   6.414  17.561  0.00  0.00    +0.000 C 
ATOM     11  C   UNL     1       5.107   6.078  16.104  0.00  0.00    +0.000 C 
ATOM     12  C   UNL     1       5.398   4.585  15.854  0.00  0.00    +0.000 C 
ATOM     13  N   UNL     1       6.350   4.038  16.833  0.00  0.00    +0.000 NA
ATOM     14  C   UNL     1       5.905   4.261  18.218  0.00  0.00    +0.000 C 
ATOM     15  C   UNL     1       5.747   5.763  18.504  0.00  0.00    +0.000 C 
ATOM     16  H   UNL     1       7.288   4.476  16.691  0.00  0.00    +0.000 HD
ENDBRANCH   1  10
BRANCH   1  17
ATOM     17  C   UNL     1       3.094   5.081  19.058  0.00  0.00    +0.000 C 
BRANCH  17  19
ATOM     18  C   UNL     1       2.718   2.163  17.867  0.00  0.00    +0.000 C 
ATOM     19  S   UNL     1       2.037   3.753  18.407  0.00  0.00    +0.000 S 
ATOM     20  O   UNL     1       1.132   4.308  17.297  0.00  0.00    +0.000 OA
ATOM     21  O   UNL     1       0.972   3.469  19.474  0.00  0.00    +0.000 OA
ENDBRANCH  17  19
ENDBRANCH   1  17
TORSDOF 4
ENDMDL
