MODEL 1
REMARK VINA RESULT:      -7.7      0.000      0.000
REMARK  Name = 
REMARK  9 active torsions:
REMARK  status: ('A' for Active; 'I' for Inactive)
REMARK    1  A    between atoms: C_1  and  C_2
REMARK    2  A    between atoms: C_2  and  C_3
REMARK    3  A    between atoms: C_2  and  O_4
REMARK    4  A    between atoms: C_2  and  C_5
REMARK    5  A    between atoms: C_6  and  C_7
REMARK    6  A    between atoms: C_21  and  C_22
REMARK    7  A    between atoms: C_25  and  C_26
REMARK    8  A    between atoms: C_26  and  N_27
REMARK    9  A    between atoms: C_28  and  C_30
REMARK                            x       y       z     vdW  Elec       q    Type
REMARK                         _______ _______ _______ _____ _____    ______ ____
ROOT
ATOM      1  C   UNL     1       2.646   6.916  18.763  0.00  0.00    +0.000 A 
ATOM      2  C   UNL     1       2.095   8.201  18.741  0.00  0.00    +0.000 A 
ATOM      3  C   UNL     1       1.256   8.630  19.783  0.00  0.00    +0.000 A 
ATOM      4  C   UNL     1       0.977   7.739  20.852  0.00  0.00    +0.000 A 
ATOM      5  C   UNL     1       1.362   6.388  20.717  0.00  0.00    +0.000 A 
ATOM      6  C   UNL     1       2.210   5.993  19.699  0.00  0.00    +0.000 A 
ATOM      7  F   UNL     1       2.694   4.742  19.714  0.00  0.00    +0.000 F 
ATOM      8  C   UNL     1       0.607   8.264  22.289  0.00  0.00    +0.000 C 
ATOM      9  C   UNL     1       1.659   9.325  22.730  0.00  0.00    +0.000 C 
ATOM     10  C   UNL     1       0.644  10.420  22.323  0.00  0.00    +0.000 C 
ATOM     11  C   UNL     1      -0.457   9.344  22.549  0.00  0.00    +0.000 C 
ATOM     12  N   UNL     1       0.641  10.839  20.931  0.00  0.00    +0.000 N 
ATOM     13  C   UNL     1       0.824  10.046  19.806  0.00  0.00    +0.000 A 
ATOM     14  N   UNL     1       0.579  10.763  18.716  0.00  0.00    +0.000 NA
ATOM     15  C   UNL     1       0.267  12.045  19.139  0.00  0.00    +0.000 A 
ATOM     16  C   UNL     1       0.296  12.115  20.522  0.00  0.00    +0.000 A 
ENDROOT
BRANCH  15  17
ATOM     17  C   UNL     1      -0.103  13.128  18.225  0.00  0.00    +0.000 C 
ATOM     18  N   UNL     1      -1.137  12.821  17.391  0.00  0.00    +0.000 N 
ATOM     19  O   UNL     1       0.412  14.239  18.222  0.00  0.00    +0.000 OA
ATOM     20  H   UNL     1      -1.585  11.916  17.457  0.00  0.00    +0.000 HD
ATOM     21  H   UNL     1      -1.480  13.526  16.756  0.00  0.00    +0.000 HD
ENDBRANCH  15  17
BRANCH   1  23
ATOM     22  C   UNL     1       4.690   6.193  17.111  0.00  0.00    +0.000 C 
ATOM     23  C   UNL     1       3.716   6.574  17.891  0.00  0.00    +0.000 C 
BRANCH  22  25
ATOM     24  C   UNL     1       5.728   4.242  15.964  0.00  0.00    +0.000 C 
ATOM     25  C   UNL     1       5.823   5.747  16.202  0.00  0.00    +0.000 C 
ATOM     26  C   UNL     1       7.164   6.122  16.831  0.00  0.00    +0.000 C 
BRANCH  25  27
ATOM     27  O   UNL     1       5.690   6.424  14.956  0.00  0.00    +0.000 OA
ATOM     28  H   UNL     1       4.961   6.005  14.470  0.00  0.00    +0.000 HD
ENDBRANCH  25  27
ENDBRANCH  22  25
ENDBRANCH   1  23
BRANCH  16  29
ATOM     29  C   UNL     1      -0.031  13.258  21.410  0.00  0.00    +0.000 C 
BRANCH  29  30
ATOM     30  N   UNL     1      -1.468  13.324  21.548  0.00  0.00    +0.000 N 
ATOM     31  C   UNL     1      -2.075  13.602  22.746  0.00  0.00    +0.000 C 
ATOM     32  O   UNL     1      -1.480  13.712  23.816  0.00  0.00    +0.000 OA
ATOM     33  H   UNL     1      -2.018  13.226  20.707  0.00  0.00    +0.000 HD
BRANCH  31  34
ATOM     34  C   UNL     1      -3.544  13.762  22.684  0.00  0.00    +0.000 C 
ATOM     35  C   UNL     1      -4.408  12.667  22.076  0.00  0.00    +0.000 C 
ATOM     36  C   UNL     1      -4.389  12.895  23.539  0.00  0.00    +0.000 C 
ATOM     37  F   UNL     1      -5.497  13.417  24.167  0.00  0.00    +0.000 F 
ATOM     38  F   UNL     1      -3.848  11.957  24.384  0.00  0.00    +0.000 F 
ENDBRANCH  31  34
ENDBRANCH  29  30
ENDBRANCH  16  29
TORSDOF 7
ENDMDL
MODEL 2
REMARK VINA RESULT:      -7.6      4.025     10.568
REMARK  Name = 
REMARK  9 active torsions:
REMARK  status: ('A' for Active; 'I' for Inactive)
REMARK    1  A    between atoms: C_1  and  C_2
REMARK    2  A    between atoms: C_2  and  C_3
REMARK    3  A    between atoms: C_2  and  O_4
REMARK    4  A    between atoms: C_2  and  C_5
REMARK    5  A    between atoms: C_6  and  C_7
REMARK    6  A    between atoms: C_21  and  C_22
REMARK    7  A    between atoms: C_25  and  C_26
REMARK    8  A    between atoms: C_26  and  N_27
REMARK    9  A    between atoms: C_28  and  C_30
REMARK                            x       y       z     vdW  Elec       q    Type
REMARK                         _______ _______ _______ _____ _____    ______ ____
ROOT
ATOM      1  C   UNL     1       1.461   8.124  20.211  0.00  0.00    +0.000 A 
ATOM      2  C   UNL     1       2.609   7.589  19.619  0.00  0.00    +0.000 A 
ATOM      3  C   UNL     1       2.778   6.198  19.530  0.00  0.00    +0.000 A 
ATOM      4  C   UNL     1       1.767   5.348  20.051  0.00  0.00    +0.000 A 
ATOM      5  C   UNL     1       0.747   5.922  20.838  0.00  0.00    +0.000 A 
ATOM      6  C   UNL     1       0.583   7.294  20.890  0.00  0.00    +0.000 A 
ATOM      7  F   UNL     1      -0.504   7.790  21.501  0.00  0.00    +0.000 F 
ATOM      8  C   UNL     1       1.539   3.895  19.488  0.00  0.00    +0.000 C 
ATOM      9  C   UNL     1       1.443   3.960  17.934  0.00  0.00    +0.000 C 
ATOM     10  C   UNL     1       2.919   3.498  17.879  0.00  0.00    +0.000 C 
ATOM     11  C   UNL     1       2.673   2.877  19.284  0.00  0.00    +0.000 C 
ATOM     12  N   UNL     1       3.941   4.527  17.970  0.00  0.00    +0.000 N 
ATOM     13  C   UNL     1       3.925   5.672  18.756  0.00  0.00    +0.000 A 
ATOM     14  N   UNL     1       5.110   6.267  18.693  0.00  0.00    +0.000 NA
ATOM     15  C   UNL     1       5.892   5.517  17.829  0.00  0.00    +0.000 A 
ATOM     16  C   UNL     1       5.182   4.422  17.367  0.00  0.00    +0.000 A 
ENDROOT
BRANCH  15  17
ATOM     17  C   UNL     1       7.289   5.834  17.526  0.00  0.00    +0.000 C 
ATOM     18  N   UNL     1       7.448   6.898  16.689  0.00  0.00    +0.000 N 
ATOM     19  O   UNL     1       8.253   5.251  18.008  0.00  0.00    +0.000 OA
ATOM     20  H   UNL     1       6.635   7.400  16.355  0.00  0.00    +0.000 HD
ATOM     21  H   UNL     1       8.380   7.208  16.461  0.00  0.00    +0.000 HD
ENDBRANCH  15  17
BRANCH   1  23
ATOM     22  C   UNL     1       0.897  10.767  19.858  0.00  0.00    +0.000 C 
ATOM     23  C   UNL     1       1.135   9.499  20.045  0.00  0.00    +0.000 C 
BRANCH  22  25
ATOM     24  C   UNL     1       1.802  13.069  20.146  0.00  0.00    +0.000 C 
ATOM     25  C   UNL     1       0.620  12.245  19.637  0.00  0.00    +0.000 C 
ATOM     26  C   UNL     1      -0.672  12.637  20.350  0.00  0.00    +0.000 C 
BRANCH  25  27
ATOM     27  O   UNL     1       0.465  12.467  18.239  0.00  0.00    +0.000 OA
ATOM     28  H   UNL     1       1.014  13.233  18.001  0.00  0.00    +0.000 HD
ENDBRANCH  25  27
ENDBRANCH  22  25
ENDBRANCH   1  23
BRANCH  16  29
ATOM     29  C   UNL     1       5.632   3.319  16.482  0.00  0.00    +0.000 C 
BRANCH  29  30
ATOM     30  N   UNL     1       5.411   3.723  15.112  0.00  0.00    +0.000 N 
ATOM     31  C   UNL     1       6.418   4.225  14.327  0.00  0.00    +0.000 C 
ATOM     32  O   UNL     1       7.550   4.478  14.731  0.00  0.00    +0.000 OA
ATOM     33  H   UNL     1       4.494   3.556  14.723  0.00  0.00    +0.000 HD
BRANCH  31  34
ATOM     34  C   UNL     1       6.053   4.464  12.915  0.00  0.00    +0.000 C 
ATOM     35  C   UNL     1       6.969   3.991  11.796  0.00  0.00    +0.000 C 
ATOM     36  C   UNL     1       5.687   3.302  12.069  0.00  0.00    +0.000 C 
ATOM     37  F   UNL     1       4.649   3.403  11.172  0.00  0.00    +0.000 F 
ATOM     38  F   UNL     1       5.675   2.020  12.562  0.00  0.00    +0.000 F 
ENDBRANCH  31  34
ENDBRANCH  29  30
ENDBRANCH  16  29
TORSDOF 7
ENDMDL
MODEL 3
REMARK VINA RESULT:      -7.6      3.931     10.537
REMARK  Name = 
REMARK  9 active torsions:
REMARK  status: ('A' for Active; 'I' for Inactive)
REMARK    1  A    between atoms: C_1  and  C_2
REMARK    2  A    between atoms: C_2  and  C_3
REMARK    3  A    between atoms: C_2  and  O_4
REMARK    4  A    between atoms: C_2  and  C_5
REMARK    5  A    between atoms: C_6  and  C_7
REMARK    6  A    between atoms: C_21  and  C_22
REMARK    7  A    between atoms: C_25  and  C_26
REMARK    8  A    between atoms: C_26  and  N_27
REMARK    9  A    between atoms: C_28  and  C_30
REMARK                            x       y       z     vdW  Elec       q    Type
REMARK                         _______ _______ _______ _____ _____    ______ ____
ROOT
ATOM      1  C   UNL     1       1.163   8.599  19.714  0.00  0.00    +0.000 A 
ATOM      2  C   UNL     1       2.344   8.175  19.097  0.00  0.00    +0.000 A 
ATOM      3  C   UNL     1       2.833   6.878  19.320  0.00  0.00    +0.000 A 
ATOM      4  C   UNL     1       2.112   6.009  20.181  0.00  0.00    +0.000 A 
ATOM      5  C   UNL     1       1.065   6.551  20.956  0.00  0.00    +0.000 A 
ATOM      6  C   UNL     1       0.581   7.821  20.702  0.00  0.00    +0.000 A 
ATOM      7  F   UNL     1      -0.529   8.226  21.337  0.00  0.00    +0.000 F 
ATOM      8  C   UNL     1       2.187   4.445  20.027  0.00  0.00    +0.000 C 
ATOM      9  C   UNL     1       1.929   4.067  18.538  0.00  0.00    +0.000 C 
ATOM     10  C   UNL     1       3.459   3.923  18.366  0.00  0.00    +0.000 C 
ATOM     11  C   UNL     1       3.508   3.668  19.900  0.00  0.00    +0.000 C 
ATOM     12  N   UNL     1       4.208   5.127  18.046  0.00  0.00    +0.000 N 
ATOM     13  C   UNL     1       3.993   6.413  18.525  0.00  0.00    +0.000 A 
ATOM     14  N   UNL     1       4.988   7.201  18.137  0.00  0.00    +0.000 NA
ATOM     15  C   UNL     1       5.840   6.425  17.368  0.00  0.00    +0.000 A 
ATOM     16  C   UNL     1       5.374   5.123  17.300  0.00  0.00    +0.000 A 
ENDROOT
BRANCH  15  17
ATOM     17  C   UNL     1       7.083   6.931  16.783  0.00  0.00    +0.000 C 
ATOM     18  N   UNL     1       7.491   8.127  17.296  0.00  0.00    +0.000 N 
ATOM     19  O   UNL     1       7.751   6.333  15.949  0.00  0.00    +0.000 OA
ATOM     20  H   UNL     1       6.952   8.569  18.030  0.00  0.00    +0.000 HD
ATOM     21  H   UNL     1       8.360   8.527  16.976  0.00  0.00    +0.000 HD
ENDBRANCH  15  17
BRANCH   1  23
ATOM     22  C   UNL     1      -0.149  10.856  18.928  0.00  0.00    +0.000 C 
ATOM     23  C   UNL     1       0.501   9.780  19.275  0.00  0.00    +0.000 C 
BRANCH  22  25
ATOM     24  C   UNL     1       0.049  13.303  18.512  0.00  0.00    +0.000 C 
ATOM     25  C   UNL     1      -0.906  12.111  18.526  0.00  0.00    +0.000 C 
ATOM     26  C   UNL     1      -2.064  12.343  19.493  0.00  0.00    +0.000 C 
BRANCH  25  27
ATOM     27  O   UNL     1      -1.427  11.917  17.215  0.00  0.00    +0.000 OA
ATOM     28  H   UNL     1      -1.230  11.003  16.952  0.00  0.00    +0.000 HD
ENDBRANCH  25  27
ENDBRANCH  22  25
ENDBRANCH   1  23
BRANCH  16  29
ATOM     29  C   UNL     1       5.987   3.940  16.647  0.00  0.00    +0.000 C 
BRANCH  29  30
ATOM     30  N   UNL     1       5.256   3.667  15.431  0.00  0.00    +0.000 N 
ATOM     31  C   UNL     1       5.813   3.839  14.189  0.00  0.00    +0.000 C 
ATOM     32  O   UNL     1       6.920   4.332  13.988  0.00  0.00    +0.000 OA
ATOM     33  H   UNL     1       4.331   3.274  15.526  0.00  0.00    +0.000 HD
BRANCH  31  34
ATOM     34  C   UNL     1       4.975   3.388  13.057  0.00  0.00    +0.000 C 
ATOM     35  C   UNL     1       5.003   4.143  11.736  0.00  0.00    +0.000 C 
ATOM     36  C   UNL     1       5.642   2.813  11.864  0.00  0.00    +0.000 C 
ATOM     37  F   UNL     1       5.094   1.723  11.228  0.00  0.00    +0.000 F 
ATOM     38  F   UNL     1       7.008   2.685  11.786  0.00  0.00    +0.000 F 
ENDBRANCH  31  34
ENDBRANCH  29  30
ENDBRANCH  16  29
TORSDOF 7
ENDMDL
MODEL 4
REMARK VINA RESULT:      -7.5      1.000      1.113
REMARK  Name = 
REMARK  9 active torsions:
REMARK  status: ('A' for Active; 'I' for Inactive)
REMARK    1  A    between atoms: C_1  and  C_2
REMARK    2  A    between atoms: C_2  and  C_3
REMARK    3  A    between atoms: C_2  and  O_4
REMARK    4  A    between atoms: C_2  and  C_5
REMARK    5  A    between atoms: C_6  and  C_7
REMARK    6  A    between atoms: C_21  and  C_22
REMARK    7  A    between atoms: C_25  and  C_26
REMARK    8  A    between atoms: C_26  and  N_27
REMARK    9  A    between atoms: C_28  and  C_30
REMARK                            x       y       z     vdW  Elec       q    Type
REMARK                         _______ _______ _______ _____ _____    ______ ____
ROOT
ATOM      1  C   UNL     1       2.962   6.687  18.731  0.00  0.00    +0.000 A 
ATOM      2  C   UNL     1       2.447   7.986  18.702  0.00  0.00    +0.000 A 
ATOM      3  C   UNL     1       1.508   8.397  19.663  0.00  0.00    +0.000 A 
ATOM      4  C   UNL     1       1.092   7.473  20.657  0.00  0.00    +0.000 A 
ATOM      5  C   UNL     1       1.458   6.119  20.509  0.00  0.00    +0.000 A 
ATOM      6  C   UNL     1       2.405   5.740  19.575  0.00  0.00    +0.000 A 
ATOM      7  F   UNL     1       2.855   4.477  19.590  0.00  0.00    +0.000 F 
ATOM      8  C   UNL     1       0.578   7.952  22.066  0.00  0.00    +0.000 C 
ATOM      9  C   UNL     1       1.599   8.966  22.663  0.00  0.00    +0.000 C 
ATOM     10  C   UNL     1       0.661  10.103  22.193  0.00  0.00    +0.000 C 
ATOM     11  C   UNL     1      -0.483   9.049  22.253  0.00  0.00    +0.000 C 
ATOM     12  N   UNL     1       0.821  10.576  20.829  0.00  0.00    +0.000 N 
ATOM     13  C   UNL     1       1.109   9.823  19.698  0.00  0.00    +0.000 A 
ATOM     14  N   UNL     1       1.002  10.588  18.619  0.00  0.00    +0.000 NA
ATOM     15  C   UNL     1       0.675  11.860  19.058  0.00  0.00    +0.000 A 
ATOM     16  C   UNL     1       0.553  11.876  20.437  0.00  0.00    +0.000 A 
ENDROOT
BRANCH  15  17
ATOM     17  C   UNL     1       0.434  12.988  18.155  0.00  0.00    +0.000 C 
ATOM     18  N   UNL     1      -0.825  13.021  17.633  0.00  0.00    +0.000 N 
ATOM     19  O   UNL     1       1.249  13.869  17.913  0.00  0.00    +0.000 OA
ATOM     20  H   UNL     1      -1.498  12.313  17.898  0.00  0.00    +0.000 HD
ATOM     21  H   UNL     1      -1.087  13.787  17.031  0.00  0.00    +0.000 HD
ENDBRANCH  15  17
BRANCH   1  23
ATOM     22  C   UNL     1       5.207   6.087  17.305  0.00  0.00    +0.000 C 
ATOM     23  C   UNL     1       4.114   6.349  17.968  0.00  0.00    +0.000 C 
BRANCH  22  25
ATOM     24  C   UNL     1       6.130   5.360  15.110  0.00  0.00    +0.000 C 
ATOM     25  C   UNL     1       6.481   5.782  16.536  0.00  0.00    +0.000 C 
ATOM     26  C   UNL     1       7.266   4.688  17.256  0.00  0.00    +0.000 C 
BRANCH  25  27
ATOM     27  O   UNL     1       7.271   6.966  16.489  0.00  0.00    +0.000 OA
ATOM     28  H   UNL     1       6.667   7.725  16.552  0.00  0.00    +0.000 HD
ENDBRANCH  25  27
ENDBRANCH  22  25
ENDBRANCH   1  23
BRANCH  16  29
ATOM     29  C   UNL     1       0.156  12.992  21.331  0.00  0.00    +0.000 C 
BRANCH  29  30
ATOM     30  N   UNL     1      -1.141  12.684  21.888  0.00  0.00    +0.000 N 
ATOM     31  C   UNL     1      -1.553  13.178  23.100  0.00  0.00    +0.000 C 
ATOM     32  O   UNL     1      -0.839  13.825  23.863  0.00  0.00    +0.000 OA
ATOM     33  H   UNL     1      -1.772  12.140  21.317  0.00  0.00    +0.000 HD
BRANCH  31  34
ATOM     34  C   UNL     1      -2.954  12.873  23.459  0.00  0.00    +0.000 C 
ATOM     35  C   UNL     1      -3.873  13.977  23.961  0.00  0.00    +0.000 C 
ATOM     36  C   UNL     1      -4.039  13.410  22.603  0.00  0.00    +0.000 C 
ATOM     37  F   UNL     1      -5.136  12.632  22.313  0.00  0.00    +0.000 F 
ATOM     38  F   UNL     1      -3.778  14.174  21.492  0.00  0.00    +0.000 F 
ENDBRANCH  31  34
ENDBRANCH  29  30
ENDBRANCH  16  29
TORSDOF 7
ENDMDL
MODEL 5
REMARK VINA RESULT:      -7.4      3.815     10.470
REMARK  Name = 
REMARK  9 active torsions:
REMARK  status: ('A' for Active; 'I' for Inactive)
REMARK    1  A    between atoms: C_1  and  C_2
REMARK    2  A    between atoms: C_2  and  C_3
REMARK    3  A    between atoms: C_2  and  O_4
REMARK    4  A    between atoms: C_2  and  C_5
REMARK    5  A    between atoms: C_6  and  C_7
REMARK    6  A    between atoms: C_21  and  C_22
REMARK    7  A    between atoms: C_25  and  C_26
REMARK    8  A    between atoms: C_26  and  N_27
REMARK    9  A    between atoms: C_28  and  C_30
REMARK                            x       y       z     vdW  Elec       q    Type
REMARK                         _______ _______ _______ _____ _____    ______ ____
ROOT
ATOM      1  C   UNL     1       0.887   8.974  20.005  0.00  0.00    +0.000 A 
ATOM      2  C   UNL     1       1.876   8.426  19.183  0.00  0.00    +0.000 A 
ATOM      3  C   UNL     1       2.364   7.133  19.429  0.00  0.00    +0.000 A 
ATOM      4  C   UNL     1       1.840   6.396  20.523  0.00  0.00    +0.000 A 
ATOM      5  C   UNL     1       1.021   7.069  21.454  0.00  0.00    +0.000 A 
ATOM      6  C   UNL     1       0.530   8.332  21.180  0.00  0.00    +0.000 A 
ATOM      7  F   UNL     1      -0.387   8.859  22.005  0.00  0.00    +0.000 F 
ATOM      8  C   UNL     1       1.829   4.821  20.529  0.00  0.00    +0.000 C 
ATOM      9  C   UNL     1       1.217   4.312  19.190  0.00  0.00    +0.000 C 
ATOM     10  C   UNL     1       2.659   4.068  18.687  0.00  0.00    +0.000 C 
ATOM     11  C   UNL     1       3.059   3.964  20.187  0.00  0.00    +0.000 C 
ATOM     12  N   UNL     1       3.348   5.190  18.073  0.00  0.00    +0.000 N 
ATOM     13  C   UNL     1       3.291   6.527  18.445  0.00  0.00    +0.000 A 
ATOM     14  N   UNL     1       4.190   7.216  17.753  0.00  0.00    +0.000 NA
ATOM     15  C   UNL     1       4.814   6.321  16.899  0.00  0.00    +0.000 A 
ATOM     16  C   UNL     1       4.305   5.047  17.084  0.00  0.00    +0.000 A 
ENDROOT
BRANCH  15  17
ATOM     17  C   UNL     1       5.900   6.697  15.992  0.00  0.00    +0.000 C 
ATOM     18  N   UNL     1       7.147   6.515  16.513  0.00  0.00    +0.000 N 
ATOM     19  O   UNL     1       5.740   7.090  14.843  0.00  0.00    +0.000 OA
ATOM     20  H   UNL     1       7.251   6.131  17.444  0.00  0.00    +0.000 HD
ATOM     21  H   UNL     1       7.952   6.712  15.940  0.00  0.00    +0.000 HD
ENDBRANCH  15  17
BRANCH   1  23
ATOM     22  C   UNL     1      -0.462  11.190  19.168  0.00  0.00    +0.000 C 
ATOM     23  C   UNL     1       0.177  10.140  19.604  0.00  0.00    +0.000 C 
BRANCH  22  25
ATOM     24  C   UNL     1      -0.268  13.616  18.642  0.00  0.00    +0.000 C 
ATOM     25  C   UNL     1      -1.208  12.412  18.660  0.00  0.00    +0.000 C 
ATOM     26  C   UNL     1      -2.424  12.676  19.545  0.00  0.00    +0.000 C 
BRANCH  25  27
ATOM     27  O   UNL     1      -1.649  12.147  17.332  0.00  0.00    +0.000 OA
ATOM     28  H   UNL     1      -1.778  13.002  16.888  0.00  0.00    +0.000 HD
ENDBRANCH  25  27
ENDBRANCH  22  25
ENDBRANCH   1  23
BRANCH  16  29
ATOM     29  C   UNL     1       4.712   3.773  16.441  0.00  0.00    +0.000 C 
BRANCH  29  30
ATOM     30  N   UNL     1       4.698   3.966  15.009  0.00  0.00    +0.000 N 
ATOM     31  C   UNL     1       5.844   3.926  14.255  0.00  0.00    +0.000 C 
ATOM     32  O   UNL     1       6.977   3.835  14.720  0.00  0.00    +0.000 OA
ATOM     33  H   UNL     1       3.797   4.064  14.565  0.00  0.00    +0.000 HD
BRANCH  31  34
ATOM     34  C   UNL     1       5.636   4.011  12.794  0.00  0.00    +0.000 C 
ATOM     35  C   UNL     1       6.777   3.693  11.838  0.00  0.00    +0.000 C 
ATOM     36  C   UNL     1       5.640   2.758  12.002  0.00  0.00    +0.000 C 
ATOM     37  F   UNL     1       4.738   2.587  10.977  0.00  0.00    +0.000 F 
ATOM     38  F   UNL     1       5.827   1.529  12.587  0.00  0.00    +0.000 F 
ENDBRANCH  31  34
ENDBRANCH  29  30
ENDBRANCH  16  29
TORSDOF 7
ENDMDL
MODEL 6
REMARK VINA RESULT:      -7.4      1.351      1.436
REMARK  Name = 
REMARK  9 active torsions:
REMARK  status: ('A' for Active; 'I' for Inactive)
REMARK    1  A    between atoms: C_1  and  C_2
REMARK    2  A    between atoms: C_2  and  C_3
REMARK    3  A    between atoms: C_2  and  O_4
REMARK    4  A    between atoms: C_2  and  C_5
REMARK    5  A    between atoms: C_6  and  C_7
REMARK    6  A    between atoms: C_21  and  C_22
REMARK    7  A    between atoms: C_25  and  C_26
REMARK    8  A    between atoms: C_26  and  N_27
REMARK    9  A    between atoms: C_28  and  C_30
REMARK                            x       y       z     vdW  Elec       q    Type
REMARK                         _______ _______ _______ _____ _____    ______ ____
ROOT
ATOM      1  C   UNL     1       2.623   6.930  18.817  0.00  0.00    +0.000 A 
ATOM      2  C   UNL     1       2.013   8.187  18.768  0.00  0.00    +0.000 A 
ATOM      3  C   UNL     1       1.177   8.610  19.814  0.00  0.00    +0.000 A 
ATOM      4  C   UNL     1       0.963   7.741  20.917  0.00  0.00    +0.000 A 
ATOM      5  C   UNL     1       1.407   6.407  20.815  0.00  0.00    +0.000 A 
ATOM      6  C   UNL     1       2.251   6.018  19.791  0.00  0.00    +0.000 A 
ATOM      7  F   UNL     1       2.793   4.792  19.833  0.00  0.00    +0.000 F 
ATOM      8  C   UNL     1       0.599   8.295  22.345  0.00  0.00    +0.000 C 
ATOM      9  C   UNL     1       1.610   9.417  22.729  0.00  0.00    +0.000 C 
ATOM     10  C   UNL     1       0.536  10.450  22.311  0.00  0.00    +0.000 C 
ATOM     11  C   UNL     1      -0.508   9.332  22.596  0.00  0.00    +0.000 C 
ATOM     12  N   UNL     1       0.484  10.824  20.908  0.00  0.00    +0.000 N 
ATOM     13  C   UNL     1       0.680  10.005  19.804  0.00  0.00    +0.000 A 
ATOM     14  N   UNL     1       0.379  10.675  18.698  0.00  0.00    +0.000 NA
ATOM     15  C   UNL     1       0.016  11.953  19.088  0.00  0.00    +0.000 A 
ATOM     16  C   UNL     1       0.071  12.069  20.467  0.00  0.00    +0.000 A 
ENDROOT
BRANCH  15  17
ATOM     17  C   UNL     1      -0.422  12.988  18.150  0.00  0.00    +0.000 C 
ATOM     18  N   UNL     1      -1.318  12.551  17.219  0.00  0.00    +0.000 N 
ATOM     19  O   UNL     1      -0.079  14.163  18.202  0.00  0.00    +0.000 OA
ATOM     20  H   UNL     1      -1.632  11.588  17.238  0.00  0.00    +0.000 HD
ATOM     21  H   UNL     1      -1.701  13.209  16.559  0.00  0.00    +0.000 HD
ENDBRANCH  15  17
BRANCH   1  23
ATOM     22  C   UNL     1       4.644   6.250  17.118  0.00  0.00    +0.000 C 
ATOM     23  C   UNL     1       3.690   6.610  17.932  0.00  0.00    +0.000 C 
BRANCH  22  25
ATOM     24  C   UNL     1       5.658   4.329  15.901  0.00  0.00    +0.000 C 
ATOM     25  C   UNL     1       5.753   5.830  16.168  0.00  0.00    +0.000 C 
ATOM     26  C   UNL     1       7.108   6.198  16.767  0.00  0.00    +0.000 C 
BRANCH  25  27
ATOM     27  O   UNL     1       5.581   6.532  14.941  0.00  0.00    +0.000 OA
ATOM     28  H   UNL     1       5.998   6.005  14.240  0.00  0.00    +0.000 HD
ENDBRANCH  25  27
ENDBRANCH  22  25
ENDBRANCH   1  23
BRANCH  16  29
ATOM     29  C   UNL     1      -0.290  13.223  21.326  0.00  0.00    +0.000 C 
BRANCH  29  30
ATOM     30  N   UNL     1      -1.673  13.078  21.718  0.00  0.00    +0.000 N 
ATOM     31  C   UNL     1      -2.659  13.902  21.237  0.00  0.00    +0.000 C 
ATOM     32  O   UNL     1      -2.457  14.886  20.531  0.00  0.00    +0.000 OA
ATOM     33  H   UNL     1      -1.906  12.296  22.313  0.00  0.00    +0.000 HD
BRANCH  31  34
ATOM     34  C   UNL     1      -4.035  13.533  21.636  0.00  0.00    +0.000 C 
ATOM     35  C   UNL     1      -5.226  14.280  21.055  0.00  0.00    +0.000 C 
ATOM     36  C   UNL     1      -4.918  12.895  20.630  0.00  0.00    +0.000 C 
ATOM     37  F   UNL     1      -5.749  11.862  21.000  0.00  0.00    +0.000 F 
ATOM     38  F   UNL     1      -4.494  12.636  19.349  0.00  0.00    +0.000 F 
ENDBRANCH  31  34
ENDBRANCH  29  30
ENDBRANCH  16  29
TORSDOF 7
ENDMDL
MODEL 7
REMARK VINA RESULT:      -7.3      2.797      3.548
REMARK  Name = 
REMARK  9 active torsions:
REMARK  status: ('A' for Active; 'I' for Inactive)
REMARK    1  A    between atoms: C_1  and  C_2
REMARK    2  A    between atoms: C_2  and  C_3
REMARK    3  A    between atoms: C_2  and  O_4
REMARK    4  A    between atoms: C_2  and  C_5
REMARK    5  A    between atoms: C_6  and  C_7
REMARK    6  A    between atoms: C_21  and  C_22
REMARK    7  A    between atoms: C_25  and  C_26
REMARK    8  A    between atoms: C_26  and  N_27
REMARK    9  A    between atoms: C_28  and  C_30
REMARK                            x       y       z     vdW  Elec       q    Type
REMARK                         _______ _______ _______ _____ _____    ______ ____
ROOT
ATOM      1  C   UNL     1       2.826   6.857  18.890  0.00  0.00    +0.000 A 
ATOM      2  C   UNL     1       2.159   8.081  18.776  0.00  0.00    +0.000 A 
ATOM      3  C   UNL     1       1.255   8.490  19.769  0.00  0.00    +0.000 A 
ATOM      4  C   UNL     1       1.028   7.642  20.885  0.00  0.00    +0.000 A 
ATOM      5  C   UNL     1       1.540   6.328  20.843  0.00  0.00    +0.000 A 
ATOM      6  C   UNL     1       2.450   5.955  19.872  0.00  0.00    +0.000 A 
ATOM      7  F   UNL     1       3.047   4.758  19.975  0.00  0.00    +0.000 F 
ATOM      8  C   UNL     1       0.570   8.215  22.278  0.00  0.00    +0.000 C 
ATOM      9  C   UNL     1       1.506   9.395  22.677  0.00  0.00    +0.000 C 
ATOM     10  C   UNL     1       0.406  10.363  22.179  0.00  0.00    +0.000 C 
ATOM     11  C   UNL     1      -0.597   9.204  22.446  0.00  0.00    +0.000 C 
ATOM     12  N   UNL     1       0.404  10.696  20.764  0.00  0.00    +0.000 N 
ATOM     13  C   UNL     1       0.693   9.859  19.695  0.00  0.00    +0.000 A 
ATOM     14  N   UNL     1       0.414  10.483  18.557  0.00  0.00    +0.000 NA
ATOM     15  C   UNL     1      -0.027  11.753  18.893  0.00  0.00    +0.000 A 
ATOM     16  C   UNL     1      -0.045  11.907  20.268  0.00  0.00    +0.000 A 
ENDROOT
BRANCH  15  17
ATOM     17  C   UNL     1      -0.468  12.739  17.905  0.00  0.00    +0.000 C 
ATOM     18  N   UNL     1      -1.534  12.337  17.156  0.00  0.00    +0.000 N 
ATOM     19  O   UNL     1       0.018  13.856  17.775  0.00  0.00    +0.000 OA
ATOM     20  H   UNL     1      -1.956  11.432  17.327  0.00  0.00    +0.000 HD
ATOM     21  H   UNL     1      -1.926  12.973  16.478  0.00  0.00    +0.000 HD
ENDBRANCH  15  17
BRANCH   1  23
ATOM     22  C   UNL     1       4.955   6.231  17.308  0.00  0.00    +0.000 C 
ATOM     23  C   UNL     1       3.948   6.566  18.067  0.00  0.00    +0.000 C 
BRANCH  22  25
ATOM     24  C   UNL     1       5.635   5.605  14.996  0.00  0.00    +0.000 C 
ATOM     25  C   UNL     1       6.127   5.841  16.423  0.00  0.00    +0.000 C 
ATOM     26  C   UNL     1       6.803   4.593  16.987  0.00  0.00    +0.000 C 
BRANCH  25  27
ATOM     27  O   UNL     1       7.063   6.915  16.421  0.00  0.00    +0.000 OA
ATOM     28  H   UNL     1       7.685   6.764  17.152  0.00  0.00    +0.000 HD
ENDBRANCH  25  27
ENDBRANCH  22  25
ENDBRANCH   1  23
BRANCH  16  29
ATOM     29  C   UNL     1      -0.502  13.066  21.076  0.00  0.00    +0.000 C 
BRANCH  29  30
ATOM     30  N   UNL     1       0.152  14.252  20.573  0.00  0.00    +0.000 N 
ATOM     31  C   UNL     1       1.246  14.802  21.192  0.00  0.00    +0.000 C 
ATOM     32  O   UNL     1       1.699  14.418  22.267  0.00  0.00    +0.000 OA
ATOM     33  H   UNL     1      -0.184  14.629  19.698  0.00  0.00    +0.000 HD
BRANCH  31  34
ATOM     34  C   UNL     1       1.871  15.933  20.474  0.00  0.00    +0.000 C 
ATOM     35  C   UNL     1       3.382  16.110  20.491  0.00  0.00    +0.000 C 
ATOM     36  C   UNL     1       2.685  15.646  19.269  0.00  0.00    +0.000 C 
ATOM     37  F   UNL     1       2.604  16.470  18.171  0.00  0.00    +0.000 F 
ATOM     38  F   UNL     1       2.870  14.367  18.804  0.00  0.00    +0.000 F 
ENDBRANCH  31  34
ENDBRANCH  29  30
ENDBRANCH  16  29
TORSDOF 7
ENDMDL
MODEL 8
REMARK VINA RESULT:      -7.2      3.766     10.293
REMARK  Name = 
REMARK  9 active torsions:
REMARK  status: ('A' for Active; 'I' for Inactive)
REMARK    1  A    between atoms: C_1  and  C_2
REMARK    2  A    between atoms: C_2  and  C_3
REMARK    3  A    between atoms: C_2  and  O_4
REMARK    4  A    between atoms: C_2  and  C_5
REMARK    5  A    between atoms: C_6  and  C_7
REMARK    6  A    between atoms: C_21  and  C_22
REMARK    7  A    between atoms: C_25  and  C_26
REMARK    8  A    between atoms: C_26  and  N_27
REMARK    9  A    between atoms: C_28  and  C_30
REMARK                            x       y       z     vdW  Elec       q    Type
REMARK                         _______ _______ _______ _____ _____    ______ ____
ROOT
ATOM      1  C   UNL     1       0.539   9.056  19.825  0.00  0.00    +0.000 A 
ATOM      2  C   UNL     1       1.580   8.462  19.106  0.00  0.00    +0.000 A 
ATOM      3  C   UNL     1       2.182   7.282  19.574  0.00  0.00    +0.000 A 
ATOM      4  C   UNL     1       1.719   6.709  20.788  0.00  0.00    +0.000 A 
ATOM      5  C   UNL     1       0.835   7.460  21.590  0.00  0.00    +0.000 A 
ATOM      6  C   UNL     1       0.233   8.604  21.099  0.00  0.00    +0.000 A 
ATOM      7  F   UNL     1      -0.734   9.185  21.825  0.00  0.00    +0.000 F 
ATOM      8  C   UNL     1       1.850   5.166  21.075  0.00  0.00    +0.000 C 
ATOM      9  C   UNL     1       1.297   4.372  19.855  0.00  0.00    +0.000 C 
ATOM     10  C   UNL     1       2.759   4.174  19.391  0.00  0.00    +0.000 C 
ATOM     11  C   UNL     1       3.155   4.376  20.881  0.00  0.00    +0.000 C 
ATOM     12  N   UNL     1       3.348   5.226  18.580  0.00  0.00    +0.000 N 
ATOM     13  C   UNL     1       3.167   6.597  18.707  0.00  0.00    +0.000 A 
ATOM     14  N   UNL     1       4.005   7.230  17.895  0.00  0.00    +0.000 NA
ATOM     15  C   UNL     1       4.714   6.257  17.209  0.00  0.00    +0.000 A 
ATOM     16  C   UNL     1       4.322   4.995  17.623  0.00  0.00    +0.000 A 
ENDROOT
BRANCH  15  17
ATOM     17  C   UNL     1       5.768   6.561  16.240  0.00  0.00    +0.000 C 
ATOM     18  N   UNL     1       7.027   6.542  16.764  0.00  0.00    +0.000 N 
ATOM     19  O   UNL     1       5.577   6.764  15.047  0.00  0.00    +0.000 OA
ATOM     20  H   UNL     1       7.161   6.310  17.741  0.00  0.00    +0.000 HD
ATOM     21  H   UNL     1       7.815   6.702  16.156  0.00  0.00    +0.000 HD
ENDBRANCH  15  17
BRANCH   1  23
ATOM     22  C   UNL     1      -1.069  10.953  18.710  0.00  0.00    +0.000 C 
ATOM     23  C   UNL     1      -0.270  10.062  19.228  0.00  0.00    +0.000 C 
BRANCH  22  25
ATOM     24  C   UNL     1      -2.839  12.630  19.214  0.00  0.00    +0.000 C 
ATOM     25  C   UNL     1      -2.000  11.992  18.109  0.00  0.00    +0.000 C 
ATOM     26  C   UNL     1      -2.887  11.337  17.052  0.00  0.00    +0.000 C 
BRANCH  25  27
ATOM     27  O   UNL     1      -1.206  12.999  17.488  0.00  0.00    +0.000 OA
ATOM     28  H   UNL     1      -1.799  13.726  17.235  0.00  0.00    +0.000 HD
ENDBRANCH  25  27
ENDBRANCH  22  25
ENDBRANCH   1  23
BRANCH  16  29
ATOM     29  C   UNL     1       4.848   3.669  17.216  0.00  0.00    +0.000 C 
BRANCH  29  30
ATOM     30  N   UNL     1       4.893   3.627  15.772  0.00  0.00    +0.000 N 
ATOM     31  C   UNL     1       6.077   3.590  15.079  0.00  0.00    +0.000 C 
ATOM     32  O   UNL     1       7.186   3.697  15.596  0.00  0.00    +0.000 OA
ATOM     33  H   UNL     1       4.012   3.555  15.283  0.00  0.00    +0.000 HD
BRANCH  31  34
ATOM     34  C   UNL     1       5.942   3.417  13.617  0.00  0.00    +0.000 C 
ATOM     35  C   UNL     1       5.263   4.489  12.777  0.00  0.00    +0.000 C 
ATOM     36  C   UNL     1       6.731   4.297  12.722  0.00  0.00    +0.000 C 
ATOM     37  F   UNL     1       7.314   3.782  11.587  0.00  0.00    +0.000 F 
ATOM     38  F   UNL     1       7.579   5.260  13.212  0.00  0.00    +0.000 F 
ENDBRANCH  31  34
ENDBRANCH  29  30
ENDBRANCH  16  29
TORSDOF 7
ENDMDL
MODEL 9
REMARK VINA RESULT:      -7.1      7.163      8.679
REMARK  Name = 
REMARK  9 active torsions:
REMARK  status: ('A' for Active; 'I' for Inactive)
REMARK    1  A    between atoms: C_1  and  C_2
REMARK    2  A    between atoms: C_2  and  C_3
REMARK    3  A    between atoms: C_2  and  O_4
REMARK    4  A    between atoms: C_2  and  C_5
REMARK    5  A    between atoms: C_6  and  C_7
REMARK    6  A    between atoms: C_21  and  C_22
REMARK    7  A    between atoms: C_25  and  C_26
REMARK    8  A    between atoms: C_26  and  N_27
REMARK    9  A    between atoms: C_28  and  C_30
REMARK                            x       y       z     vdW  Elec       q    Type
REMARK                         _______ _______ _______ _____ _____    ______ ____
ROOT
ATOM      1  C   UNL     1       9.393  10.471  19.136  0.00  0.00    +0.000 A 
ATOM      2  C   UNL     1       9.028  10.926  20.406  0.00  0.00    +0.000 A 
ATOM      3  C   UNL     1       9.408  12.209  20.836  0.00  0.00    +0.000 A 
ATOM      4  C   UNL     1      10.168  13.029  19.961  0.00  0.00    +0.000 A 
ATOM      5  C   UNL     1      10.706  12.448  18.794  0.00  0.00    +0.000 A 
ATOM      6  C   UNL     1      10.297  11.195  18.375  0.00  0.00    +0.000 A 
ATOM      7  F   UNL     1      10.694  10.757  17.171  0.00  0.00    +0.000 F 
ATOM      8  C   UNL     1      10.117  14.600  20.051  0.00  0.00    +0.000 C 
ATOM      9  C   UNL     1       8.629  15.061  20.068  0.00  0.00    +0.000 C 
ATOM     10  C   UNL     1       8.750  15.210  21.603  0.00  0.00    +0.000 C 
ATOM     11  C   UNL     1      10.278  15.380  21.366  0.00  0.00    +0.000 C 
ATOM     12  N   UNL     1       8.508  14.024  22.407  0.00  0.00    +0.000 N 
ATOM     13  C   UNL     1       8.869  12.715  22.118  0.00  0.00    +0.000 A 
ATOM     14  N   UNL     1       8.628  11.947  23.174  0.00  0.00    +0.000 NA
ATOM     15  C   UNL     1       8.073  12.763  24.147  0.00  0.00    +0.000 A 
ATOM     16  C   UNL     1       7.992  14.067  23.691  0.00  0.00    +0.000 A 
ENDROOT
BRANCH  15  17
ATOM     17  C   UNL     1       7.701  12.288  25.481  0.00  0.00    +0.000 C 
ATOM     18  N   UNL     1       8.541  12.702  26.472  0.00  0.00    +0.000 N 
ATOM     19  O   UNL     1       6.703  11.623  25.727  0.00  0.00    +0.000 OA
ATOM     20  H   UNL     1       9.325  13.303  26.248  0.00  0.00    +0.000 HD
ATOM     21  H   UNL     1       8.335  12.452  27.427  0.00  0.00    +0.000 HD
ENDBRANCH  15  17
BRANCH   1  23
ATOM     22  C   UNL     1       8.152   8.275  18.103  0.00  0.00    +0.000 C 
ATOM     23  C   UNL     1       8.775   9.318  18.576  0.00  0.00    +0.000 C 
BRANCH  22  25
ATOM     24  C   UNL     1       5.945   7.390  17.365  0.00  0.00    +0.000 C 
ATOM     25  C   UNL     1       7.425   7.060  17.550  0.00  0.00    +0.000 C 
ATOM     26  C   UNL     1       7.612   5.876  18.496  0.00  0.00    +0.000 C 
BRANCH  25  27
ATOM     27  O   UNL     1       7.991   6.737  16.284  0.00  0.00    +0.000 OA
ATOM     28  H   UNL     1       8.669   7.404  16.087  0.00  0.00    +0.000 HD
ENDBRANCH  25  27
ENDBRANCH  22  25
ENDBRANCH   1  23
BRANCH  16  29
ATOM     29  C   UNL     1       7.529  15.283  24.405  0.00  0.00    +0.000 C 
BRANCH  29  30
ATOM     30  N   UNL     1       6.383  15.811  23.700  0.00  0.00    +0.000 N 
ATOM     31  C   UNL     1       5.133  15.259  23.821  0.00  0.00    +0.000 C 
ATOM     32  O   UNL     1       4.889  14.224  24.436  0.00  0.00    +0.000 OA
ATOM     33  H   UNL     1       6.520  16.654  23.161  0.00  0.00    +0.000 HD
BRANCH  31  34
ATOM     34  C   UNL     1       4.051  15.999  23.138  0.00  0.00    +0.000 C 
ATOM     35  C   UNL     1       4.195  16.387  21.673  0.00  0.00    +0.000 C 
ATOM     36  C   UNL     1       3.270  15.305  22.085  0.00  0.00    +0.000 C 
ATOM     37  F   UNL     1       1.910  15.495  22.000  0.00  0.00    +0.000 F 
ATOM     38  F   UNL     1       3.521  14.001  21.735  0.00  0.00    +0.000 F 
ENDBRANCH  31  34
ENDBRANCH  29  30
ENDBRANCH  16  29
TORSDOF 7
ENDMDL
