MODEL 1
REMARK VINA RESULT:      -7.7      0.000      0.000
REMARK  Name = 
REMARK  12 active torsions:
REMARK  status: ('A' for Active; 'I' for Inactive)
REMARK    1  A    between atoms: C_1  and  O_2
REMARK    2  A    between atoms: O_2  and  C_3
REMARK    3  A    between atoms: C_8  and  O_9
REMARK    4  A    between atoms: O_9  and  C_10
REMARK    5  A    between atoms: N_12  and  C_13
REMARK    6  A    between atoms: C_13  and  C_14
REMARK    7  A    between atoms: C_14  and  N_15
REMARK    8  A    between atoms: C_17  and  C_18
REMARK    9  A    between atoms: C_18  and  O_19
REMARK   10  A    between atoms: O_19  and  C_20
REMARK   11  A    between atoms: C_23  and  C_24
REMARK   12  A    between atoms: C_26  and  C_27
REMARK                            x       y       z     vdW  Elec       q    Type
REMARK                         _______ _______ _______ _____ _____    ______ ____
ROOT
ATOM      1  C   UNL     1       6.652   5.064  16.858  0.00  0.00    +0.000 C 
ENDROOT
BRANCH   1   2
ATOM      2  N   UNL     1       7.291   6.180  17.517  0.00  0.00    +0.000 N 
ATOM      3  C   UNL     1       7.373   7.472  17.100  0.00  0.00    +0.000 A 
ATOM      4  C   UNL     1       8.079   8.106  18.093  0.00  0.00    +0.000 A 
ATOM      5  N   UNL     1       8.455   7.181  19.033  0.00  0.00    +0.000 NA
ATOM      6  N   UNL     1       7.976   6.000  18.661  0.00  0.00    +0.000 NA
BRANCH   4   7
ATOM      7  C   UNL     1       8.406   9.547  18.206  0.00  0.00    +0.000 C 
BRANCH   7   8
ATOM      8  O   UNL     1       9.564   9.729  19.023  0.00  0.00    +0.000 OA
BRANCH   8   9
ATOM      9  C   UNL     1       9.670  10.900  19.723  0.00  0.00    +0.000 A 
ATOM     10  C   UNL     1       9.067  11.150  20.957  0.00  0.00    +0.000 A 
ATOM     11  C   UNL     1       9.243  12.380  21.595  0.00  0.00    +0.000 A 
ATOM     12  C   UNL     1      10.021  13.379  21.007  0.00  0.00    +0.000 A 
ATOM     13  C   UNL     1      10.219  14.701  21.686  0.00  0.00    +0.000 C 
ATOM     14  C   UNL     1      10.619  13.132  19.765  0.00  0.00    +0.000 A 
ATOM     15  C   UNL     1      10.450  11.899  19.116  0.00  0.00    +0.000 A 
ATOM     16  C   UNL     1      11.107  11.657  17.784  0.00  0.00    +0.000 C 
ENDBRANCH   8   9
ENDBRANCH   7   8
ENDBRANCH   4   7
ENDBRANCH   1   2
BRANCH   1  17
ATOM     17  C   UNL     1       5.151   4.935  17.168  0.00  0.00    +0.000 C 
BRANCH  17  25
ATOM     18  C   UNL     1       0.893   8.413  20.548  0.00  0.00    +0.000 A 
ATOM     19  C   UNL     1       1.426   7.127  20.714  0.00  0.00    +0.000 A 
ATOM     20  C   UNL     1       2.298   6.599  19.762  0.00  0.00    +0.000 A 
ATOM     21  C   UNL     1       2.628   7.351  18.629  0.00  0.00    +0.000 A 
ATOM     22  C   UNL     1       2.113   8.644  18.471  0.00  0.00    +0.000 A 
ATOM     23  C   UNL     1       1.256   9.195  19.433  0.00  0.00    +0.000 A 
ATOM     24  C   UNL     1       3.482   6.691  17.576  0.00  0.00    +0.000 C 
ATOM     25  N   UNL     1       4.621   5.930  18.116  0.00  0.00    +0.000 NA
ATOM     26  C   UNL     1       4.412   5.372  19.466  0.00  0.00    +0.000 C 
ATOM     27  C   UNL     1       2.946   5.249  19.902  0.00  0.00    +0.000 C 
BRANCH  18  29
ATOM     28  C   UNL     1       0.721   9.415  22.695  0.00  0.00    +0.000 C 
ATOM     29  O   UNL     1       0.080   8.792  21.589  0.00  0.00    +0.000 OA
ENDBRANCH  18  29
BRANCH  23  30
ATOM     30  O   UNL     1       0.763  10.470  19.359  0.00  0.00    +0.000 OA
ATOM     31  C   UNL     1      -0.433  10.693  18.627  0.00  0.00    +0.000 C 
ENDBRANCH  23  30
ENDBRANCH  17  25
ENDBRANCH   1  17
TORSDOF 8
ENDMDL
MODEL 2
REMARK VINA RESULT:      -7.7      3.236      9.945
REMARK  Name = 
REMARK  12 active torsions:
REMARK  status: ('A' for Active; 'I' for Inactive)
REMARK    1  A    between atoms: C_1  and  O_2
REMARK    2  A    between atoms: O_2  and  C_3
REMARK    3  A    between atoms: C_8  and  O_9
REMARK    4  A    between atoms: O_9  and  C_10
REMARK    5  A    between atoms: N_12  and  C_13
REMARK    6  A    between atoms: C_13  and  C_14
REMARK    7  A    between atoms: C_14  and  N_15
REMARK    8  A    between atoms: C_17  and  C_18
REMARK    9  A    between atoms: C_18  and  O_19
REMARK   10  A    between atoms: O_19  and  C_20
REMARK   11  A    between atoms: C_23  and  C_24
REMARK   12  A    between atoms: C_26  and  C_27
REMARK                            x       y       z     vdW  Elec       q    Type
REMARK                         _______ _______ _______ _____ _____    ______ ____
ROOT
ATOM      1  C   UNL     1       8.957   8.989  18.654  0.00  0.00    +0.000 C 
ENDROOT
BRANCH   1   2
ATOM      2  N   UNL     1       8.161   7.874  18.192  0.00  0.00    +0.000 N 
ATOM      3  C   UNL     1       7.985   6.661  18.781  0.00  0.00    +0.000 A 
ATOM      4  C   UNL     1       7.140   5.990  17.930  0.00  0.00    +0.000 A 
ATOM      5  N   UNL     1       6.889   6.778  16.837  0.00  0.00    +0.000 NA
ATOM      6  N   UNL     1       7.531   7.928  17.003  0.00  0.00    +0.000 NA
BRANCH   4   7
ATOM      7  C   UNL     1       6.547   4.643  18.105  0.00  0.00    +0.000 C 
BRANCH   7   8
ATOM      8  O   UNL     1       5.702   4.622  19.257  0.00  0.00    +0.000 OA
BRANCH   8   9
ATOM      9  C   UNL     1       4.499   3.978  19.150  0.00  0.00    +0.000 A 
ATOM     10  C   UNL     1       4.318   2.599  19.279  0.00  0.00    +0.000 A 
ATOM     11  C   UNL     1       3.044   2.038  19.159  0.00  0.00    +0.000 A 
ATOM     12  C   UNL     1       1.934   2.847  18.906  0.00  0.00    +0.000 A 
ATOM     13  C   UNL     1       0.563   2.256  18.780  0.00  0.00    +0.000 C 
ATOM     14  C   UNL     1       2.117   4.229  18.768  0.00  0.00    +0.000 A 
ATOM     15  C   UNL     1       3.392   4.803  18.888  0.00  0.00    +0.000 A 
ATOM     16  C   UNL     1       3.561   6.291  18.741  0.00  0.00    +0.000 C 
ENDBRANCH   8   9
ENDBRANCH   7   8
ENDBRANCH   4   7
ENDBRANCH   1   2
BRANCH   1  17
ATOM     17  C   UNL     1       8.422  10.361  18.213  0.00  0.00    +0.000 C 
BRANCH  17  25
ATOM     18  C   UNL     1      11.450  15.928  19.432  0.00  0.00    +0.000 A 
ATOM     19  C   UNL     1      11.423  14.689  20.088  0.00  0.00    +0.000 A 
ATOM     20  C   UNL     1      10.602  13.664  19.620  0.00  0.00    +0.000 A 
ATOM     21  C   UNL     1       9.792  13.879  18.499  0.00  0.00    +0.000 A 
ATOM     22  C   UNL     1       9.832  15.109  17.830  0.00  0.00    +0.000 A 
ATOM     23  C   UNL     1      10.673  16.139  18.277  0.00  0.00    +0.000 A 
ATOM     24  C   UNL     1       8.839  12.779  18.102  0.00  0.00    +0.000 C 
ATOM     25  N   UNL     1       9.431  11.431  18.136  0.00  0.00    +0.000 NA
ATOM     26  C   UNL     1      10.520  11.255  19.115  0.00  0.00    +0.000 C 
ATOM     27  C   UNL     1      10.561  12.296  20.242  0.00  0.00    +0.000 C 
BRANCH  18  29
ATOM     28  C   UNL     1      11.809  17.664  21.014  0.00  0.00    +0.000 C 
ATOM     29  O   UNL     1      12.333  16.813  20.002  0.00  0.00    +0.000 OA
ENDBRANCH  18  29
BRANCH  23  30
ATOM     30  O   UNL     1      10.793  17.342  17.636  0.00  0.00    +0.000 OA
ATOM     31  C   UNL     1       9.785  18.321  17.834  0.00  0.00    +0.000 C 
ENDBRANCH  23  30
ENDBRANCH  17  25
ENDBRANCH   1  17
TORSDOF 8
ENDMDL
MODEL 3
REMARK VINA RESULT:      -7.4      3.339      9.688
REMARK  Name = 
REMARK  12 active torsions:
REMARK  status: ('A' for Active; 'I' for Inactive)
REMARK    1  A    between atoms: C_1  and  O_2
REMARK    2  A    between atoms: O_2  and  C_3
REMARK    3  A    between atoms: C_8  and  O_9
REMARK    4  A    between atoms: O_9  and  C_10
REMARK    5  A    between atoms: N_12  and  C_13
REMARK    6  A    between atoms: C_13  and  C_14
REMARK    7  A    between atoms: C_14  and  N_15
REMARK    8  A    between atoms: C_17  and  C_18
REMARK    9  A    between atoms: C_18  and  O_19
REMARK   10  A    between atoms: O_19  and  C_20
REMARK   11  A    between atoms: C_23  and  C_24
REMARK   12  A    between atoms: C_26  and  C_27
REMARK                            x       y       z     vdW  Elec       q    Type
REMARK                         _______ _______ _______ _____ _____    ______ ____
ROOT
ATOM      1  C   UNL     1       8.608   8.373  18.565  0.00  0.00    +0.000 C 
ENDROOT
BRANCH   1   2
ATOM      2  N   UNL     1       7.736   7.373  17.992  0.00  0.00    +0.000 N 
ATOM      3  C   UNL     1       7.431   6.141  18.479  0.00  0.00    +0.000 A 
ATOM      4  C   UNL     1       6.565   5.613  17.551  0.00  0.00    +0.000 A 
ATOM      5  N   UNL     1       6.427   6.500  16.515  0.00  0.00    +0.000 NA
ATOM      6  N   UNL     1       7.161   7.571  16.791  0.00  0.00    +0.000 NA
BRANCH   4   7
ATOM      7  C   UNL     1       5.850   4.316  17.602  0.00  0.00    +0.000 C 
BRANCH   7   8
ATOM      8  O   UNL     1       4.438   4.527  17.528  0.00  0.00    +0.000 OA
BRANCH   8   9
ATOM      9  C   UNL     1       3.687   4.190  18.621  0.00  0.00    +0.000 A 
ATOM     10  C   UNL     1       3.410   5.041  19.693  0.00  0.00    +0.000 A 
ATOM     11  C   UNL     1       2.625   4.601  20.761  0.00  0.00    +0.000 A 
ATOM     12  C   UNL     1       2.109   3.304  20.775  0.00  0.00    +0.000 A 
ATOM     13  C   UNL     1       1.261   2.824  21.915  0.00  0.00    +0.000 C 
ATOM     14  C   UNL     1       2.394   2.447  19.704  0.00  0.00    +0.000 A 
ATOM     15  C   UNL     1       3.180   2.879  18.625  0.00  0.00    +0.000 A 
ATOM     16  C   UNL     1       3.467   1.940  17.484  0.00  0.00    +0.000 C 
ENDBRANCH   8   9
ENDBRANCH   7   8
ENDBRANCH   4   7
ENDBRANCH   1   2
BRANCH   1  17
ATOM     17  C   UNL     1       8.473   9.761  17.916  0.00  0.00    +0.000 C 
BRANCH  17  25
ATOM     18  C   UNL     1      10.995  15.278  20.118  0.00  0.00    +0.000 A 
ATOM     19  C   UNL     1      10.431  14.163  20.752  0.00  0.00    +0.000 A 
ATOM     20  C   UNL     1       9.892  13.122  19.997  0.00  0.00    +0.000 A 
ATOM     21  C   UNL     1       9.901  13.200  18.600  0.00  0.00    +0.000 A 
ATOM     22  C   UNL     1      10.482  14.305  17.962  0.00  0.00    +0.000 A 
ATOM     23  C   UNL     1      11.050  15.345  18.711  0.00  0.00    +0.000 A 
ATOM     24  C   UNL     1       9.204  12.105  17.832  0.00  0.00    +0.000 C 
ATOM     25  N   UNL     1       9.481  10.749  18.337  0.00  0.00    +0.000 NA
ATOM     26  C   UNL     1       9.784  10.671  19.778  0.00  0.00    +0.000 C 
ATOM     27  C   UNL     1       9.318  11.874  20.610  0.00  0.00    +0.000 C 
BRANCH  18  29
ATOM     28  C   UNL     1      10.852  16.289  22.262  0.00  0.00    +0.000 C 
ATOM     29  O   UNL     1      11.508  16.194  21.005  0.00  0.00    +0.000 OA
ENDBRANCH  18  29
BRANCH  23  30
ATOM     30  O   UNL     1      11.676  16.423  18.146  0.00  0.00    +0.000 OA
ATOM     31  C   UNL     1      10.887  17.533  17.745  0.00  0.00    +0.000 C 
ENDBRANCH  23  30
ENDBRANCH  17  25
ENDBRANCH   1  17
TORSDOF 8
ENDMDL
MODEL 4
REMARK VINA RESULT:      -7.3      3.872      7.463
REMARK  Name = 
REMARK  12 active torsions:
REMARK  status: ('A' for Active; 'I' for Inactive)
REMARK    1  A    between atoms: C_1  and  O_2
REMARK    2  A    between atoms: O_2  and  C_3
REMARK    3  A    between atoms: C_8  and  O_9
REMARK    4  A    between atoms: O_9  and  C_10
REMARK    5  A    between atoms: N_12  and  C_13
REMARK    6  A    between atoms: C_13  and  C_14
REMARK    7  A    between atoms: C_14  and  N_15
REMARK    8  A    between atoms: C_17  and  C_18
REMARK    9  A    between atoms: C_18  and  O_19
REMARK   10  A    between atoms: O_19  and  C_20
REMARK   11  A    between atoms: C_23  and  C_24
REMARK   12  A    between atoms: C_26  and  C_27
REMARK                            x       y       z     vdW  Elec       q    Type
REMARK                         _______ _______ _______ _____ _____    ______ ____
ROOT
ATOM      1  C   UNL     1       1.376   2.726  18.803  0.00  0.00    +0.000 C 
ENDROOT
BRANCH   1   2
ATOM      2  N   UNL     1       1.548   3.843  19.705  0.00  0.00    +0.000 N 
ATOM      3  C   UNL     1       1.559   5.170  19.410  0.00  0.00    +0.000 A 
ATOM      4  C   UNL     1       1.753   5.786  20.623  0.00  0.00    +0.000 A 
ATOM      5  N   UNL     1       1.917   4.827  21.589  0.00  0.00    +0.000 NA
ATOM      6  N   UNL     1       1.802   3.638  21.010  0.00  0.00    +0.000 NA
BRANCH   4   7
ATOM      7  C   UNL     1       1.776   7.238  20.918  0.00  0.00    +0.000 C 
BRANCH   7   8
ATOM      8  O   UNL     1       0.898   7.936  20.033  0.00  0.00    +0.000 OA
BRANCH   8   9
ATOM      9  C   UNL     1       1.008   9.299  19.973  0.00  0.00    +0.000 A 
ATOM     10  C   UNL     1       0.735  10.169  21.031  0.00  0.00    +0.000 A 
ATOM     11  C   UNL     1       0.885  11.549  20.870  0.00  0.00    +0.000 A 
ATOM     12  C   UNL     1       1.306  12.078  19.648  0.00  0.00    +0.000 A 
ATOM     13  C   UNL     1       1.475  13.556  19.467  0.00  0.00    +0.000 C 
ATOM     14  C   UNL     1       1.572  11.206  18.585  0.00  0.00    +0.000 A 
ATOM     15  C   UNL     1       1.426   9.818  18.736  0.00  0.00    +0.000 A 
ATOM     16  C   UNL     1       1.723   8.903  17.579  0.00  0.00    +0.000 C 
ENDBRANCH   8   9
ENDBRANCH   7   8
ENDBRANCH   4   7
ENDBRANCH   1   2
BRANCH   1  17
ATOM     17  C   UNL     1       2.552   1.734  18.812  0.00  0.00    +0.000 C 
BRANCH  17  25
ATOM     18  C   UNL     1       6.865   5.970  16.552  0.00  0.00    +0.000 A 
ATOM     19  C   UNL     1       6.339   5.727  17.829  0.00  0.00    +0.000 A 
ATOM     20  C   UNL     1       5.344   4.767  18.009  0.00  0.00    +0.000 A 
ATOM     21  C   UNL     1       4.858   4.055  16.907  0.00  0.00    +0.000 A 
ATOM     22  C   UNL     1       5.395   4.281  15.633  0.00  0.00    +0.000 A 
ATOM     23  C   UNL     1       6.414   5.225  15.444  0.00  0.00    +0.000 A 
ATOM     24  C   UNL     1       3.704   3.112  17.136  0.00  0.00    +0.000 C 
ATOM     25  N   UNL     1       3.837   2.283  18.346  0.00  0.00    +0.000 NA
ATOM     26  C   UNL     1       4.621   2.894  19.435  0.00  0.00    +0.000 C 
ATOM     27  C   UNL     1       4.772   4.419  19.356  0.00  0.00    +0.000 C 
BRANCH  18  29
ATOM     28  C   UNL     1       7.787   7.901  17.583  0.00  0.00    +0.000 C 
ATOM     29  O   UNL     1       7.857   6.920  16.556  0.00  0.00    +0.000 OA
ENDBRANCH  18  29
BRANCH  23  30
ATOM     30  O   UNL     1       7.013   5.454  14.235  0.00  0.00    +0.000 OA
ATOM     31  C   UNL     1       6.921   4.453  13.231  0.00  0.00    +0.000 C 
ENDBRANCH  23  30
ENDBRANCH  17  25
ENDBRANCH   1  17
TORSDOF 8
ENDMDL
MODEL 5
REMARK VINA RESULT:      -7.3      5.441      8.381
REMARK  Name = 
REMARK  12 active torsions:
REMARK  status: ('A' for Active; 'I' for Inactive)
REMARK    1  A    between atoms: C_1  and  O_2
REMARK    2  A    between atoms: O_2  and  C_3
REMARK    3  A    between atoms: C_8  and  O_9
REMARK    4  A    between atoms: O_9  and  C_10
REMARK    5  A    between atoms: N_12  and  C_13
REMARK    6  A    between atoms: C_13  and  C_14
REMARK    7  A    between atoms: C_14  and  N_15
REMARK    8  A    between atoms: C_17  and  C_18
REMARK    9  A    between atoms: C_18  and  O_19
REMARK   10  A    between atoms: O_19  and  C_20
REMARK   11  A    between atoms: C_23  and  C_24
REMARK   12  A    between atoms: C_26  and  C_27
REMARK                            x       y       z     vdW  Elec       q    Type
REMARK                         _______ _______ _______ _____ _____    ______ ____
ROOT
ATOM      1  C   UNL     1       1.298   9.760  18.025  0.00  0.00    +0.000 C 
ENDROOT
BRANCH   1   2
ATOM      2  N   UNL     1       1.682   8.634  18.848  0.00  0.00    +0.000 N 
ATOM      3  C   UNL     1       2.223   7.450  18.457  0.00  0.00    +0.000 A 
ATOM      4  C   UNL     1       2.392   6.751  19.627  0.00  0.00    +0.000 A 
ATOM      5  N   UNL     1       1.896   7.494  20.666  0.00  0.00    +0.000 NA
ATOM      6  N   UNL     1       1.450   8.643  20.173  0.00  0.00    +0.000 NA
BRANCH   4   7
ATOM      7  C   UNL     1       3.014   5.418  19.815  0.00  0.00    +0.000 C 
BRANCH   7   8
ATOM      8  O   UNL     1       4.410   5.478  19.515  0.00  0.00    +0.000 OA
BRANCH   8   9
ATOM      9  C   UNL     1       4.792   5.247  18.222  0.00  0.00    +0.000 A 
ATOM     10  C   UNL     1       5.314   6.213  17.358  0.00  0.00    +0.000 A 
ATOM     11  C   UNL     1       5.681   5.873  16.054  0.00  0.00    +0.000 A 
ATOM     12  C   UNL     1       5.529   4.564  15.594  0.00  0.00    +0.000 A 
ATOM     13  C   UNL     1       5.925   4.188  14.197  0.00  0.00    +0.000 C 
ATOM     14  C   UNL     1       4.998   3.596  16.456  0.00  0.00    +0.000 A 
ATOM     15  C   UNL     1       4.627   3.927  17.769  0.00  0.00    +0.000 A 
ATOM     16  C   UNL     1       4.064   2.868  18.677  0.00  0.00    +0.000 C 
ENDBRANCH   8   9
ENDBRANCH   7   8
ENDBRANCH   4   7
ENDBRANCH   1   2
BRANCH   1  17
ATOM     17  C   UNL     1       0.547  10.862  18.792  0.00  0.00    +0.000 C 
BRANCH  17  25
ATOM     18  C   UNL     1      -5.736  12.181  18.139  0.00  0.00    +0.000 A 
ATOM     19  C   UNL     1      -4.761  11.704  17.253  0.00  0.00    +0.000 A 
ATOM     20  C   UNL     1      -3.435  11.579  17.667  0.00  0.00    +0.000 A 
ATOM     21  C   UNL     1      -3.076  11.946  18.968  0.00  0.00    +0.000 A 
ATOM     22  C   UNL     1      -4.052  12.404  19.863  0.00  0.00    +0.000 A 
ATOM     23  C   UNL     1      -5.392  12.510  19.465  0.00  0.00    +0.000 A 
ATOM     24  C   UNL     1      -1.613  11.901  19.330  0.00  0.00    +0.000 C 
ATOM     25  N   UNL     1      -0.914  10.694  18.857  0.00  0.00    +0.000 NA
ATOM     26  C   UNL     1      -1.472  10.092  17.631  0.00  0.00    +0.000 C 
ATOM     27  C   UNL     1      -2.348  11.027  16.786  0.00  0.00    +0.000 C 
BRANCH  18  29
ATOM     28  C   UNL     1      -7.386  13.438  16.982  0.00  0.00    +0.000 C 
ATOM     29  O   UNL     1      -6.993  12.211  17.583  0.00  0.00    +0.000 OA
ENDBRANCH  18  29
BRANCH  23  30
ATOM     30  O   UNL     1      -6.398  12.902  20.307  0.00  0.00    +0.000 OA
ATOM     31  C   UNL     1      -7.021  11.921  21.124  0.00  0.00    +0.000 C 
ENDBRANCH  23  30
ENDBRANCH  17  25
ENDBRANCH   1  17
TORSDOF 8
ENDMDL
MODEL 6
REMARK VINA RESULT:      -7.3      4.527      7.941
REMARK  Name = 
REMARK  12 active torsions:
REMARK  status: ('A' for Active; 'I' for Inactive)
REMARK    1  A    between atoms: C_1  and  O_2
REMARK    2  A    between atoms: O_2  and  C_3
REMARK    3  A    between atoms: C_8  and  O_9
REMARK    4  A    between atoms: O_9  and  C_10
REMARK    5  A    between atoms: N_12  and  C_13
REMARK    6  A    between atoms: C_13  and  C_14
REMARK    7  A    between atoms: C_14  and  N_15
REMARK    8  A    between atoms: C_17  and  C_18
REMARK    9  A    between atoms: C_18  and  O_19
REMARK   10  A    between atoms: O_19  and  C_20
REMARK   11  A    between atoms: C_23  and  C_24
REMARK   12  A    between atoms: C_26  and  C_27
REMARK                            x       y       z     vdW  Elec       q    Type
REMARK                         _______ _______ _______ _____ _____    ______ ____
ROOT
ATOM      1  C   UNL     1       1.970   9.101  17.928  0.00  0.00    +0.000 C 
ENDROOT
BRANCH   1   2
ATOM      2  N   UNL     1       2.200   7.870  18.652  0.00  0.00    +0.000 N 
ATOM      3  C   UNL     1       2.607   6.668  18.163  0.00  0.00    +0.000 A 
ATOM      4  C   UNL     1       2.666   5.855  19.269  0.00  0.00    +0.000 A 
ATOM      5  N   UNL     1       2.236   6.558  20.364  0.00  0.00    +0.000 NA
ATOM      6  N   UNL     1       1.940   7.791  19.970  0.00  0.00    +0.000 NA
BRANCH   4   7
ATOM      7  C   UNL     1       3.122   4.446  19.344  0.00  0.00    +0.000 C 
BRANCH   7   8
ATOM      8  O   UNL     1       4.547   4.384  19.262  0.00  0.00    +0.000 OA
BRANCH   8   9
ATOM      9  C   UNL     1       5.114   4.435  18.018  0.00  0.00    +0.000 A 
ATOM     10  C   UNL     1       4.541   3.911  16.857  0.00  0.00    +0.000 A 
ATOM     11  C   UNL     1       5.200   4.020  15.630  0.00  0.00    +0.000 A 
ATOM     12  C   UNL     1       6.442   4.652  15.547  0.00  0.00    +0.000 A 
ATOM     13  C   UNL     1       7.155   4.779  14.234  0.00  0.00    +0.000 C 
ATOM     14  C   UNL     1       7.022   5.171  16.712  0.00  0.00    +0.000 A 
ATOM     15  C   UNL     1       6.368   5.067  17.950  0.00  0.00    +0.000 A 
ATOM     16  C   UNL     1       7.009   5.637  19.186  0.00  0.00    +0.000 C 
ENDBRANCH   8   9
ENDBRANCH   7   8
ENDBRANCH   4   7
ENDBRANCH   1   2
BRANCH   1  17
ATOM     17  C   UNL     1       0.877   9.989  18.545  0.00  0.00    +0.000 C 
BRANCH  17  25
ATOM     18  C   UNL     1       2.497  16.234  18.692  0.00  0.00    +0.000 A 
ATOM     19  C   UNL     1       1.270  15.561  18.771  0.00  0.00    +0.000 A 
ATOM     20  C   UNL     1       1.219  14.174  18.638  0.00  0.00    +0.000 A 
ATOM     21  C   UNL     1       2.396  13.454  18.408  0.00  0.00    +0.000 A 
ATOM     22  C   UNL     1       3.627  14.122  18.348  0.00  0.00    +0.000 A 
ATOM     23  C   UNL     1       3.693  15.513  18.506  0.00  0.00    +0.000 A 
ATOM     24  C   UNL     1       2.274  11.972  18.157  0.00  0.00    +0.000 C 
ATOM     25  N   UNL     1       1.344  11.284  19.069  0.00  0.00    +0.000 NA
ATOM     26  C   UNL     1       0.243  12.120  19.582  0.00  0.00    +0.000 C 
ATOM     27  C   UNL     1      -0.054  13.383  18.763  0.00  0.00    +0.000 C 
BRANCH  18  29
ATOM     28  C   UNL     1       1.098  18.057  19.292  0.00  0.00    +0.000 C 
ATOM     29  O   UNL     1       2.375  17.590  18.876  0.00  0.00    +0.000 OA
ENDBRANCH  18  29
BRANCH  23  30
ATOM     30  O   UNL     1       4.869  16.214  18.508  0.00  0.00    +0.000 OA
ATOM     31  C   UNL     1       5.586  16.334  19.728  0.00  0.00    +0.000 C 
ENDBRANCH  23  30
ENDBRANCH  17  25
ENDBRANCH   1  17
TORSDOF 8
ENDMDL
MODEL 7
REMARK VINA RESULT:      -7.2      3.359      9.305
REMARK  Name = 
REMARK  12 active torsions:
REMARK  status: ('A' for Active; 'I' for Inactive)
REMARK    1  A    between atoms: C_1  and  O_2
REMARK    2  A    between atoms: O_2  and  C_3
REMARK    3  A    between atoms: C_8  and  O_9
REMARK    4  A    between atoms: O_9  and  C_10
REMARK    5  A    between atoms: N_12  and  C_13
REMARK    6  A    between atoms: C_13  and  C_14
REMARK    7  A    between atoms: C_14  and  N_15
REMARK    8  A    between atoms: C_17  and  C_18
REMARK    9  A    between atoms: C_18  and  O_19
REMARK   10  A    between atoms: O_19  and  C_20
REMARK   11  A    between atoms: C_23  and  C_24
REMARK   12  A    between atoms: C_26  and  C_27
REMARK                            x       y       z     vdW  Elec       q    Type
REMARK                         _______ _______ _______ _____ _____    ______ ____
ROOT
ATOM      1  C   UNL     1       8.559   8.605  18.987  0.00  0.00    +0.000 C 
ENDROOT
BRANCH   1   2
ATOM      2  N   UNL     1       8.022   7.542  18.167  0.00  0.00    +0.000 N 
ATOM      3  C   UNL     1       7.602   6.308  18.555  0.00  0.00    +0.000 A 
ATOM      4  C   UNL     1       7.191   5.708  17.390  0.00  0.00    +0.000 A 
ATOM      5  N   UNL     1       7.433   6.556  16.341  0.00  0.00    +0.000 NA
ATOM      6  N   UNL     1       7.957   7.674  16.829  0.00  0.00    +0.000 NA
BRANCH   4   7
ATOM      7  C   UNL     1       6.566   4.374  17.220  0.00  0.00    +0.000 C 
BRANCH   7   8
ATOM      8  O   UNL     1       5.268   4.508  16.637  0.00  0.00    +0.000 OA
BRANCH   8   9
ATOM      9  C   UNL     1       4.192   4.123  17.389  0.00  0.00    +0.000 A 
ATOM     10  C   UNL     1       3.838   2.799  17.658  0.00  0.00    +0.000 A 
ATOM     11  C   UNL     1       2.721   2.510  18.445  0.00  0.00    +0.000 A 
ATOM     12  C   UNL     1       1.939   3.541  18.971  0.00  0.00    +0.000 A 
ATOM     13  C   UNL     1       0.741   3.241  19.821  0.00  0.00    +0.000 C 
ATOM     14  C   UNL     1       2.288   4.868  18.694  0.00  0.00    +0.000 A 
ATOM     15  C   UNL     1       3.409   5.170  17.906  0.00  0.00    +0.000 A 
ATOM     16  C   UNL     1       3.766   6.605  17.628  0.00  0.00    +0.000 C 
ENDBRANCH   8   9
ENDBRANCH   7   8
ENDBRANCH   4   7
ENDBRANCH   1   2
BRANCH   1  17
ATOM     17  C   UNL     1       9.110   9.794  18.180  0.00  0.00    +0.000 C 
BRANCH  17  25
ATOM     18  C   UNL     1      10.110  14.940  21.943  0.00  0.00    +0.000 A 
ATOM     19  C   UNL     1      10.646  14.535  20.712  0.00  0.00    +0.000 A 
ATOM     20  C   UNL     1      10.283  13.308  20.158  0.00  0.00    +0.000 A 
ATOM     21  C   UNL     1       9.392  12.473  20.840  0.00  0.00    +0.000 A 
ATOM     22  C   UNL     1       8.839  12.884  22.060  0.00  0.00    +0.000 A 
ATOM     23  C   UNL     1       9.177  14.126  22.615  0.00  0.00    +0.000 A 
ATOM     24  C   UNL     1       9.120  11.110  20.254  0.00  0.00    +0.000 C 
ATOM     25  N   UNL     1       8.906  11.115  18.797  0.00  0.00    +0.000 NA
ATOM     26  C   UNL     1       9.601  12.194  18.069  0.00  0.00    +0.000 C 
ATOM     27  C   UNL     1      10.778  12.834  18.819  0.00  0.00    +0.000 C 
BRANCH  18  29
ATOM     28  C   UNL     1       9.850  17.296  21.781  0.00  0.00    +0.000 C 
ATOM     29  O   UNL     1      10.546  16.184  22.330  0.00  0.00    +0.000 OA
ENDBRANCH  18  29
BRANCH  23  30
ATOM     30  O   UNL     1       8.632  14.604  23.776  0.00  0.00    +0.000 OA
ATOM     31  C   UNL     1       8.587  13.748  24.908  0.00  0.00    +0.000 C 
ENDBRANCH  23  30
ENDBRANCH  17  25
ENDBRANCH   1  17
TORSDOF 8
ENDMDL
MODEL 8
REMARK VINA RESULT:      -7.2      2.743      8.939
REMARK  Name = 
REMARK  12 active torsions:
REMARK  status: ('A' for Active; 'I' for Inactive)
REMARK    1  A    between atoms: C_1  and  O_2
REMARK    2  A    between atoms: O_2  and  C_3
REMARK    3  A    between atoms: C_8  and  O_9
REMARK    4  A    between atoms: O_9  and  C_10
REMARK    5  A    between atoms: N_12  and  C_13
REMARK    6  A    between atoms: C_13  and  C_14
REMARK    7  A    between atoms: C_14  and  N_15
REMARK    8  A    between atoms: C_17  and  C_18
REMARK    9  A    between atoms: C_18  and  O_19
REMARK   10  A    between atoms: O_19  and  C_20
REMARK   11  A    between atoms: C_23  and  C_24
REMARK   12  A    between atoms: C_26  and  C_27
REMARK                            x       y       z     vdW  Elec       q    Type
REMARK                         _______ _______ _______ _____ _____    ______ ____
ROOT
ATOM      1  C   UNL     1       8.668   8.337  18.628  0.00  0.00    +0.000 C 
ENDROOT
BRANCH   1   2
ATOM      2  N   UNL     1       7.896   7.272  18.028  0.00  0.00    +0.000 N 
ATOM      3  C   UNL     1       7.264   6.238  18.645  0.00  0.00    +0.000 A 
ATOM      4  C   UNL     1       6.687   5.531  17.618  0.00  0.00    +0.000 A 
ATOM      5  N   UNL     1       7.038   6.110  16.426  0.00  0.00    +0.000 NA
ATOM      6  N   UNL     1       7.791   7.171  16.690  0.00  0.00    +0.000 NA
BRANCH   4   7
ATOM      7  C   UNL     1       5.808   4.341  17.708  0.00  0.00    +0.000 C 
BRANCH   7   8
ATOM      8  O   UNL     1       4.474   4.682  17.327  0.00  0.00    +0.000 OA
BRANCH   8   9
ATOM      9  C   UNL     1       3.675   5.270  18.269  0.00  0.00    +0.000 A 
ATOM     10  C   UNL     1       3.184   4.631  19.410  0.00  0.00    +0.000 A 
ATOM     11  C   UNL     1       2.379   5.323  20.318  0.00  0.00    +0.000 A 
ATOM     12  C   UNL     1       2.051   6.662  20.097  0.00  0.00    +0.000 A 
ATOM     13  C   UNL     1       1.191   7.414  21.068  0.00  0.00    +0.000 C 
ATOM     14  C   UNL     1       2.535   7.301  18.949  0.00  0.00    +0.000 A 
ATOM     15  C   UNL     1       3.346   6.615  18.031  0.00  0.00    +0.000 A 
ATOM     16  C   UNL     1       3.859   7.326  16.808  0.00  0.00    +0.000 C 
ENDBRANCH   8   9
ENDBRANCH   7   8
ENDBRANCH   4   7
ENDBRANCH   1   2
BRANCH   1  17
ATOM     17  C   UNL     1       8.366   9.728  18.045  0.00  0.00    +0.000 C 
BRANCH  17  25
ATOM     18  C   UNL     1      10.655  15.405  20.089  0.00  0.00    +0.000 A 
ATOM     19  C   UNL     1      10.202  14.259  20.757  0.00  0.00    +0.000 A 
ATOM     20  C   UNL     1       9.687  13.183  20.035  0.00  0.00    +0.000 A 
ATOM     21  C   UNL     1       9.608  13.254  18.640  0.00  0.00    +0.000 A 
ATOM     22  C   UNL     1      10.080  14.390  17.968  0.00  0.00    +0.000 A 
ATOM     23  C   UNL     1      10.623  15.468  18.682  0.00  0.00    +0.000 A 
ATOM     24  C   UNL     1       8.940  12.113  17.916  0.00  0.00    +0.000 C 
ATOM     25  N   UNL     1       9.331  10.780  18.405  0.00  0.00    +0.000 NA
ATOM     26  C   UNL     1       9.723  10.729  19.826  0.00  0.00    +0.000 C 
ATOM     27  C   UNL     1       9.230  11.904  20.682  0.00  0.00    +0.000 C 
BRANCH  18  29
ATOM     28  C   UNL     1      10.852  16.192  22.321  0.00  0.00    +0.000 C 
ATOM     29  O   UNL     1      11.160  16.356  20.943  0.00  0.00    +0.000 OA
ENDBRANCH  18  29
BRANCH  23  30
ATOM     30  O   UNL     1      11.145  16.581  18.080  0.00  0.00    +0.000 OA
ATOM     31  C   UNL     1      10.252  17.522  17.502  0.00  0.00    +0.000 C 
ENDBRANCH  23  30
ENDBRANCH  17  25
ENDBRANCH   1  17
TORSDOF 8
ENDMDL
MODEL 9
REMARK VINA RESULT:      -7.2      3.768      8.019
REMARK  Name = 
REMARK  12 active torsions:
REMARK  status: ('A' for Active; 'I' for Inactive)
REMARK    1  A    between atoms: C_1  and  O_2
REMARK    2  A    between atoms: O_2  and  C_3
REMARK    3  A    between atoms: C_8  and  O_9
REMARK    4  A    between atoms: O_9  and  C_10
REMARK    5  A    between atoms: N_12  and  C_13
REMARK    6  A    between atoms: C_13  and  C_14
REMARK    7  A    between atoms: C_14  and  N_15
REMARK    8  A    between atoms: C_17  and  C_18
REMARK    9  A    between atoms: C_18  and  O_19
REMARK   10  A    between atoms: O_19  and  C_20
REMARK   11  A    between atoms: C_23  and  C_24
REMARK   12  A    between atoms: C_26  and  C_27
REMARK                            x       y       z     vdW  Elec       q    Type
REMARK                         _______ _______ _______ _____ _____    ______ ____
ROOT
ATOM      1  C   UNL     1       1.329   3.053  18.806  0.00  0.00    +0.000 C 
ENDROOT
BRANCH   1   2
ATOM      2  N   UNL     1       1.485   4.223  19.642  0.00  0.00    +0.000 N 
ATOM      3  C   UNL     1       1.670   5.514  19.259  0.00  0.00    +0.000 A 
ATOM      4  C   UNL     1       1.754   6.210  20.441  0.00  0.00    +0.000 A 
ATOM      5  N   UNL     1       1.687   5.325  21.485  0.00  0.00    +0.000 NA
ATOM      6  N   UNL     1       1.535   4.106  20.982  0.00  0.00    +0.000 NA
BRANCH   4   7
ATOM      7  C   UNL     1       1.882   7.674  20.632  0.00  0.00    +0.000 C 
BRANCH   7   8
ATOM      8  O   UNL     1       0.910   8.362  19.841  0.00  0.00    +0.000 OA
BRANCH   8   9
ATOM      9  C   UNL     1       0.277   9.435  20.406  0.00  0.00    +0.000 A 
ATOM     10  C   UNL     1       0.327   9.770  21.761  0.00  0.00    +0.000 A 
ATOM     11  C   UNL     1      -0.352  10.893  22.239  0.00  0.00    +0.000 A 
ATOM     12  C   UNL     1      -1.093  11.696  21.370  0.00  0.00    +0.000 A 
ATOM     13  C   UNL     1      -1.822  12.906  21.873  0.00  0.00    +0.000 C 
ATOM     14  C   UNL     1      -1.152  11.356  20.013  0.00  0.00    +0.000 A 
ATOM     15  C   UNL     1      -0.472  10.230  19.522  0.00  0.00    +0.000 A 
ATOM     16  C   UNL     1      -0.546   9.890  18.058  0.00  0.00    +0.000 C 
ENDBRANCH   8   9
ENDBRANCH   7   8
ENDBRANCH   4   7
ENDBRANCH   1   2
BRANCH   1  17
ATOM     17  C   UNL     1       2.487   2.047  18.923  0.00  0.00    +0.000 C 
BRANCH  17  25
ATOM     18  C   UNL     1       6.985   6.077  16.650  0.00  0.00    +0.000 A 
ATOM     19  C   UNL     1       6.496   5.816  17.937  0.00  0.00    +0.000 A 
ATOM     20  C   UNL     1       5.445   4.918  18.121  0.00  0.00    +0.000 A 
ATOM     21  C   UNL     1       4.867   4.287  17.014  0.00  0.00    +0.000 A 
ATOM     22  C   UNL     1       5.367   4.531  15.728  0.00  0.00    +0.000 A 
ATOM     23  C   UNL     1       6.440   5.412  15.533  0.00  0.00    +0.000 A 
ATOM     24  C   UNL     1       3.661   3.415  17.255  0.00  0.00    +0.000 C 
ATOM     25  N   UNL     1       3.786   2.528  18.424  0.00  0.00    +0.000 NA
ATOM     26  C   UNL     1       4.654   3.038  19.502  0.00  0.00    +0.000 C 
ATOM     27  C   UNL     1       4.906   4.552  19.477  0.00  0.00    +0.000 C 
BRANCH  18  29
ATOM     28  C   UNL     1       7.958   8.041  17.567  0.00  0.00    +0.000 C 
ATOM     29  O   UNL     1       8.039   6.958  16.648  0.00  0.00    +0.000 OA
ENDBRANCH  18  29
BRANCH  23  30
ATOM     30  O   UNL     1       7.004   5.652  14.309  0.00  0.00    +0.000 OA
ATOM     31  C   UNL     1       6.971   4.621  13.333  0.00  0.00    +0.000 C 
ENDBRANCH  23  30
ENDBRANCH  17  25
ENDBRANCH   1  17
TORSDOF 8
ENDMDL
