MODEL 1
REMARK VINA RESULT:      -7.3      0.000      0.000
REMARK  Name = 
REMARK  4 active torsions:
REMARK  status: ('A' for Active; 'I' for Inactive)
REMARK    1  A    between atoms: C_1  and  O_2
REMARK    2  A    between atoms: O_2  and  C_3
REMARK    3  A    between atoms: N_15  and  C_16
REMARK    4  A    between atoms: C_16  and  C_17
REMARK                            x       y       z     vdW  Elec       q    Type
REMARK                         _______ _______ _______ _____ _____    ______ ____
ROOT
ATOM      1  C   UNL     1       5.657   5.962  17.029  0.00  0.00    +0.000 A 
ATOM      2  C   UNL     1       5.563   5.607  15.710  0.00  0.00    +0.000 A 
ATOM      3  C   UNL     1       5.260   4.295  15.507  0.00  0.00    +0.000 A 
ATOM      4  N   UNL     1       4.952   3.453  16.503  0.00  0.00    +0.000 NA
ATOM      5  C   UNL     1       4.940   3.888  17.775  0.00  0.00    +0.000 A 
ATOM      6  N   UNL     1       4.180   3.142  18.697  0.00  0.00    +0.000 N 
ATOM      7  C   UNL     1       3.253   2.257  18.019  0.00  0.00    +0.000 C 
ATOM      8  C   UNL     1       1.896   2.962  17.762  0.00  0.00    +0.000 C 
ATOM      9  C   UNL     1       0.929   2.408  18.812  0.00  0.00    +0.000 C 
ATOM     10  C   UNL     1       0.907   3.331  20.014  0.00  0.00    +0.000 C 
ATOM     11  C   UNL     1       2.187   4.218  20.139  0.00  0.00    +0.000 C 
ATOM     12  C   UNL     1       3.640   3.536  20.061  0.00  0.00    +0.000 C 
ATOM     13  N   UNL     1       1.967   5.265  19.134  0.00  0.00    +0.000 NA
ATOM     14  C   UNL     1       1.882   4.570  17.793  0.00  0.00    +0.000 C 
ATOM     15  N   UNL     1       5.463   5.081  18.050  0.00  0.00    +0.000 NA
ENDROOT
BRANCH   1  17
ATOM     16  C   UNL     1       7.242   7.695  17.462  0.00  0.00    +0.000 C 
ATOM     17  O   UNL     1       5.873   7.275  17.418  0.00  0.00    +0.000 OA
ENDBRANCH   1  17
BRANCH  13  18
ATOM     18  C   UNL     1       3.006   6.322  19.214  0.00  0.00    +0.000 C 
BRANCH  18  19
ATOM     19  C   UNL     1       2.809   7.782  18.968  0.00  0.00    +0.000 C 
ATOM     20  C   UNL     1       2.443   8.293  17.597  0.00  0.00    +0.000 C 
ATOM     21  C   UNL     1       1.532   8.560  18.756  0.00  0.00    +0.000 C 
ENDBRANCH  18  19
ENDBRANCH  13  18
TORSDOF 3
ENDMDL
MODEL 2
REMARK VINA RESULT:      -6.4      1.389      1.455
REMARK  Name = 
REMARK  4 active torsions:
REMARK  status: ('A' for Active; 'I' for Inactive)
REMARK    1  A    between atoms: C_1  and  O_2
REMARK    2  A    between atoms: O_2  and  C_3
REMARK    3  A    between atoms: N_15  and  C_16
REMARK    4  A    between atoms: C_16  and  C_17
REMARK                            x       y       z     vdW  Elec       q    Type
REMARK                         _______ _______ _______ _____ _____    ______ ____
ROOT
ATOM      1  C   UNL     1       6.497   6.478  17.739  0.00  0.00    +0.000 A 
ATOM      2  C   UNL     1       7.246   5.680  16.917  0.00  0.00    +0.000 A 
ATOM      3  C   UNL     1       7.252   4.366  17.273  0.00  0.00    +0.000 A 
ATOM      4  N   UNL     1       6.491   3.871  18.258  0.00  0.00    +0.000 NA
ATOM      5  C   UNL     1       5.677   4.683  18.955  0.00  0.00    +0.000 A 
ATOM      6  N   UNL     1       4.592   4.081  19.621  0.00  0.00    +0.000 N 
ATOM      7  C   UNL     1       4.345   2.743  19.120  0.00  0.00    +0.000 C 
ATOM      8  C   UNL     1       3.354   2.768  17.929  0.00  0.00    +0.000 C 
ATOM      9  C   UNL     1       2.009   2.300  18.492  0.00  0.00    +0.000 C 
ATOM     10  C   UNL     1       1.184   3.506  18.893  0.00  0.00    +0.000 C 
ATOM     11  C   UNL     1       2.041   4.783  19.164  0.00  0.00    +0.000 C 
ATOM     12  C   UNL     1       3.308   4.698  20.149  0.00  0.00    +0.000 C 
ATOM     13  N   UNL     1       2.368   5.259  17.815  0.00  0.00    +0.000 NA
ATOM     14  C   UNL     1       3.171   4.162  17.149  0.00  0.00    +0.000 C 
ATOM     15  N   UNL     1       5.815   6.001  18.817  0.00  0.00    +0.000 NA
ENDROOT
BRANCH   1  17
ATOM     16  C   UNL     1       7.472   8.654  17.602  0.00  0.00    +0.000 C 
ATOM     17  O   UNL     1       6.310   7.826  17.475  0.00  0.00    +0.000 OA
ENDBRANCH   1  17
BRANCH  13  18
ATOM     18  C   UNL     1       3.045   6.579  17.853  0.00  0.00    +0.000 C 
BRANCH  18  19
ATOM     19  C   UNL     1       2.487   7.849  18.404  0.00  0.00    +0.000 C 
ATOM     20  C   UNL     1       2.790   9.175  17.754  0.00  0.00    +0.000 C 
ATOM     21  C   UNL     1       1.369   8.718  17.879  0.00  0.00    +0.000 C 
ENDBRANCH  18  19
ENDBRANCH  13  18
TORSDOF 3
ENDMDL
MODEL 3
REMARK VINA RESULT:      -6.4      1.865      4.489
REMARK  Name = 
REMARK  4 active torsions:
REMARK  status: ('A' for Active; 'I' for Inactive)
REMARK    1  A    between atoms: C_1  and  O_2
REMARK    2  A    between atoms: O_2  and  C_3
REMARK    3  A    between atoms: N_15  and  C_16
REMARK    4  A    between atoms: C_16  and  C_17
REMARK                            x       y       z     vdW  Elec       q    Type
REMARK                         _______ _______ _______ _____ _____    ______ ____
ROOT
ATOM      1  C   UNL     1       2.018   3.140  18.426  0.00  0.00    +0.000 A 
ATOM      2  C   UNL     1       2.535   2.039  19.053  0.00  0.00    +0.000 A 
ATOM      3  C   UNL     1       3.709   1.597  18.524  0.00  0.00    +0.000 A 
ATOM      4  N   UNL     1       4.371   2.254  17.562  0.00  0.00    +0.000 NA
ATOM      5  C   UNL     1       3.877   3.402  17.066  0.00  0.00    +0.000 A 
ATOM      6  N   UNL     1       4.790   4.270  16.437  0.00  0.00    +0.000 N 
ATOM      7  C   UNL     1       6.158   3.928  16.774  0.00  0.00    +0.000 C 
ATOM      8  C   UNL     1       6.621   4.675  18.051  0.00  0.00    +0.000 C 
ATOM      9  C   UNL     1       7.519   5.817  17.567  0.00  0.00    +0.000 C 
ATOM     10  C   UNL     1       6.694   7.079  17.419  0.00  0.00    +0.000 C 
ATOM     11  C   UNL     1       5.167   6.805  17.238  0.00  0.00    +0.000 C 
ATOM     12  C   UNL     1       4.672   5.753  16.128  0.00  0.00    +0.000 C 
ATOM     13  N   UNL     1       4.721   6.487  18.600  0.00  0.00    +0.000 NA
ATOM     14  C   UNL     1       5.478   5.248  19.027  0.00  0.00    +0.000 C 
ATOM     15  N   UNL     1       2.625   3.745  17.366  0.00  0.00    +0.000 NA
ENDROOT
BRANCH   1  17
ATOM     16  C   UNL     1       0.842   4.057  20.291  0.00  0.00    +0.000 C 
ATOM     17  O   UNL     1       0.874   3.774  18.887  0.00  0.00    +0.000 OA
ENDBRANCH   1  17
BRANCH  13  18
ATOM     18  C   UNL     1       3.244   6.361  18.674  0.00  0.00    +0.000 C 
BRANCH  18  19
ATOM     19  C   UNL     1       2.242   7.366  18.210  0.00  0.00    +0.000 C 
ATOM     20  C   UNL     1       1.764   8.462  19.128  0.00  0.00    +0.000 C 
ATOM     21  C   UNL     1       2.434   8.816  17.836  0.00  0.00    +0.000 C 
ENDBRANCH  18  19
ENDBRANCH  13  18
TORSDOF 3
ENDMDL
MODEL 4
REMARK VINA RESULT:      -5.7      9.381     11.177
REMARK  Name = 
REMARK  4 active torsions:
REMARK  status: ('A' for Active; 'I' for Inactive)
REMARK    1  A    between atoms: C_1  and  O_2
REMARK    2  A    between atoms: O_2  and  C_3
REMARK    3  A    between atoms: N_15  and  C_16
REMARK    4  A    between atoms: C_16  and  C_17
REMARK                            x       y       z     vdW  Elec       q    Type
REMARK                         _______ _______ _______ _____ _____    ______ ____
ROOT
ATOM      1  C   UNL     1       6.846  14.987  20.151  0.00  0.00    +0.000 A 
ATOM      2  C   UNL     1       6.143  14.977  18.976  0.00  0.00    +0.000 A 
ATOM      3  C   UNL     1       6.912  15.145  17.866  0.00  0.00    +0.000 A 
ATOM      4  N   UNL     1       8.250  15.186  17.902  0.00  0.00    +0.000 NA
ATOM      5  C   UNL     1       8.898  15.067  19.074  0.00  0.00    +0.000 A 
ATOM      6  N   UNL     1      10.242  14.649  19.021  0.00  0.00    +0.000 N 
ATOM      7  C   UNL     1      10.561  14.067  17.733  0.00  0.00    +0.000 C 
ATOM      8  C   UNL     1      10.285  12.541  17.727  0.00  0.00    +0.000 C 
ATOM      9  C   UNL     1      11.655  11.867  17.847  0.00  0.00    +0.000 C 
ATOM     10  C   UNL     1      11.942  11.566  19.304  0.00  0.00    +0.000 C 
ATOM     11  C   UNL     1      11.129  12.458  20.294  0.00  0.00    +0.000 C 
ATOM     12  C   UNL     1      11.121  14.054  20.108  0.00  0.00    +0.000 C 
ATOM     13  N   UNL     1       9.793  11.850  20.271  0.00  0.00    +0.000 NA
ATOM     14  C   UNL     1       9.287  11.967  18.849  0.00  0.00    +0.000 C 
ATOM     15  N   UNL     1       8.198  15.150  20.205  0.00  0.00    +0.000 NA
ENDROOT
BRANCH   1  17
ATOM     16  C   UNL     1       6.590  15.635  22.434  0.00  0.00    +0.000 C 
ATOM     17  O   UNL     1       6.235  14.744  21.371  0.00  0.00    +0.000 OA
ENDBRANCH   1  17
BRANCH  13  18
ATOM     18  C   UNL     1       8.901  12.456  21.292  0.00  0.00    +0.000 C 
BRANCH  18  19
ATOM     19  C   UNL     1       8.391  11.795  22.530  0.00  0.00    +0.000 C 
ATOM     20  C   UNL     1       8.258  12.566  23.819  0.00  0.00    +0.000 C 
ATOM     21  C   UNL     1       7.049  11.927  23.209  0.00  0.00    +0.000 C 
ENDBRANCH  18  19
ENDBRANCH  13  18
TORSDOF 3
ENDMDL
MODEL 5
REMARK VINA RESULT:      -5.7      1.355      1.663
REMARK  Name = 
REMARK  4 active torsions:
REMARK  status: ('A' for Active; 'I' for Inactive)
REMARK    1  A    between atoms: C_1  and  O_2
REMARK    2  A    between atoms: O_2  and  C_3
REMARK    3  A    between atoms: N_15  and  C_16
REMARK    4  A    between atoms: C_16  and  C_17
REMARK                            x       y       z     vdW  Elec       q    Type
REMARK                         _______ _______ _______ _____ _____    ______ ____
ROOT
ATOM      1  C   UNL     1       5.807   6.153  17.554  0.00  0.00    +0.000 A 
ATOM      2  C   UNL     1       6.652   5.261  16.951  0.00  0.00    +0.000 A 
ATOM      3  C   UNL     1       6.807   4.093  17.633  0.00  0.00    +0.000 A 
ATOM      4  N   UNL     1       6.099   3.786  18.728  0.00  0.00    +0.000 NA
ATOM      5  C   UNL     1       5.189   4.652  19.209  0.00  0.00    +0.000 A 
ATOM      6  N   UNL     1       4.175   4.122  20.029  0.00  0.00    +0.000 N 
ATOM      7  C   UNL     1       4.090   2.681  19.896  0.00  0.00    +0.000 C 
ATOM      8  C   UNL     1       3.115   2.282  18.759  0.00  0.00    +0.000 C 
ATOM      9  C   UNL     1       1.827   1.825  19.451  0.00  0.00    +0.000 C 
ATOM     10  C   UNL     1       0.864   2.991  19.543  0.00  0.00    +0.000 C 
ATOM     11  C   UNL     1       1.564   4.384  19.459  0.00  0.00    +0.000 C 
ATOM     12  C   UNL     1       2.822   4.703  20.407  0.00  0.00    +0.000 C 
ATOM     13  N   UNL     1       1.847   4.530  18.026  0.00  0.00    +0.000 NA
ATOM     14  C   UNL     1       2.778   3.397  17.650  0.00  0.00    +0.000 C 
ATOM     15  N   UNL     1       5.174   5.896  18.733  0.00  0.00    +0.000 NA
ENDROOT
BRANCH   1  17
ATOM     16  C   UNL     1       4.921   7.264  15.634  0.00  0.00    +0.000 C 
ATOM     17  O   UNL     1       5.467   7.357  16.955  0.00  0.00    +0.000 OA
ENDBRANCH   1  17
BRANCH  13  18
ATOM     18  C   UNL     1       2.366   5.883  17.708  0.00  0.00    +0.000 C 
BRANCH  18  19
ATOM     19  C   UNL     1       1.693   7.184  17.999  0.00  0.00    +0.000 C 
ATOM     20  C   UNL     1       2.138   8.043  19.155  0.00  0.00    +0.000 C 
ATOM     21  C   UNL     1       2.178   8.594  17.763  0.00  0.00    +0.000 C 
ENDBRANCH  18  19
ENDBRANCH  13  18
TORSDOF 3
ENDMDL
MODEL 6
REMARK VINA RESULT:      -5.6      2.028      4.625
REMARK  Name = 
REMARK  4 active torsions:
REMARK  status: ('A' for Active; 'I' for Inactive)
REMARK    1  A    between atoms: C_1  and  O_2
REMARK    2  A    between atoms: O_2  and  C_3
REMARK    3  A    between atoms: N_15  and  C_16
REMARK    4  A    between atoms: C_16  and  C_17
REMARK                            x       y       z     vdW  Elec       q    Type
REMARK                         _______ _______ _______ _____ _____    ______ ____
ROOT
ATOM      1  C   UNL     1       2.224   2.934  17.885  0.00  0.00    +0.000 A 
ATOM      2  C   UNL     1       2.723   1.930  18.670  0.00  0.00    +0.000 A 
ATOM      3  C   UNL     1       4.013   1.594  18.391  0.00  0.00    +0.000 A 
ATOM      4  N   UNL     1       4.772   2.270  17.518  0.00  0.00    +0.000 NA
ATOM      5  C   UNL     1       4.267   3.330  16.863  0.00  0.00    +0.000 A 
ATOM      6  N   UNL     1       5.190   4.260  16.347  0.00  0.00    +0.000 N 
ATOM      7  C   UNL     1       6.499   4.089  16.945  0.00  0.00    +0.000 C 
ATOM      8  C   UNL     1       6.642   4.947  18.229  0.00  0.00    +0.000 C 
ATOM      9  C   UNL     1       7.496   6.154  17.833  0.00  0.00    +0.000 C 
ATOM     10  C   UNL     1       6.591   7.308  17.452  0.00  0.00    +0.000 C 
ATOM     11  C   UNL     1       5.159   6.859  17.022  0.00  0.00    +0.000 C 
ATOM     12  C   UNL     1       4.984   5.703  15.919  0.00  0.00    +0.000 C 
ATOM     13  N   UNL     1       4.503   6.563  18.302  0.00  0.00    +0.000 NA
ATOM     14  C   UNL     1       5.288   5.439  18.943  0.00  0.00    +0.000 C 
ATOM     15  N   UNL     1       2.954   3.547  16.911  0.00  0.00    +0.000 NA
ENDROOT
BRANCH   1  17
ATOM     16  C   UNL     1       0.313   3.076  19.309  0.00  0.00    +0.000 C 
ATOM     17  O   UNL     1       0.958   3.460  18.089  0.00  0.00    +0.000 OA
ENDBRANCH   1  17
BRANCH  13  18
ATOM     18  C   UNL     1       3.058   6.279  18.120  0.00  0.00    +0.000 C 
BRANCH  18  19
ATOM     19  C   UNL     1       1.960   6.613  19.074  0.00  0.00    +0.000 C 
ATOM     20  C   UNL     1       1.976   6.089  20.487  0.00  0.00    +0.000 C 
ATOM     21  C   UNL     1       1.957   7.567  20.245  0.00  0.00    +0.000 C 
ENDBRANCH  18  19
ENDBRANCH  13  18
TORSDOF 3
ENDMDL
MODEL 7
REMARK VINA RESULT:      -5.6      9.250     11.699
REMARK  Name = 
REMARK  4 active torsions:
REMARK  status: ('A' for Active; 'I' for Inactive)
REMARK    1  A    between atoms: C_1  and  O_2
REMARK    2  A    between atoms: O_2  and  C_3
REMARK    3  A    between atoms: N_15  and  C_16
REMARK    4  A    between atoms: C_16  and  C_17
REMARK                            x       y       z     vdW  Elec       q    Type
REMARK                         _______ _______ _______ _____ _____    ______ ____
ROOT
ATOM      1  C   UNL     1      11.487  16.394  19.113  0.00  0.00    +0.000 A 
ATOM      2  C   UNL     1      10.974  16.853  17.930  0.00  0.00    +0.000 A 
ATOM      3  C   UNL     1      11.043  15.955  16.909  0.00  0.00    +0.000 A 
ATOM      4  N   UNL     1      11.454  14.691  17.073  0.00  0.00    +0.000 NA
ATOM      5  C   UNL     1      11.832  14.256  18.288  0.00  0.00    +0.000 A 
ATOM      6  N   UNL     1      11.797  12.865  18.507  0.00  0.00    +0.000 N 
ATOM      7  C   UNL     1      11.002  12.194  17.498  0.00  0.00    +0.000 C 
ATOM      8  C   UNL     1       9.514  12.107  17.926  0.00  0.00    +0.000 C 
ATOM      9  C   UNL     1       9.295  10.664  18.390  0.00  0.00    +0.000 C 
ATOM     10  C   UNL     1       9.482  10.583  19.892  0.00  0.00    +0.000 C 
ATOM     11  C   UNL     1      10.350  11.745  20.472  0.00  0.00    +0.000 C 
ATOM     12  C   UNL     1      11.775  12.084  19.810  0.00  0.00    +0.000 C 
ATOM     13  N   UNL     1       9.419  12.879  20.493  0.00  0.00    +0.000 NA
ATOM     14  C   UNL     1       9.011  13.132  19.058  0.00  0.00    +0.000 C 
ATOM     15  N   UNL     1      12.019  15.148  19.259  0.00  0.00    +0.000 NA
ENDROOT
BRANCH   1  17
ATOM     16  C   UNL     1      12.320  18.257  20.355  0.00  0.00    +0.000 C 
ATOM     17  O   UNL     1      11.421  17.144  20.278  0.00  0.00    +0.000 OA
ENDBRANCH   1  17
BRANCH  13  18
ATOM     18  C   UNL     1      10.008  14.055  21.181  0.00  0.00    +0.000 C 
BRANCH  18  19
ATOM     19  C   UNL     1       9.402  14.819  22.312  0.00  0.00    +0.000 C 
ATOM     20  C   UNL     1       7.907  14.976  22.426  0.00  0.00    +0.000 C 
ATOM     21  C   UNL     1       8.670  14.315  23.532  0.00  0.00    +0.000 C 
ENDBRANCH  18  19
ENDBRANCH  13  18
TORSDOF 3
ENDMDL
MODEL 8
REMARK VINA RESULT:      -5.6      2.138      4.565
REMARK  Name = 
REMARK  4 active torsions:
REMARK  status: ('A' for Active; 'I' for Inactive)
REMARK    1  A    between atoms: C_1  and  O_2
REMARK    2  A    between atoms: O_2  and  C_3
REMARK    3  A    between atoms: N_15  and  C_16
REMARK    4  A    between atoms: C_16  and  C_17
REMARK                            x       y       z     vdW  Elec       q    Type
REMARK                         _______ _______ _______ _____ _____    ______ ____
ROOT
ATOM      1  C   UNL     1       2.070   2.754  19.144  0.00  0.00    +0.000 A 
ATOM      2  C   UNL     1       2.703   1.554  19.327  0.00  0.00    +0.000 A 
ATOM      3  C   UNL     1       3.641   1.270  18.382  0.00  0.00    +0.000 A 
ATOM      4  N   UNL     1       4.008   2.140  17.432  0.00  0.00    +0.000 NA
ATOM      5  C   UNL     1       3.439   3.357  17.373  0.00  0.00    +0.000 A 
ATOM      6  N   UNL     1       4.156   4.365  16.701  0.00  0.00    +0.000 N 
ATOM      7  C   UNL     1       5.545   3.992  16.521  0.00  0.00    +0.000 C 
ATOM      8  C   UNL     1       6.406   4.449  17.726  0.00  0.00    +0.000 C 
ATOM      9  C   UNL     1       7.165   5.692  17.252  0.00  0.00    +0.000 C 
ATOM     10  C   UNL     1       6.390   6.935  17.642  0.00  0.00    +0.000 C 
ATOM     11  C   UNL     1       4.870   6.669  17.881  0.00  0.00    +0.000 C 
ATOM     12  C   UNL     1       4.015   5.877  16.774  0.00  0.00    +0.000 C 
ATOM     13  N   UNL     1       4.844   6.046  19.210  0.00  0.00    +0.000 NA
ATOM     14  C   UNL     1       5.639   4.763  19.104  0.00  0.00    +0.000 C 
ATOM     15  N   UNL     1       2.354   3.593  18.109  0.00  0.00    +0.000 NA
ENDROOT
BRANCH   1  17
ATOM     16  C   UNL     1       1.440   2.977  21.437  0.00  0.00    +0.000 C 
ATOM     17  O   UNL     1       1.149   3.241  20.059  0.00  0.00    +0.000 OA
ENDBRANCH   1  17
BRANCH  13  18
ATOM     18  C   UNL     1       3.455   5.870  19.702  0.00  0.00    +0.000 C 
BRANCH  18  19
ATOM     19  C   UNL     1       2.343   6.861  19.599  0.00  0.00    +0.000 C 
ATOM     20  C   UNL     1       1.160   6.796  20.531  0.00  0.00    +0.000 C 
ATOM     21  C   UNL     1       2.009   8.030  20.494  0.00  0.00    +0.000 C 
ENDBRANCH  18  19
ENDBRANCH  13  18
TORSDOF 3
ENDMDL
MODEL 9
REMARK VINA RESULT:      -5.5      0.969      1.062
REMARK  Name = 
REMARK  4 active torsions:
REMARK  status: ('A' for Active; 'I' for Inactive)
REMARK    1  A    between atoms: C_1  and  O_2
REMARK    2  A    between atoms: O_2  and  C_3
REMARK    3  A    between atoms: N_15  and  C_16
REMARK    4  A    between atoms: C_16  and  C_17
REMARK                            x       y       z     vdW  Elec       q    Type
REMARK                         _______ _______ _______ _____ _____    ______ ____
ROOT
ATOM      1  C   UNL     1       5.528   5.508  16.564  0.00  0.00    +0.000 A 
ATOM      2  C   UNL     1       5.670   4.603  15.547  0.00  0.00    +0.000 A 
ATOM      3  C   UNL     1       5.565   3.304  15.939  0.00  0.00    +0.000 A 
ATOM      4  N   UNL     1       5.223   2.940  17.182  0.00  0.00    +0.000 NA
ATOM      5  C   UNL     1       4.973   3.877  18.115  0.00  0.00    +0.000 A 
ATOM      6  N   UNL     1       4.187   3.486  19.216  0.00  0.00    +0.000 N 
ATOM      7  C   UNL     1       3.484   2.247  18.947  0.00  0.00    +0.000 C 
ATOM      8  C   UNL     1       2.102   2.519  18.300  0.00  0.00    +0.000 C 
ATOM      9  C   UNL     1       1.070   2.318  19.413  0.00  0.00    +0.000 C 
ATOM     10  C   UNL     1       0.761   3.653  20.061  0.00  0.00    +0.000 C 
ATOM     11  C   UNL     1       1.889   4.715  19.864  0.00  0.00    +0.000 C 
ATOM     12  C   UNL     1       3.412   4.335  20.210  0.00  0.00    +0.000 C 
ATOM     13  N   UNL     1       1.688   5.163  18.480  0.00  0.00    +0.000 NA
ATOM     14  C   UNL     1       1.884   3.949  17.597  0.00  0.00    +0.000 C 
ATOM     15  N   UNL     1       5.300   5.142  17.857  0.00  0.00    +0.000 NA
ENDROOT
BRANCH   1  17
ATOM     16  C   UNL     1       4.900   7.295  15.110  0.00  0.00    +0.000 C 
ATOM     17  O   UNL     1       5.521   6.874  16.331  0.00  0.00    +0.000 OA
ENDBRANCH   1  17
BRANCH  13  18
ATOM     18  C   UNL     1       2.565   6.313  18.147  0.00  0.00    +0.000 C 
BRANCH  18  19
ATOM     19  C   UNL     1       2.361   7.734  18.558  0.00  0.00    +0.000 C 
ATOM     20  C   UNL     1       2.895   8.866  17.717  0.00  0.00    +0.000 C 
ATOM     21  C   UNL     1       1.425   8.775  17.992  0.00  0.00    +0.000 C 
ENDBRANCH  18  19
ENDBRANCH  13  18
TORSDOF 3
ENDMDL
