MODEL 1
REMARK VINA RESULT:      -6.6      0.000      0.000
REMARK  Name = 
REMARK  9 active torsions:
REMARK  status: ('A' for Active; 'I' for Inactive)
REMARK    1  A    between atoms: C_1  and  O_2
REMARK    2  A    between atoms: O_2  and  C_3
REMARK    3  A    between atoms: C_5  and  C_6
REMARK    4  A    between atoms: N_8  and  C_9
REMARK    5  A    between atoms: C_11  and  C_12
REMARK    6  A    between atoms: C_22  and  O_23
REMARK    7  A    between atoms: O_23  and  C_24
REMARK    8  A    between atoms: C_25  and  O_26
REMARK    9  A    between atoms: O_26  and  C_27
REMARK                            x       y       z     vdW  Elec       q    Type
REMARK                         _______ _______ _______ _____ _____    ______ ____
ROOT
ATOM      1  C   UNL     1      -0.312  12.792  18.755  0.00  0.00    +0.000 A 
ATOM      2  N   UNL     1      -0.060  14.092  18.518  0.00  0.00    +0.000 NA
ATOM      3  N   UNL     1       1.261  14.169  18.745  0.00  0.00    +0.000 N 
ATOM      4  C   UNL     1       1.986  15.397  18.527  0.00  0.00    +0.000 C 
ATOM      5  N   UNL     1       1.905  13.057  19.129  0.00  0.00    +0.000 NA
ATOM      6  C   UNL     1       0.928  12.138  19.052  0.00  0.00    +0.000 A 
ENDROOT
BRANCH   6   7
ATOM      7  C   UNL     1       1.221  10.680  19.248  0.00  0.00    +0.000 A 
ATOM      8  C   UNL     1       1.721   9.870  18.252  0.00  0.00    +0.000 A 
ATOM      9  C   UNL     1       1.933   8.518  18.679  0.00  0.00    +0.000 A 
ATOM     10  C   UNL     1       2.469   7.410  17.984  0.00  0.00    +0.000 A 
ATOM     11  C   UNL     1       2.545   6.158  18.601  0.00  0.00    +0.000 A 
ATOM     12  C   UNL     1       2.103   5.992  19.907  0.00  0.00    +0.000 A 
ATOM     13  C   UNL     1       1.589   7.074  20.625  0.00  0.00    +0.000 A 
ATOM     14  C   UNL     1       1.511   8.332  19.996  0.00  0.00    +0.000 A 
ATOM     15  S   UNL     1       0.918   9.797  20.673  0.00  0.00    +0.000 S 
ENDBRANCH   6   7
BRANCH   1  18
ATOM     16  C   UNL     1      -3.944  12.213  19.594  0.00  0.00    +0.000 A 
ATOM     17  C   UNL     1      -2.594  12.591  19.704  0.00  0.00    +0.000 A 
ATOM     18  C   UNL     1      -1.673  12.266  18.712  0.00  0.00    +0.000 A 
ATOM     19  C   UNL     1      -2.088  11.435  17.673  0.00  0.00    +0.000 A 
ATOM     20  C   UNL     1      -3.419  11.018  17.553  0.00  0.00    +0.000 A 
ATOM     21  C   UNL     1      -4.373  11.403  18.517  0.00  0.00    +0.000 A 
BRANCH  16  23
ATOM     22  C   UNL     1      -5.249  13.981  20.501  0.00  0.00    +0.000 C 
ATOM     23  O   UNL     1      -4.849  12.612  20.546  0.00  0.00    +0.000 OA
ENDBRANCH  16  23
BRANCH  20  24
ATOM     24  O   UNL     1      -3.591  10.274  16.409  0.00  0.00    +0.000 OA
ATOM     25  C   UNL     1      -3.147  10.780  15.161  0.00  0.00    +0.000 C 
ENDBRANCH  20  24
BRANCH  21  26
ATOM     26  O   UNL     1      -5.647  10.950  18.305  0.00  0.00    +0.000 OA
ATOM     27  C   UNL     1      -6.639  11.787  17.739  0.00  0.00    +0.000 C 
ENDBRANCH  21  26
ENDBRANCH   1  18
TORSDOF 5
ENDMDL
MODEL 2
REMARK VINA RESULT:      -6.5      0.455      2.476
REMARK  Name = 
REMARK  9 active torsions:
REMARK  status: ('A' for Active; 'I' for Inactive)
REMARK    1  A    between atoms: C_1  and  O_2
REMARK    2  A    between atoms: O_2  and  C_3
REMARK    3  A    between atoms: C_5  and  C_6
REMARK    4  A    between atoms: N_8  and  C_9
REMARK    5  A    between atoms: C_11  and  C_12
REMARK    6  A    between atoms: C_22  and  O_23
REMARK    7  A    between atoms: O_23  and  C_24
REMARK    8  A    between atoms: C_25  and  O_26
REMARK    9  A    between atoms: O_26  and  C_27
REMARK                            x       y       z     vdW  Elec       q    Type
REMARK                         _______ _______ _______ _____ _____    ______ ____
ROOT
ATOM      1  C   UNL     1      -0.360  12.939  18.711  0.00  0.00    +0.000 A 
ATOM      2  N   UNL     1      -0.118  14.249  18.519  0.00  0.00    +0.000 NA
ATOM      3  N   UNL     1       1.181  14.346  18.846  0.00  0.00    +0.000 N 
ATOM      4  C   UNL     1       1.894  15.591  18.707  0.00  0.00    +0.000 C 
ATOM      5  N   UNL     1       1.816  13.239  19.257  0.00  0.00    +0.000 NA
ATOM      6  C   UNL     1       0.867  12.303  19.090  0.00  0.00    +0.000 A 
ENDROOT
BRANCH   6   7
ATOM      7  C   UNL     1       1.174  10.848  19.279  0.00  0.00    +0.000 A 
ATOM      8  C   UNL     1       1.671  10.044  18.277  0.00  0.00    +0.000 A 
ATOM      9  C   UNL     1       1.899   8.693  18.699  0.00  0.00    +0.000 A 
ATOM     10  C   UNL     1       2.438   7.590  17.997  0.00  0.00    +0.000 A 
ATOM     11  C   UNL     1       2.530   6.338  18.611  0.00  0.00    +0.000 A 
ATOM     12  C   UNL     1       2.102   6.166  19.921  0.00  0.00    +0.000 A 
ATOM     13  C   UNL     1       1.586   7.242  20.646  0.00  0.00    +0.000 A 
ATOM     14  C   UNL     1       1.492   8.500  20.021  0.00  0.00    +0.000 A 
ATOM     15  S   UNL     1       0.893   9.960  20.706  0.00  0.00    +0.000 S 
ENDBRANCH   6   7
BRANCH   1  18
ATOM     16  C   UNL     1      -3.257  10.913  17.394  0.00  0.00    +0.000 A 
ATOM     17  C   UNL     1      -2.015  11.567  17.475  0.00  0.00    +0.000 A 
ATOM     18  C   UNL     1      -1.703  12.388  18.555  0.00  0.00    +0.000 A 
ATOM     19  C   UNL     1      -2.702  12.659  19.488  0.00  0.00    +0.000 A 
ATOM     20  C   UNL     1      -3.959  12.046  19.417  0.00  0.00    +0.000 A 
ATOM     21  C   UNL     1      -4.257  11.158  18.363  0.00  0.00    +0.000 A 
BRANCH  16  23
ATOM     22  C   UNL     1      -3.397  10.587  15.043  0.00  0.00    +0.000 C 
ATOM     23  O   UNL     1      -3.512  10.048  16.359  0.00  0.00    +0.000 OA
ENDBRANCH  16  23
BRANCH  20  24
ATOM     24  O   UNL     1      -4.738  12.416  20.489  0.00  0.00    +0.000 OA
ATOM     25  C   UNL     1      -4.126  12.828  21.700  0.00  0.00    +0.000 C 
ENDBRANCH  20  24
BRANCH  21  26
ATOM     26  O   UNL     1      -5.509  10.605  18.390  0.00  0.00    +0.000 OA
ATOM     27  C   UNL     1      -6.646  11.344  17.983  0.00  0.00    +0.000 C 
ENDBRANCH  21  26
ENDBRANCH   1  18
TORSDOF 5
ENDMDL
MODEL 3
REMARK VINA RESULT:      -6.5      6.370     10.100
REMARK  Name = 
REMARK  9 active torsions:
REMARK  status: ('A' for Active; 'I' for Inactive)
REMARK    1  A    between atoms: C_1  and  O_2
REMARK    2  A    between atoms: O_2  and  C_3
REMARK    3  A    between atoms: C_5  and  C_6
REMARK    4  A    between atoms: N_8  and  C_9
REMARK    5  A    between atoms: C_11  and  C_12
REMARK    6  A    between atoms: C_22  and  O_23
REMARK    7  A    between atoms: O_23  and  C_24
REMARK    8  A    between atoms: C_25  and  O_26
REMARK    9  A    between atoms: O_26  and  C_27
REMARK                            x       y       z     vdW  Elec       q    Type
REMARK                         _______ _______ _______ _____ _____    ______ ____
ROOT
ATOM      1  C   UNL     1       3.489   4.250  19.702  0.00  0.00    +0.000 A 
ATOM      2  N   UNL     1       3.272   3.047  20.266  0.00  0.00    +0.000 NA
ATOM      3  N   UNL     1       2.260   3.310  21.109  0.00  0.00    +0.000 N 
ATOM      4  C   UNL     1       1.641   2.260  21.880  0.00  0.00    +0.000 C 
ATOM      5  N   UNL     1       1.801   4.568  21.177  0.00  0.00    +0.000 NA
ATOM      6  C   UNL     1       2.516   5.170  20.212  0.00  0.00    +0.000 A 
ENDROOT
BRANCH   6   7
ATOM      7  C   UNL     1       2.230   6.586  19.809  0.00  0.00    +0.000 A 
ATOM      8  C   UNL     1       1.570   7.484  20.619  0.00  0.00    +0.000 A 
ATOM      9  C   UNL     1       1.425   8.780  20.023  0.00  0.00    +0.000 A 
ATOM     10  C   UNL     1       0.861   9.969  20.538  0.00  0.00    +0.000 A 
ATOM     11  C   UNL     1       0.794  11.120  19.748  0.00  0.00    +0.000 A 
ATOM     12  C   UNL     1       1.290  11.109  18.451  0.00  0.00    +0.000 A 
ATOM     13  C   UNL     1       1.872   9.955  17.923  0.00  0.00    +0.000 A 
ATOM     14  C   UNL     1       1.933   8.798  18.722  0.00  0.00    +0.000 A 
ATOM     15  S   UNL     1       2.597   7.271  18.292  0.00  0.00    +0.000 S 
ENDBRANCH   6   7
BRANCH   1  18
ATOM     16  C   UNL     1       6.834   5.270  18.290  0.00  0.00    +0.000 A 
ATOM     17  C   UNL     1       5.711   5.190  19.131  0.00  0.00    +0.000 A 
ATOM     18  C   UNL     1       4.586   4.458  18.762  0.00  0.00    +0.000 A 
ATOM     19  C   UNL     1       4.541   3.920  17.478  0.00  0.00    +0.000 A 
ATOM     20  C   UNL     1       5.633   4.009  16.605  0.00  0.00    +0.000 A 
ATOM     21  C   UNL     1       6.803   4.689  17.000  0.00  0.00    +0.000 A 
BRANCH  16  23
ATOM     22  C   UNL     1       8.052   7.311  18.351  0.00  0.00    +0.000 C 
ATOM     23  O   UNL     1       7.961   5.932  18.708  0.00  0.00    +0.000 OA
ENDBRANCH  16  23
BRANCH  20  24
ATOM     24  O   UNL     1       5.371   3.337  15.434  0.00  0.00    +0.000 OA
ATOM     25  C   UNL     1       5.071   4.062  14.254  0.00  0.00    +0.000 C 
ENDBRANCH  20  24
BRANCH  21  26
ATOM     26  O   UNL     1       7.815   4.712  16.079  0.00  0.00    +0.000 OA
ATOM     27  C   UNL     1       7.743   5.537  14.931  0.00  0.00    +0.000 C 
ENDBRANCH  21  26
ENDBRANCH   1  18
TORSDOF 5
ENDMDL
MODEL 4
REMARK VINA RESULT:      -6.5      0.822      1.274
REMARK  Name = 
REMARK  9 active torsions:
REMARK  status: ('A' for Active; 'I' for Inactive)
REMARK    1  A    between atoms: C_1  and  O_2
REMARK    2  A    between atoms: O_2  and  C_3
REMARK    3  A    between atoms: C_5  and  C_6
REMARK    4  A    between atoms: N_8  and  C_9
REMARK    5  A    between atoms: C_11  and  C_12
REMARK    6  A    between atoms: C_22  and  O_23
REMARK    7  A    between atoms: O_23  and  C_24
REMARK    8  A    between atoms: C_25  and  O_26
REMARK    9  A    between atoms: O_26  and  C_27
REMARK                            x       y       z     vdW  Elec       q    Type
REMARK                         _______ _______ _______ _____ _____    ______ ____
ROOT
ATOM      1  C   UNL     1      -0.361  12.864  18.751  0.00  0.00    +0.000 A 
ATOM      2  N   UNL     1      -0.133  14.179  18.570  0.00  0.00    +0.000 NA
ATOM      3  N   UNL     1       1.195  14.261  18.754  0.00  0.00    +0.000 N 
ATOM      4  C   UNL     1       1.897  15.508  18.573  0.00  0.00    +0.000 C 
ATOM      5  N   UNL     1       1.864  13.140  19.059  0.00  0.00    +0.000 NA
ATOM      6  C   UNL     1       0.896  12.213  18.971  0.00  0.00    +0.000 A 
ENDROOT
BRANCH   6   7
ATOM      7  C   UNL     1       1.213  10.752  19.083  0.00  0.00    +0.000 A 
ATOM      8  C   UNL     1       0.966  10.010  20.217  0.00  0.00    +0.000 A 
ATOM      9  C   UNL     1       1.340   8.633  20.082  0.00  0.00    +0.000 A 
ATOM     10  C   UNL     1       1.207   7.552  20.985  0.00  0.00    +0.000 A 
ATOM     11  C   UNL     1       1.687   6.284  20.645  0.00  0.00    +0.000 A 
ATOM     12  C   UNL     1       2.292   6.070  19.414  0.00  0.00    +0.000 A 
ATOM     13  C   UNL     1       2.417   7.113  18.494  0.00  0.00    +0.000 A 
ATOM     14  C   UNL     1       1.935   8.389  18.843  0.00  0.00    +0.000 A 
ATOM     15  S   UNL     1       1.980   9.816  17.883  0.00  0.00    +0.000 S 
ENDBRANCH   6   7
BRANCH   1  18
ATOM     16  C   UNL     1      -3.934  12.146  19.724  0.00  0.00    +0.000 A 
ATOM     17  C   UNL     1      -2.584  12.533  19.797  0.00  0.00    +0.000 A 
ATOM     18  C   UNL     1      -1.717  12.323  18.729  0.00  0.00    +0.000 A 
ATOM     19  C   UNL     1      -2.180  11.593  17.636  0.00  0.00    +0.000 A 
ATOM     20  C   UNL     1      -3.512  11.168  17.548  0.00  0.00    +0.000 A 
ATOM     21  C   UNL     1      -4.414  11.440  18.596  0.00  0.00    +0.000 A 
BRANCH  16  23
ATOM     22  C   UNL     1      -4.181  12.783  22.001  0.00  0.00    +0.000 C 
ATOM     23  O   UNL     1      -4.789  12.434  20.758  0.00  0.00    +0.000 OA
ENDBRANCH  16  23
BRANCH  20  24
ATOM     24  O   UNL     1      -3.739  10.539  16.346  0.00  0.00    +0.000 OA
ATOM     25  C   UNL     1      -2.733  10.536  15.347  0.00  0.00    +0.000 C 
ENDBRANCH  20  24
BRANCH  21  26
ATOM     26  O   UNL     1      -5.693  10.990  18.409  0.00  0.00    +0.000 OA
ATOM     27  C   UNL     1      -6.701  11.837  17.889  0.00  0.00    +0.000 C 
ENDBRANCH  21  26
ENDBRANCH   1  18
TORSDOF 5
ENDMDL
MODEL 5
REMARK VINA RESULT:      -6.5      5.145      7.822
REMARK  Name = 
REMARK  9 active torsions:
REMARK  status: ('A' for Active; 'I' for Inactive)
REMARK    1  A    between atoms: C_1  and  O_2
REMARK    2  A    between atoms: O_2  and  C_3
REMARK    3  A    between atoms: C_5  and  C_6
REMARK    4  A    between atoms: N_8  and  C_9
REMARK    5  A    between atoms: C_11  and  C_12
REMARK    6  A    between atoms: C_22  and  O_23
REMARK    7  A    between atoms: O_23  and  C_24
REMARK    8  A    between atoms: C_25  and  O_26
REMARK    9  A    between atoms: O_26  and  C_27
REMARK                            x       y       z     vdW  Elec       q    Type
REMARK                         _______ _______ _______ _____ _____    ______ ____
ROOT
ATOM      1  C   UNL     1       2.334   4.868  20.266  0.00  0.00    +0.000 A 
ATOM      2  N   UNL     1       1.745   4.231  21.295  0.00  0.00    +0.000 NA
ATOM      3  N   UNL     1       2.207   2.979  21.154  0.00  0.00    +0.000 N 
ATOM      4  C   UNL     1       1.885   1.951  22.113  0.00  0.00    +0.000 C 
ATOM      5  N   UNL     1       3.024   2.717  20.123  0.00  0.00    +0.000 NA
ATOM      6  C   UNL     1       3.192   3.940  19.592  0.00  0.00    +0.000 A 
ENDROOT
BRANCH   6   7
ATOM      7  C   UNL     1       4.173   4.172  18.482  0.00  0.00    +0.000 A 
ATOM      8  C   UNL     1       3.919   3.845  17.168  0.00  0.00    +0.000 A 
ATOM      9  C   UNL     1       5.001   4.174  16.287  0.00  0.00    +0.000 A 
ATOM     10  C   UNL     1       5.112   4.045  14.883  0.00  0.00    +0.000 A 
ATOM     11  C   UNL     1       6.297   4.400  14.232  0.00  0.00    +0.000 A 
ATOM     12  C   UNL     1       7.374   4.892  14.957  0.00  0.00    +0.000 A 
ATOM     13  C   UNL     1       7.286   5.051  16.342  0.00  0.00    +0.000 A 
ATOM     14  C   UNL     1       6.090   4.687  16.992  0.00  0.00    +0.000 A 
ATOM     15  S   UNL     1       5.750   4.790  18.674  0.00  0.00    +0.000 S 
ENDBRANCH   6   7
BRANCH   1  18
ATOM     16  C   UNL     1       1.258   8.456  20.708  0.00  0.00    +0.000 A 
ATOM     17  C   UNL     1       1.412   7.075  20.920  0.00  0.00    +0.000 A 
ATOM     18  C   UNL     1       2.038   6.267  19.974  0.00  0.00    +0.000 A 
ATOM     19  C   UNL     1       2.386   6.833  18.749  0.00  0.00    +0.000 A 
ATOM     20  C   UNL     1       2.217   8.201  18.497  0.00  0.00    +0.000 A 
ATOM     21  C   UNL     1       1.648   9.038  19.479  0.00  0.00    +0.000 A 
BRANCH  16  23
ATOM     22  C   UNL     1      -0.540   8.808  22.223  0.00  0.00    +0.000 C 
ATOM     23  O   UNL     1       0.708   9.245  21.687  0.00  0.00    +0.000 OA
ENDBRANCH  16  23
BRANCH  20  24
ATOM     24  O   UNL     1       2.704   8.526  17.253  0.00  0.00    +0.000 OA
ATOM     25  C   UNL     1       3.781   7.790  16.699  0.00  0.00    +0.000 C 
ENDBRANCH  20  24
BRANCH  21  26
ATOM     26  O   UNL     1       1.534  10.359  19.138  0.00  0.00    +0.000 OA
ATOM     27  C   UNL     1       0.306  10.896  18.683  0.00  0.00    +0.000 C 
ENDBRANCH  21  26
ENDBRANCH   1  18
TORSDOF 5
ENDMDL
MODEL 6
REMARK VINA RESULT:      -6.3      5.038      8.123
REMARK  Name = 
REMARK  9 active torsions:
REMARK  status: ('A' for Active; 'I' for Inactive)
REMARK    1  A    between atoms: C_1  and  O_2
REMARK    2  A    between atoms: O_2  and  C_3
REMARK    3  A    between atoms: C_5  and  C_6
REMARK    4  A    between atoms: N_8  and  C_9
REMARK    5  A    between atoms: C_11  and  C_12
REMARK    6  A    between atoms: C_22  and  O_23
REMARK    7  A    between atoms: O_23  and  C_24
REMARK    8  A    between atoms: C_25  and  O_26
REMARK    9  A    between atoms: O_26  and  C_27
REMARK                            x       y       z     vdW  Elec       q    Type
REMARK                         _______ _______ _______ _____ _____    ______ ____
ROOT
ATOM      1  C   UNL     1       2.298   4.849  20.367  0.00  0.00    +0.000 A 
ATOM      2  N   UNL     1       1.687   4.205  21.379  0.00  0.00    +0.000 NA
ATOM      3  N   UNL     1       2.115   2.944  21.210  0.00  0.00    +0.000 N 
ATOM      4  C   UNL     1       1.761   1.903  22.143  0.00  0.00    +0.000 C 
ATOM      5  N   UNL     1       2.929   2.683  20.176  0.00  0.00    +0.000 NA
ATOM      6  C   UNL     1       3.133   3.913  19.674  0.00  0.00    +0.000 A 
ENDROOT
BRANCH   6   7
ATOM      7  C   UNL     1       4.125   4.144  18.574  0.00  0.00    +0.000 A 
ATOM      8  C   UNL     1       3.858   3.878  17.249  0.00  0.00    +0.000 A 
ATOM      9  C   UNL     1       4.955   4.191  16.380  0.00  0.00    +0.000 A 
ATOM     10  C   UNL     1       5.062   4.111  14.972  0.00  0.00    +0.000 A 
ATOM     11  C   UNL     1       6.263   4.438  14.335  0.00  0.00    +0.000 A 
ATOM     12  C   UNL     1       7.359   4.855  15.078  0.00  0.00    +0.000 A 
ATOM     13  C   UNL     1       7.276   4.965  16.467  0.00  0.00    +0.000 A 
ATOM     14  C   UNL     1       6.065   4.630  17.104  0.00  0.00    +0.000 A 
ATOM     15  S   UNL     1       5.727   4.684  18.789  0.00  0.00    +0.000 S 
ENDBRANCH   6   7
BRANCH   1  18
ATOM     16  C   UNL     1       2.209   8.202  18.641  0.00  0.00    +0.000 A 
ATOM     17  C   UNL     1       2.569   6.885  18.979  0.00  0.00    +0.000 A 
ATOM     18  C   UNL     1       2.042   6.262  20.107  0.00  0.00    +0.000 A 
ATOM     19  C   UNL     1       1.257   7.020  20.973  0.00  0.00    +0.000 A 
ATOM     20  C   UNL     1       0.906   8.343  20.679  0.00  0.00    +0.000 A 
ATOM     21  C   UNL     1       1.379   8.958  19.502  0.00  0.00    +0.000 A 
BRANCH  16  23
ATOM     22  C   UNL     1       3.715   8.055  16.808  0.00  0.00    +0.000 C 
ATOM     23  O   UNL     1       2.680   8.768  17.483  0.00  0.00    +0.000 OA
ENDBRANCH  16  23
BRANCH  20  24
ATOM     24  O   UNL     1       0.067   8.847  21.646  0.00  0.00    +0.000 OA
ATOM     25  C   UNL     1       0.609   9.455  22.806  0.00  0.00    +0.000 C 
ENDBRANCH  20  24
BRANCH  21  26
ATOM     26  O   UNL     1       0.972  10.250  19.303  0.00  0.00    +0.000 OA
ATOM     27  C   UNL     1      -0.201  10.545  18.567  0.00  0.00    +0.000 C 
ENDBRANCH  21  26
ENDBRANCH   1  18
TORSDOF 5
ENDMDL
MODEL 7
REMARK VINA RESULT:      -6.2      0.758      2.734
REMARK  Name = 
REMARK  9 active torsions:
REMARK  status: ('A' for Active; 'I' for Inactive)
REMARK    1  A    between atoms: C_1  and  O_2
REMARK    2  A    between atoms: O_2  and  C_3
REMARK    3  A    between atoms: C_5  and  C_6
REMARK    4  A    between atoms: N_8  and  C_9
REMARK    5  A    between atoms: C_11  and  C_12
REMARK    6  A    between atoms: C_22  and  O_23
REMARK    7  A    between atoms: O_23  and  C_24
REMARK    8  A    between atoms: C_25  and  O_26
REMARK    9  A    between atoms: O_26  and  C_27
REMARK                            x       y       z     vdW  Elec       q    Type
REMARK                         _______ _______ _______ _____ _____    ______ ____
ROOT
ATOM      1  C   UNL     1      -0.224  12.863  18.872  0.00  0.00    +0.000 A 
ATOM      2  N   UNL     1       0.033  14.183  18.813  0.00  0.00    +0.000 NA
ATOM      3  N   UNL     1       1.336  14.232  19.131  0.00  0.00    +0.000 N 
ATOM      4  C   UNL     1       2.064  15.477  19.113  0.00  0.00    +0.000 C 
ATOM      5  N   UNL     1       1.963  13.081  19.417  0.00  0.00    +0.000 NA
ATOM      6  C   UNL     1       1.000  12.178  19.167  0.00  0.00    +0.000 A 
ENDROOT
BRANCH   6   7
ATOM      7  C   UNL     1       1.291  10.707  19.201  0.00  0.00    +0.000 A 
ATOM      8  C   UNL     1       1.077   9.920  20.311  0.00  0.00    +0.000 A 
ATOM      9  C   UNL     1       1.418   8.544  20.100  0.00  0.00    +0.000 A 
ATOM     10  C   UNL     1       1.300   7.427  20.958  0.00  0.00    +0.000 A 
ATOM     11  C   UNL     1       1.740   6.167  20.544  0.00  0.00    +0.000 A 
ATOM     12  C   UNL     1       2.289   5.997  19.280  0.00  0.00    +0.000 A 
ATOM     13  C   UNL     1       2.398   7.078  18.402  0.00  0.00    +0.000 A 
ATOM     14  C   UNL     1       1.956   8.345  18.827  0.00  0.00    +0.000 A 
ATOM     15  S   UNL     1       1.990   9.812  17.930  0.00  0.00    +0.000 S 
ENDBRANCH   6   7
BRANCH   1  18
ATOM     16  C   UNL     1      -3.133  10.913  17.471  0.00  0.00    +0.000 A 
ATOM     17  C   UNL     1      -1.877  11.536  17.587  0.00  0.00    +0.000 A 
ATOM     18  C   UNL     1      -1.575  12.346  18.678  0.00  0.00    +0.000 A 
ATOM     19  C   UNL     1      -2.592  12.641  19.583  0.00  0.00    +0.000 A 
ATOM     20  C   UNL     1      -3.862  12.060  19.477  0.00  0.00    +0.000 A 
ATOM     21  C   UNL     1      -4.153  11.181  18.413  0.00  0.00    +0.000 A 
BRANCH  16  23
ATOM     22  C   UNL     1      -3.302  10.616  15.118  0.00  0.00    +0.000 C 
ATOM     23  O   UNL     1      -3.381  10.056  16.428  0.00  0.00    +0.000 OA
ENDBRANCH  16  23
BRANCH  20  24
ATOM     24  O   UNL     1      -4.660  12.448  20.527  0.00  0.00    +0.000 OA
ATOM     25  C   UNL     1      -4.305  13.576  21.308  0.00  0.00    +0.000 C 
ENDBRANCH  20  24
BRANCH  21  26
ATOM     26  O   UNL     1      -5.419  10.660  18.403  0.00  0.00    +0.000 OA
ATOM     27  C   UNL     1      -6.519  11.414  17.928  0.00  0.00    +0.000 C 
ENDBRANCH  21  26
ENDBRANCH   1  18
TORSDOF 5
ENDMDL
MODEL 8
REMARK VINA RESULT:      -6.2      6.071     10.108
REMARK  Name = 
REMARK  9 active torsions:
REMARK  status: ('A' for Active; 'I' for Inactive)
REMARK    1  A    between atoms: C_1  and  O_2
REMARK    2  A    between atoms: O_2  and  C_3
REMARK    3  A    between atoms: C_5  and  C_6
REMARK    4  A    between atoms: N_8  and  C_9
REMARK    5  A    between atoms: C_11  and  C_12
REMARK    6  A    between atoms: C_22  and  O_23
REMARK    7  A    between atoms: O_23  and  C_24
REMARK    8  A    between atoms: C_25  and  O_26
REMARK    9  A    between atoms: O_26  and  C_27
REMARK                            x       y       z     vdW  Elec       q    Type
REMARK                         _______ _______ _______ _____ _____    ______ ____
ROOT
ATOM      1  C   UNL     1       3.626   4.505  19.459  0.00  0.00    +0.000 A 
ATOM      2  N   UNL     1       3.516   3.266  19.975  0.00  0.00    +0.000 NA
ATOM      3  N   UNL     1       2.554   3.430  20.897  0.00  0.00    +0.000 N 
ATOM      4  C   UNL     1       2.050   2.312  21.655  0.00  0.00    +0.000 C 
ATOM      5  N   UNL     1       2.032   4.654  21.059  0.00  0.00    +0.000 NA
ATOM      6  C   UNL     1       2.643   5.342  20.080  0.00  0.00    +0.000 A 
ENDROOT
BRANCH   6   7
ATOM      7  C   UNL     1       2.251   6.755  19.768  0.00  0.00    +0.000 A 
ATOM      8  C   UNL     1       1.583   7.568  20.657  0.00  0.00    +0.000 A 
ATOM      9  C   UNL     1       1.330   8.881  20.140  0.00  0.00    +0.000 A 
ATOM     10  C   UNL     1       0.725  10.005  20.746  0.00  0.00    +0.000 A 
ATOM     11  C   UNL     1       0.546  11.188  20.024  0.00  0.00    +0.000 A 
ATOM     12  C   UNL     1       0.971  11.274  18.704  0.00  0.00    +0.000 A 
ATOM     13  C   UNL     1       1.592  10.187  18.086  0.00  0.00    +0.000 A 
ATOM     14  C   UNL     1       1.765   8.996  18.818  0.00  0.00    +0.000 A 
ATOM     15  S   UNL     1       2.494   7.538  18.273  0.00  0.00    +0.000 S 
ENDBRANCH   6   7
BRANCH   1  18
ATOM     16  C   UNL     1       5.294   5.085  16.125  0.00  0.00    +0.000 A 
ATOM     17  C   UNL     1       4.381   4.647  17.102  0.00  0.00    +0.000 A 
ATOM     18  C   UNL     1       4.641   4.819  18.458  0.00  0.00    +0.000 A 
ATOM     19  C   UNL     1       5.890   5.310  18.834  0.00  0.00    +0.000 A 
ATOM     20  C   UNL     1       6.832   5.727  17.884  0.00  0.00    +0.000 A 
ATOM     21  C   UNL     1       6.546   5.620  16.507  0.00  0.00    +0.000 A 
BRANCH  16  23
ATOM     22  C   UNL     1       5.346   3.751  14.158  0.00  0.00    +0.000 C 
ATOM     23  O   UNL     1       4.981   4.975  14.794  0.00  0.00    +0.000 OA
ENDBRANCH  16  23
BRANCH  20  24
ATOM     24  O   UNL     1       7.948   6.239  18.504  0.00  0.00    +0.000 OA
ATOM     25  C   UNL     1       8.198   7.634  18.471  0.00  0.00    +0.000 C 
ENDBRANCH  20  24
BRANCH  21  26
ATOM     26  O   UNL     1       7.528   6.062  15.662  0.00  0.00    +0.000 OA
ATOM     27  C   UNL     1       7.966   5.274  14.571  0.00  0.00    +0.000 C 
ENDBRANCH  21  26
ENDBRANCH   1  18
TORSDOF 5
ENDMDL
MODEL 9
REMARK VINA RESULT:      -6.1      1.234      1.599
REMARK  Name = 
REMARK  9 active torsions:
REMARK  status: ('A' for Active; 'I' for Inactive)
REMARK    1  A    between atoms: C_1  and  O_2
REMARK    2  A    between atoms: O_2  and  C_3
REMARK    3  A    between atoms: C_5  and  C_6
REMARK    4  A    between atoms: N_8  and  C_9
REMARK    5  A    between atoms: C_11  and  C_12
REMARK    6  A    between atoms: C_22  and  O_23
REMARK    7  A    between atoms: O_23  and  C_24
REMARK    8  A    between atoms: C_25  and  O_26
REMARK    9  A    between atoms: O_26  and  C_27
REMARK                            x       y       z     vdW  Elec       q    Type
REMARK                         _______ _______ _______ _____ _____    ______ ____
ROOT
ATOM      1  C   UNL     1      -0.384  12.786  19.989  0.00  0.00    +0.000 A 
ATOM      2  N   UNL     1      -0.192  14.058  20.385  0.00  0.00    +0.000 NA
ATOM      3  N   UNL     1       1.041  14.004  20.915  0.00  0.00    +0.000 N 
ATOM      4  C   UNL     1       1.695  15.192  21.404  0.00  0.00    +0.000 C 
ATOM      5  N   UNL     1       1.674  12.822  20.930  0.00  0.00    +0.000 NA
ATOM      6  C   UNL     1       0.812  12.043  20.256  0.00  0.00    +0.000 A 
ENDROOT
BRANCH   6   7
ATOM      7  C   UNL     1       1.172  10.637  19.881  0.00  0.00    +0.000 A 
ATOM      8  C   UNL     1       1.156   9.589  20.775  0.00  0.00    +0.000 A 
ATOM      9  C   UNL     1       1.525   8.337  20.182  0.00  0.00    +0.000 A 
ATOM     10  C   UNL     1       1.583   7.039  20.740  0.00  0.00    +0.000 A 
ATOM     11  C   UNL     1       2.016   5.956  19.968  0.00  0.00    +0.000 A 
ATOM     12  C   UNL     1       2.383   6.144  18.642  0.00  0.00    +0.000 A 
ATOM     13  C   UNL     1       2.314   7.410  18.058  0.00  0.00    +0.000 A 
ATOM     14  C   UNL     1       1.882   8.497  18.842  0.00  0.00    +0.000 A 
ATOM     15  S   UNL     1       1.719  10.136  18.346  0.00  0.00    +0.000 S 
ENDBRANCH   6   7
BRANCH   1  18
ATOM     16  C   UNL     1      -4.080  12.138  19.597  0.00  0.00    +0.000 A 
ATOM     17  C   UNL     1      -2.827  12.408  20.177  0.00  0.00    +0.000 A 
ATOM     18  C   UNL     1      -1.659  12.355  19.423  0.00  0.00    +0.000 A 
ATOM     19  C   UNL     1      -1.740  11.892  18.111  0.00  0.00    +0.000 A 
ATOM     20  C   UNL     1      -2.970  11.587  17.514  0.00  0.00    +0.000 A 
ATOM     21  C   UNL     1      -4.166  11.707  18.252  0.00  0.00    +0.000 A 
BRANCH  16  23
ATOM     22  C   UNL     1      -5.149  13.150  21.464  0.00  0.00    +0.000 C 
ATOM     23  O   UNL     1      -5.225  12.273  20.341  0.00  0.00    +0.000 OA
ENDBRANCH  16  23
BRANCH  20  24
ATOM     24  O   UNL     1      -2.793  11.227  16.199  0.00  0.00    +0.000 OA
ATOM     25  C   UNL     1      -2.676   9.859  15.849  0.00  0.00    +0.000 C 
ENDBRANCH  20  24
BRANCH  21  26
ATOM     26  O   UNL     1      -5.314  11.393  17.577  0.00  0.00    +0.000 OA
ATOM     27  C   UNL     1      -6.165  12.402  17.067  0.00  0.00    +0.000 C 
ENDBRANCH  21  26
ENDBRANCH   1  18
TORSDOF 5
ENDMDL
