MODEL 1
REMARK VINA RESULT:      -5.4      0.000      0.000
REMARK  Name = 
REMARK  1 active torsions:
REMARK  status: ('A' for Active; 'I' for Inactive)
REMARK    1  A    between atoms: C_5  and  C_6
REMARK                            x       y       z     vdW  Elec       q    Type
REMARK                         _______ _______ _______ _____ _____    ______ ____
ROOT
ATOM      1  C   UNL     1       4.426   3.830  17.918  0.00  0.00    +0.000 A 
ATOM      2  C   UNL     1       5.370   4.168  18.875  0.00  0.00    +0.000 A 
ATOM      3  N   UNL     1       6.612   4.607  18.579  0.00  0.00    +0.000 NA
ATOM      4  C   UNL     1       6.927   4.703  17.263  0.00  0.00    +0.000 A 
ATOM      5  C   UNL     1       6.053   4.386  16.229  0.00  0.00    +0.000 A 
ATOM      6  C   UNL     1       4.774   3.945  16.571  0.00  0.00    +0.000 A 
ENDROOT
BRANCH   5   7
ATOM      7  C   UNL     1       6.504   4.523  14.827  0.00  0.00    +0.000 C 
ATOM      8  N   UNL     1       7.546   5.225  14.494  0.00  0.00    +0.000 NA
ATOM      9  C   UNL     1       7.640   5.146  13.024  0.00  0.00    +0.000 C 
ATOM     10  C   UNL     1       6.811   3.945  12.618  0.00  0.00    +0.000 C 
ATOM     11  C   UNL     1       5.753   3.878  13.694  0.00  0.00    +0.000 C 
ENDBRANCH   5   7
TORSDOF 1
ENDMDL
MODEL 2
REMARK VINA RESULT:      -5.3      2.311      3.762
REMARK  Name = 
REMARK  1 active torsions:
REMARK  status: ('A' for Active; 'I' for Inactive)
REMARK    1  A    between atoms: C_5  and  C_6
REMARK                            x       y       z     vdW  Elec       q    Type
REMARK                         _______ _______ _______ _____ _____    ______ ____
ROOT
ATOM      1  C   UNL     1       1.439   3.800  18.013  0.00  0.00    +0.000 A 
ATOM      2  C   UNL     1       1.422   2.635  18.764  0.00  0.00    +0.000 A 
ATOM      3  N   UNL     1       2.537   1.985  19.161  0.00  0.00    +0.000 NA
ATOM      4  C   UNL     1       3.724   2.522  18.780  0.00  0.00    +0.000 A 
ATOM      5  C   UNL     1       3.846   3.682  18.025  0.00  0.00    +0.000 A 
ATOM      6  C   UNL     1       2.673   4.334  17.641  0.00  0.00    +0.000 A 
ENDROOT
BRANCH   5   7
ATOM      7  C   UNL     1       5.192   4.176  17.661  0.00  0.00    +0.000 C 
ATOM      8  N   UNL     1       6.169   4.233  18.516  0.00  0.00    +0.000 NA
ATOM      9  C   UNL     1       7.316   4.809  17.788  0.00  0.00    +0.000 C 
ATOM     10  C   UNL     1       7.006   4.630  16.316  0.00  0.00    +0.000 C 
ATOM     11  C   UNL     1       5.497   4.674  16.275  0.00  0.00    +0.000 C 
ENDBRANCH   5   7
TORSDOF 1
ENDMDL
MODEL 3
REMARK VINA RESULT:      -5.3      2.510      5.439
REMARK  Name = 
REMARK  1 active torsions:
REMARK  status: ('A' for Active; 'I' for Inactive)
REMARK    1  A    between atoms: C_5  and  C_6
REMARK                            x       y       z     vdW  Elec       q    Type
REMARK                         _______ _______ _______ _____ _____    ______ ____
ROOT
ATOM      1  C   UNL     1       5.778   4.316  16.397  0.00  0.00    +0.000 A 
ATOM      2  C   UNL     1       6.689   4.579  17.409  0.00  0.00    +0.000 A 
ATOM      3  N   UNL     1       6.389   4.504  18.723  0.00  0.00    +0.000 NA
ATOM      4  C   UNL     1       5.115   4.160  19.039  0.00  0.00    +0.000 A 
ATOM      5  C   UNL     1       4.130   3.880  18.101  0.00  0.00    +0.000 A 
ATOM      6  C   UNL     1       4.476   3.957  16.750  0.00  0.00    +0.000 A 
ENDROOT
BRANCH   5   7
ATOM      7  C   UNL     1       2.770   3.519  18.558  0.00  0.00    +0.000 C 
ATOM      8  N   UNL     1       2.156   2.450  18.146  0.00  0.00    +0.000 NA
ATOM      9  C   UNL     1       0.829   2.466  18.791  0.00  0.00    +0.000 C 
ATOM     10  C   UNL     1       0.949   3.415  19.966  0.00  0.00    +0.000 C 
ATOM     11  C   UNL     1       2.002   4.397  19.508  0.00  0.00    +0.000 C 
ENDBRANCH   5   7
TORSDOF 1
ENDMDL
MODEL 4
REMARK VINA RESULT:      -5.3      3.235      4.002
REMARK  Name = 
REMARK  1 active torsions:
REMARK  status: ('A' for Active; 'I' for Inactive)
REMARK    1  A    between atoms: C_5  and  C_6
REMARK                            x       y       z     vdW  Elec       q    Type
REMARK                         _______ _______ _______ _____ _____    ______ ____
ROOT
ATOM      1  C   UNL     1       2.658   3.246  17.245  0.00  0.00    +0.000 A 
ATOM      2  C   UNL     1       2.555   2.358  18.304  0.00  0.00    +0.000 A 
ATOM      3  N   UNL     1       3.422   2.324  19.339  0.00  0.00    +0.000 NA
ATOM      4  C   UNL     1       4.445   3.216  19.306  0.00  0.00    +0.000 A 
ATOM      5  C   UNL     1       4.636   4.143  18.289  0.00  0.00    +0.000 A 
ATOM      6  C   UNL     1       3.715   4.156  17.239  0.00  0.00    +0.000 A 
ENDROOT
BRANCH   5   7
ATOM      7  C   UNL     1       5.791   5.065  18.351  0.00  0.00    +0.000 C 
ATOM      8  N   UNL     1       6.812   4.853  19.127  0.00  0.00    +0.000 NA
ATOM      9  C   UNL     1       7.718   6.002  18.933  0.00  0.00    +0.000 C 
ATOM     10  C   UNL     1       7.308   6.638  17.621  0.00  0.00    +0.000 C 
ATOM     11  C   UNL     1       5.831   6.329  17.536  0.00  0.00    +0.000 C 
ENDBRANCH   5   7
TORSDOF 1
ENDMDL
MODEL 5
REMARK VINA RESULT:      -5.3      3.272      4.475
REMARK  Name = 
REMARK  1 active torsions:
REMARK  status: ('A' for Active; 'I' for Inactive)
REMARK    1  A    between atoms: C_5  and  C_6
REMARK                            x       y       z     vdW  Elec       q    Type
REMARK                         _______ _______ _______ _____ _____    ______ ____
ROOT
ATOM      1  C   UNL     1       7.249   6.767  17.622  0.00  0.00    +0.000 A 
ATOM      2  C   UNL     1       7.823   6.364  18.818  0.00  0.00    +0.000 A 
ATOM      3  N   UNL     1       7.242   5.492  19.669  0.00  0.00    +0.000 NA
ATOM      4  C   UNL     1       6.027   5.007  19.310  0.00  0.00    +0.000 A 
ATOM      5  C   UNL     1       5.368   5.351  18.136  0.00  0.00    +0.000 A 
ATOM      6  C   UNL     1       6.001   6.249  17.274  0.00  0.00    +0.000 A 
ENDROOT
BRANCH   5   7
ATOM      7  C   UNL     1       4.040   4.767  17.847  0.00  0.00    +0.000 C 
ATOM      8  N   UNL     1       3.889   3.534  17.465  0.00  0.00    +0.000 NA
ATOM      9  C   UNL     1       2.442   3.349  17.244  0.00  0.00    +0.000 C 
ATOM     10  C   UNL     1       1.760   4.475  17.994  0.00  0.00    +0.000 C 
ATOM     11  C   UNL     1       2.783   5.586  17.950  0.00  0.00    +0.000 C 
ENDBRANCH   5   7
TORSDOF 1
ENDMDL
MODEL 6
REMARK VINA RESULT:      -5.3      2.137      4.899
REMARK  Name = 
REMARK  1 active torsions:
REMARK  status: ('A' for Active; 'I' for Inactive)
REMARK    1  A    between atoms: C_5  and  C_6
REMARK                            x       y       z     vdW  Elec       q    Type
REMARK                         _______ _______ _______ _____ _____    ______ ____
ROOT
ATOM      1  C   UNL     1       6.495   4.349  16.130  0.00  0.00    +0.000 A 
ATOM      2  C   UNL     1       7.289   4.712  17.207  0.00  0.00    +0.000 A 
ATOM      3  N   UNL     1       6.877   4.657  18.492  0.00  0.00    +0.000 NA
ATOM      4  C   UNL     1       5.608   4.227  18.708  0.00  0.00    +0.000 A 
ATOM      5  C   UNL     1       4.735   3.845  17.697  0.00  0.00    +0.000 A 
ATOM      6  C   UNL     1       5.196   3.905  16.381  0.00  0.00    +0.000 A 
ENDROOT
BRANCH   5   7
ATOM      7  C   UNL     1       3.369   3.397  18.046  0.00  0.00    +0.000 C 
ATOM      8  N   UNL     1       3.142   2.321  18.739  0.00  0.00    +0.000 NA
ATOM      9  C   UNL     1       1.675   2.200  18.839  0.00  0.00    +0.000 C 
ATOM     10  C   UNL     1       1.122   3.575  18.527  0.00  0.00    +0.000 C 
ATOM     11  C   UNL     1       2.153   4.154  17.585  0.00  0.00    +0.000 C 
ENDBRANCH   5   7
TORSDOF 1
ENDMDL
MODEL 7
REMARK VINA RESULT:      -5.3      2.417      5.373
REMARK  Name = 
REMARK  1 active torsions:
REMARK  status: ('A' for Active; 'I' for Inactive)
REMARK    1  A    between atoms: C_5  and  C_6
REMARK                            x       y       z     vdW  Elec       q    Type
REMARK                         _______ _______ _______ _____ _____    ______ ____
ROOT
ATOM      1  C   UNL     1       5.666   4.356  16.367  0.00  0.00    +0.000 A 
ATOM      2  C   UNL     1       6.649   4.621  17.308  0.00  0.00    +0.000 A 
ATOM      3  N   UNL     1       6.457   4.518  18.641  0.00  0.00    +0.000 NA
ATOM      4  C   UNL     1       5.220   4.140  19.050  0.00  0.00    +0.000 A 
ATOM      5  C   UNL     1       4.168   3.855  18.188  0.00  0.00    +0.000 A 
ATOM      6  C   UNL     1       4.405   3.962  16.816  0.00  0.00    +0.000 A 
ENDROOT
BRANCH   5   7
ATOM      7  C   UNL     1       2.857   3.456  18.744  0.00  0.00    +0.000 C 
ATOM      8  N   UNL     1       2.278   4.113  19.704  0.00  0.00    +0.000 NA
ATOM      9  C   UNL     1       1.027   3.389  19.999  0.00  0.00    +0.000 C 
ATOM     10  C   UNL     1       0.749   2.528  18.784  0.00  0.00    +0.000 C 
ATOM     11  C   UNL     1       2.130   2.237  18.246  0.00  0.00    +0.000 C 
ENDBRANCH   5   7
TORSDOF 1
ENDMDL
MODEL 8
REMARK VINA RESULT:      -5.3      3.014      5.738
REMARK  Name = 
REMARK  1 active torsions:
REMARK  status: ('A' for Active; 'I' for Inactive)
REMARK    1  A    between atoms: C_5  and  C_6
REMARK                            x       y       z     vdW  Elec       q    Type
REMARK                         _______ _______ _______ _____ _____    ______ ____
ROOT
ATOM      1  C   UNL     1       5.218   4.798  16.089  0.00  0.00    +0.000 A 
ATOM      2  C   UNL     1       5.276   6.160  16.338  0.00  0.00    +0.000 A 
ATOM      3  N   UNL     1       4.441   6.803  17.182  0.00  0.00    +0.000 NA
ATOM      4  C   UNL     1       3.497   6.047  17.798  0.00  0.00    +0.000 A 
ATOM      5  C   UNL     1       3.356   4.677  17.613  0.00  0.00    +0.000 A 
ATOM      6  C   UNL     1       4.243   4.043  16.741  0.00  0.00    +0.000 A 
ENDROOT
BRANCH   5   7
ATOM      7  C   UNL     1       2.286   3.952  18.333  0.00  0.00    +0.000 C 
ATOM      8  N   UNL     1       1.757   2.856  17.876  0.00  0.00    +0.000 NA
ATOM      9  C   UNL     1       0.716   2.469  18.847  0.00  0.00    +0.000 C 
ATOM     10  C   UNL     1       1.044   3.211  20.126  0.00  0.00    +0.000 C 
ATOM     11  C   UNL     1       1.724   4.466  19.630  0.00  0.00    +0.000 C 
ENDBRANCH   5   7
TORSDOF 1
ENDMDL
MODEL 9
REMARK VINA RESULT:      -5.3      2.412      4.045
REMARK  Name = 
REMARK  1 active torsions:
REMARK  status: ('A' for Active; 'I' for Inactive)
REMARK    1  A    between atoms: C_5  and  C_6
REMARK                            x       y       z     vdW  Elec       q    Type
REMARK                         _______ _______ _______ _____ _____    ______ ____
ROOT
ATOM      1  C   UNL     1       2.202   2.386  19.704  0.00  0.00    +0.000 A 
ATOM      2  C   UNL     1       1.155   2.753  18.873  0.00  0.00    +0.000 A 
ATOM      3  N   UNL     1       1.312   3.498  17.757  0.00  0.00    +0.000 NA
ATOM      4  C   UNL     1       2.574   3.903  17.467  0.00  0.00    +0.000 A 
ATOM      5  C   UNL     1       3.687   3.591  18.238  0.00  0.00    +0.000 A 
ATOM      6  C   UNL     1       3.491   2.810  19.379  0.00  0.00    +0.000 A 
ENDROOT
BRANCH   5   7
ATOM      7  C   UNL     1       5.019   4.090  17.831  0.00  0.00    +0.000 C 
ATOM      8  N   UNL     1       5.983   4.280  18.681  0.00  0.00    +0.000 NA
ATOM      9  C   UNL     1       7.117   4.813  17.902  0.00  0.00    +0.000 C 
ATOM     10  C   UNL     1       6.831   4.458  16.457  0.00  0.00    +0.000 C 
ATOM     11  C   UNL     1       5.322   4.441  16.400  0.00  0.00    +0.000 C 
ENDBRANCH   5   7
TORSDOF 1
ENDMDL
