MODEL 1
REMARK VINA RESULT:      -7.5      0.000      0.000
REMARK  Name = 
REMARK  6 active torsions:
REMARK  status: ('A' for Active; 'I' for Inactive)
REMARK    1  A    between atoms: C_1  and  C_2
REMARK    2  A    between atoms: C_2  and  C_3
REMARK    3  A    between atoms: C_2  and  C_4
REMARK    4  A    between atoms: C_4  and  C_5
REMARK    5  A    between atoms: C_7  and  C_8
REMARK    6  A    between atoms: N_17  and  C_18
REMARK                            x       y       z     vdW  Elec       q    Type
REMARK                         _______ _______ _______ _____ _____    ______ ____
ROOT
ATOM      1  C   UNL     1       7.175   4.615  16.301  0.00  0.00    +0.000 C 
ATOM      2  O   UNL     1       8.182   4.270  16.923  0.00  0.00    +0.000 OA
ATOM      3  N   UNL     1       6.084   5.185  16.960  0.00  0.00    +0.000 N 
ATOM      4  C   UNL     1       4.893   5.677  16.257  0.00  0.00    +0.000 C 
ATOM      5  C   UNL     1       4.111   6.712  17.064  0.00  0.00    +0.000 C 
ATOM      6  C   UNL     1       5.050   7.793  17.622  0.00  0.00    +0.000 C 
ATOM      7  C   UNL     1       6.323   7.232  18.248  0.00  0.00    +0.000 C 
ATOM      8  C   UNL     1       6.290   5.705  18.323  0.00  0.00    +0.000 C 
ATOM      9  C   UNL     1       5.254   5.228  19.373  0.00  0.00    +0.000 C 
ATOM     10  N   UNL     1       3.882   4.967  18.919  0.00  0.00    +0.000 NA
ATOM     11  C   UNL     1       3.254   6.043  18.150  0.00  0.00    +0.000 C 
ENDROOT
BRANCH  10  12
ATOM     12  C   UNL     1       2.983   4.435  19.970  0.00  0.00    +0.000 C 
ATOM     13  C   UNL     1       3.455   3.120  20.622  0.00  0.00    +0.000 C 
ATOM     14  C   UNL     1       2.454   2.646  21.659  0.00  0.00    +0.000 C 
ATOM     15  O   UNL     1       1.162   2.490  21.077  0.00  0.00    +0.000 OA
ATOM     16  C   UNL     1       0.645   3.722  20.580  0.00  0.00    +0.000 C 
ATOM     17  C   UNL     1       1.532   4.280  19.478  0.00  0.00    +0.000 C 
ENDBRANCH  10  12
BRANCH   1  20
ATOM     18  C   UNL     1       6.878   4.134  12.714  0.00  0.00    +0.000 A 
ATOM     19  C   UNL     1       6.523   3.711  14.009  0.00  0.00    +0.000 A 
ATOM     20  C   UNL     1       7.176   4.572  14.856  0.00  0.00    +0.000 A 
ATOM     21  O   UNL     1       7.890   5.460  14.104  0.00  0.00    +0.000 OA
ATOM     22  N   UNL     1       7.723   5.172  12.756  0.00  0.00    +0.000 NA
BRANCH  18  23
ATOM     23  C   UNL     1       6.359   3.593  11.427  0.00  0.00    +0.000 C 
BRANCH  23  25
ATOM     24  C   UNL     1       3.957   2.972  10.845  0.00  0.00    +0.000 C 
ATOM     25  C   UNL     1       5.250   2.539  11.545  0.00  0.00    +0.000 C 
ATOM     26  C   UNL     1       5.748   1.221  10.939  0.00  0.00    +0.000 C 
ENDBRANCH  23  25
ENDBRANCH  18  23
ENDBRANCH   1  20
TORSDOF 4
ENDMDL
MODEL 2
REMARK VINA RESULT:      -6.9      0.814      1.279
REMARK  Name = 
REMARK  6 active torsions:
REMARK  status: ('A' for Active; 'I' for Inactive)
REMARK    1  A    between atoms: C_1  and  C_2
REMARK    2  A    between atoms: C_2  and  C_3
REMARK    3  A    between atoms: C_2  and  C_4
REMARK    4  A    between atoms: C_4  and  C_5
REMARK    5  A    between atoms: C_7  and  C_8
REMARK    6  A    between atoms: N_17  and  C_18
REMARK                            x       y       z     vdW  Elec       q    Type
REMARK                         _______ _______ _______ _____ _____    ______ ____
ROOT
ATOM      1  C   UNL     1       7.000   4.627  16.582  0.00  0.00    +0.000 C 
ATOM      2  O   UNL     1       8.002   4.562  17.298  0.00  0.00    +0.000 OA
ATOM      3  N   UNL     1       5.735   4.839  17.133  0.00  0.00    +0.000 N 
ATOM      4  C   UNL     1       4.524   4.995  16.320  0.00  0.00    +0.000 C 
ATOM      5  C   UNL     1       3.406   5.736  17.053  0.00  0.00    +0.000 C 
ATOM      6  C   UNL     1       3.939   7.020  17.707  0.00  0.00    +0.000 C 
ATOM      7  C   UNL     1       5.257   6.824  18.453  0.00  0.00    +0.000 C 
ATOM      8  C   UNL     1       5.656   5.349  18.514  0.00  0.00    +0.000 C 
ATOM      9  C   UNL     1       4.708   4.561  19.453  0.00  0.00    +0.000 C 
ATOM     10  N   UNL     1       3.517   3.935  18.865  0.00  0.00    +0.000 NA
ATOM     11  C   UNL     1       2.680   4.814  18.044  0.00  0.00    +0.000 C 
ENDROOT
BRANCH  10  12
ATOM     12  C   UNL     1       2.715   3.133  19.818  0.00  0.00    +0.000 C 
ATOM     13  C   UNL     1       1.481   3.854  20.395  0.00  0.00    +0.000 C 
ATOM     14  C   UNL     1       0.749   2.961  21.379  0.00  0.00    +0.000 C 
ATOM     15  O   UNL     1       1.624   2.539  22.422  0.00  0.00    +0.000 OA
ATOM     16  C   UNL     1       2.710   1.757  21.930  0.00  0.00    +0.000 C 
ATOM     17  C   UNL     1       3.568   2.564  20.967  0.00  0.00    +0.000 C 
ENDBRANCH  10  12
BRANCH   1  20
ATOM     18  C   UNL     1       7.086   4.262  12.970  0.00  0.00    +0.000 A 
ATOM     19  C   UNL     1       6.624   3.778  14.208  0.00  0.00    +0.000 A 
ATOM     20  C   UNL     1       7.148   4.635  15.144  0.00  0.00    +0.000 A 
ATOM     21  O   UNL     1       7.890   5.581  14.496  0.00  0.00    +0.000 OA
ATOM     22  N   UNL     1       7.872   5.334  13.130  0.00  0.00    +0.000 NA
BRANCH  18  23
ATOM     23  C   UNL     1       6.725   3.745  11.621  0.00  0.00    +0.000 C 
BRANCH  23  25
ATOM     24  C   UNL     1       4.376   2.982  10.994  0.00  0.00    +0.000 C 
ATOM     25  C   UNL     1       5.726   2.581  11.598  0.00  0.00    +0.000 C 
ATOM     26  C   UNL     1       6.327   1.424  10.791  0.00  0.00    +0.000 C 
ENDBRANCH  23  25
ENDBRANCH  18  23
ENDBRANCH   1  20
TORSDOF 4
ENDMDL
MODEL 3
REMARK VINA RESULT:      -6.7      7.757     10.192
REMARK  Name = 
REMARK  6 active torsions:
REMARK  status: ('A' for Active; 'I' for Inactive)
REMARK    1  A    between atoms: C_1  and  C_2
REMARK    2  A    between atoms: C_2  and  C_3
REMARK    3  A    between atoms: C_2  and  C_4
REMARK    4  A    between atoms: C_4  and  C_5
REMARK    5  A    between atoms: C_7  and  C_8
REMARK    6  A    between atoms: N_17  and  C_18
REMARK                            x       y       z     vdW  Elec       q    Type
REMARK                         _______ _______ _______ _____ _____    ______ ____
ROOT
ATOM      1  C   UNL     1       0.095  10.293  21.128  0.00  0.00    +0.000 C 
ATOM      2  O   UNL     1       0.329  10.758  22.246  0.00  0.00    +0.000 OA
ATOM      3  N   UNL     1      -0.760  10.950  20.241  0.00  0.00    +0.000 N 
ATOM      4  C   UNL     1      -1.014  10.477  18.876  0.00  0.00    +0.000 C 
ATOM      5  C   UNL     1      -1.507  11.582  17.944  0.00  0.00    +0.000 C 
ATOM      6  C   UNL     1      -0.620  12.832  18.061  0.00  0.00    +0.000 C 
ATOM      7  C   UNL     1      -0.299  13.220  19.502  0.00  0.00    +0.000 C 
ATOM      8  C   UNL     1      -1.078  12.365  20.503  0.00  0.00    +0.000 C 
ATOM      9  C   UNL     1      -2.587  12.717  20.471  0.00  0.00    +0.000 C 
ATOM     10  N   UNL     1      -3.453  11.958  19.560  0.00  0.00    +0.000 NA
ATOM     11  C   UNL     1      -2.997  11.881  18.170  0.00  0.00    +0.000 C 
ENDROOT
BRANCH  10  12
ATOM     12  C   UNL     1      -4.891  12.303  19.657  0.00  0.00    +0.000 C 
ATOM     13  C   UNL     1      -5.428  12.445  21.095  0.00  0.00    +0.000 C 
ATOM     14  C   UNL     1      -6.910  12.769  21.084  0.00  0.00    +0.000 C 
ATOM     15  O   UNL     1      -7.637  11.775  20.366  0.00  0.00    +0.000 OA
ATOM     16  C   UNL     1      -7.249  11.711  18.995  0.00  0.00    +0.000 C 
ATOM     17  C   UNL     1      -5.782  11.331  18.863  0.00  0.00    +0.000 C 
ENDBRANCH  10  12
BRANCH   1  20
ATOM     18  C   UNL     1       1.794   7.172  20.378  0.00  0.00    +0.000 A 
ATOM     19  C   UNL     1       1.007   7.918  21.276  0.00  0.00    +0.000 A 
ATOM     20  C   UNL     1       0.827   9.135  20.667  0.00  0.00    +0.000 A 
ATOM     21  O   UNL     1       1.480   9.119  19.467  0.00  0.00    +0.000 OA
ATOM     22  N   UNL     1       2.109   7.893  19.293  0.00  0.00    +0.000 NA
BRANCH  18  23
ATOM     23  C   UNL     1       2.194   5.745  20.517  0.00  0.00    +0.000 C 
BRANCH  23  25
ATOM     24  C   UNL     1       1.692   4.325  18.462  0.00  0.00    +0.000 C 
ATOM     25  C   UNL     1       1.250   4.721  19.874  0.00  0.00    +0.000 C 
ATOM     26  C   UNL     1       1.188   3.473  20.764  0.00  0.00    +0.000 C 
ENDBRANCH  23  25
ENDBRANCH  18  23
ENDBRANCH   1  20
TORSDOF 4
ENDMDL
MODEL 4
REMARK VINA RESULT:      -6.5      7.892     10.197
REMARK  Name = 
REMARK  6 active torsions:
REMARK  status: ('A' for Active; 'I' for Inactive)
REMARK    1  A    between atoms: C_1  and  C_2
REMARK    2  A    between atoms: C_2  and  C_3
REMARK    3  A    between atoms: C_2  and  C_4
REMARK    4  A    between atoms: C_4  and  C_5
REMARK    5  A    between atoms: C_7  and  C_8
REMARK    6  A    between atoms: N_17  and  C_18
REMARK                            x       y       z     vdW  Elec       q    Type
REMARK                         _______ _______ _______ _____ _____    ______ ____
ROOT
ATOM      1  C   UNL     1       0.598  10.689  20.804  0.00  0.00    +0.000 C 
ATOM      2  O   UNL     1       1.232  11.403  21.584  0.00  0.00    +0.000 OA
ATOM      3  N   UNL     1      -0.509  11.184  20.114  0.00  0.00    +0.000 N 
ATOM      4  C   UNL     1      -1.252  10.397  19.123  0.00  0.00    +0.000 C 
ATOM      5  C   UNL     1      -2.031  11.265  18.135  0.00  0.00    +0.000 C 
ATOM      6  C   UNL     1      -1.139  12.381  17.567  0.00  0.00    +0.000 C 
ATOM      7  C   UNL     1      -0.309  13.098  18.628  0.00  0.00    +0.000 C 
ATOM      8  C   UNL     1      -0.684  12.646  20.040  0.00  0.00    +0.000 C 
ATOM      9  C   UNL     1      -2.095  13.160  20.426  0.00  0.00    +0.000 C 
ATOM     10  N   UNL     1      -3.247  12.297  20.133  0.00  0.00    +0.000 NA
ATOM     11  C   UNL     1      -3.330  11.795  18.761  0.00  0.00    +0.000 C 
ENDROOT
BRANCH  10  12
ATOM     12  C   UNL     1      -4.544  12.831  20.612  0.00  0.00    +0.000 C 
ATOM     13  C   UNL     1      -4.719  12.833  22.144  0.00  0.00    +0.000 C 
ATOM     14  C   UNL     1      -6.086  13.368  22.526  0.00  0.00    +0.000 C 
ATOM     15  O   UNL     1      -7.117  12.610  21.899  0.00  0.00    +0.000 OA
ATOM     16  C   UNL     1      -7.057  12.695  20.477  0.00  0.00    +0.000 C 
ATOM     17  C   UNL     1      -5.746  12.129  19.953  0.00  0.00    +0.000 C 
ENDBRANCH  10  12
BRANCH   1  20
ATOM     18  C   UNL     1       1.669   7.239  20.427  0.00  0.00    +0.000 A 
ATOM     19  C   UNL     1       1.056   8.218  21.233  0.00  0.00    +0.000 A 
ATOM     20  C   UNL     1       1.090   9.368  20.483  0.00  0.00    +0.000 A 
ATOM     21  O   UNL     1       1.698   9.090  19.292  0.00  0.00    +0.000 OA
ATOM     22  N   UNL     1       2.084   7.756  19.264  0.00  0.00    +0.000 NA
BRANCH  18  23
ATOM     23  C   UNL     1       1.801   5.788  20.735  0.00  0.00    +0.000 C 
BRANCH  23  25
ATOM     24  C   UNL     1       3.495   4.393  19.440  0.00  0.00    +0.000 C 
ATOM     25  C   UNL     1       2.041   4.869  19.531  0.00  0.00    +0.000 C 
ATOM     26  C   UNL     1       1.107   3.657  19.635  0.00  0.00    +0.000 C 
ENDBRANCH  23  25
ENDBRANCH  18  23
ENDBRANCH   1  20
TORSDOF 4
ENDMDL
MODEL 5
REMARK VINA RESULT:      -6.5      7.419      9.815
REMARK  Name = 
REMARK  6 active torsions:
REMARK  status: ('A' for Active; 'I' for Inactive)
REMARK    1  A    between atoms: C_1  and  C_2
REMARK    2  A    between atoms: C_2  and  C_3
REMARK    3  A    between atoms: C_2  and  C_4
REMARK    4  A    between atoms: C_4  and  C_5
REMARK    5  A    between atoms: C_7  and  C_8
REMARK    6  A    between atoms: N_17  and  C_18
REMARK                            x       y       z     vdW  Elec       q    Type
REMARK                         _______ _______ _______ _____ _____    ______ ____
ROOT
ATOM      1  C   UNL     1       0.945   9.441  21.350  0.00  0.00    +0.000 C 
ATOM      2  O   UNL     1       1.246   9.595  22.535  0.00  0.00    +0.000 OA
ATOM      3  N   UNL     1       0.220  10.414  20.660  0.00  0.00    +0.000 N 
ATOM      4  C   UNL     1      -0.101  10.310  19.232  0.00  0.00    +0.000 C 
ATOM      5  C   UNL     1      -0.392  11.664  18.587  0.00  0.00    +0.000 C 
ATOM      6  C   UNL     1       0.694  12.689  18.952  0.00  0.00    +0.000 C 
ATOM      7  C   UNL     1       1.065  12.682  20.433  0.00  0.00    +0.000 C 
ATOM      8  C   UNL     1       0.146  11.766  21.241  0.00  0.00    +0.000 C 
ATOM      9  C   UNL     1      -1.282  12.364  21.336  0.00  0.00    +0.000 C 
ATOM     10  N   UNL     1      -2.257  11.985  20.306  0.00  0.00    +0.000 NA
ATOM     11  C   UNL     1      -1.811  12.149  18.921  0.00  0.00    +0.000 C 
ENDROOT
BRANCH  10  12
ATOM     12  C   UNL     1      -3.616  12.535  20.523  0.00  0.00    +0.000 C 
ATOM     13  C   UNL     1      -4.595  12.327  19.350  0.00  0.00    +0.000 C 
ATOM     14  C   UNL     1      -5.943  12.950  19.660  0.00  0.00    +0.000 C 
ATOM     15  O   UNL     1      -5.800  14.336  19.962  0.00  0.00    +0.000 OA
ATOM     16  C   UNL     1      -5.002  14.552  21.124  0.00  0.00    +0.000 C 
ATOM     17  C   UNL     1      -3.591  14.022  20.921  0.00  0.00    +0.000 C 
ENDBRANCH  10  12
BRANCH   1  20
ATOM     18  C   UNL     1       2.120   6.333  19.882  0.00  0.00    +0.000 A 
ATOM     19  C   UNL     1       1.496   6.982  20.965  0.00  0.00    +0.000 A 
ATOM     20  C   UNL     1       1.473   8.310  20.619  0.00  0.00    +0.000 A 
ATOM     21  O   UNL     1       2.059   8.448  19.393  0.00  0.00    +0.000 OA
ATOM     22  N   UNL     1       2.488   7.209  18.938  0.00  0.00    +0.000 NA
BRANCH  18  23
ATOM     23  C   UNL     1       2.308   4.866  19.711  0.00  0.00    +0.000 C 
BRANCH  23  25
ATOM     24  C   UNL     1       0.693   2.898  19.596  0.00  0.00    +0.000 C 
ATOM     25  C   UNL     1       1.327   3.973  20.484  0.00  0.00    +0.000 C 
ATOM     26  C   UNL     1       2.071   3.308  21.648  0.00  0.00    +0.000 C 
ENDBRANCH  23  25
ENDBRANCH  18  23
ENDBRANCH   1  20
TORSDOF 4
ENDMDL
MODEL 6
REMARK VINA RESULT:      -6.5      7.184      9.664
REMARK  Name = 
REMARK  6 active torsions:
REMARK  status: ('A' for Active; 'I' for Inactive)
REMARK    1  A    between atoms: C_1  and  C_2
REMARK    2  A    between atoms: C_2  and  C_3
REMARK    3  A    between atoms: C_2  and  C_4
REMARK    4  A    between atoms: C_4  and  C_5
REMARK    5  A    between atoms: C_7  and  C_8
REMARK    6  A    between atoms: N_17  and  C_18
REMARK                            x       y       z     vdW  Elec       q    Type
REMARK                         _______ _______ _______ _____ _____    ______ ____
ROOT
ATOM      1  C   UNL     1       1.071   9.396  21.488  0.00  0.00    +0.000 C 
ATOM      2  O   UNL     1       1.531   9.652  22.603  0.00  0.00    +0.000 OA
ATOM      3  N   UNL     1       0.350  10.352  20.771  0.00  0.00    +0.000 N 
ATOM      4  C   UNL     1      -0.155  10.120  19.413  0.00  0.00    +0.000 C 
ATOM      5  C   UNL     1      -0.410  11.415  18.643  0.00  0.00    +0.000 C 
ATOM      6  C   UNL     1       0.797  12.361  18.752  0.00  0.00    +0.000 C 
ATOM      7  C   UNL     1       1.350  12.485  20.169  0.00  0.00    +0.000 C 
ATOM      8  C   UNL     1       0.465  11.762  21.185  0.00  0.00    +0.000 C 
ATOM      9  C   UNL     1      -0.883  12.505  21.368  0.00  0.00    +0.000 C 
ATOM     10  N   UNL     1      -2.010  12.112  20.511  0.00  0.00    +0.000 NA
ATOM     11  C   UNL     1      -1.729  12.073  19.075  0.00  0.00    +0.000 C 
ENDROOT
BRANCH  10  12
ATOM     12  C   UNL     1      -3.278  12.815  20.813  0.00  0.00    +0.000 C 
ATOM     13  C   UNL     1      -3.804  12.617  22.249  0.00  0.00    +0.000 C 
ATOM     14  C   UNL     1      -5.118  13.351  22.445  0.00  0.00    +0.000 C 
ATOM     15  O   UNL     1      -6.082  12.920  21.487  0.00  0.00    +0.000 OA
ATOM     16  C   UNL     1      -5.678  13.209  20.151  0.00  0.00    +0.000 C 
ATOM     17  C   UNL     1      -4.390  12.479  19.802  0.00  0.00    +0.000 C 
ENDBRANCH  10  12
BRANCH   1  20
ATOM     18  C   UNL     1       1.638   6.042  20.215  0.00  0.00    +0.000 A 
ATOM     19  C   UNL     1       1.032   6.865  21.183  0.00  0.00    +0.000 A 
ATOM     20  C   UNL     1       1.404   8.143  20.847  0.00  0.00    +0.000 A 
ATOM     21  O   UNL     1       2.197   8.085  19.736  0.00  0.00    +0.000 OA
ATOM     22  N   UNL     1       2.364   6.762  19.350  0.00  0.00    +0.000 NA
BRANCH  18  23
ATOM     23  C   UNL     1       1.470   4.570  20.068  0.00  0.00    +0.000 C 
BRANCH  23  25
ATOM     24  C   UNL     1       1.617   2.634  21.719  0.00  0.00    +0.000 C 
ATOM     25  C   UNL     1       2.389   3.703  20.938  0.00  0.00    +0.000 C 
ATOM     26  C   UNL     1       3.437   3.031  20.042  0.00  0.00    +0.000 C 
ENDBRANCH  23  25
ENDBRANCH  18  23
ENDBRANCH   1  20
TORSDOF 4
ENDMDL
MODEL 7
REMARK VINA RESULT:      -6.4      7.765      9.900
REMARK  Name = 
REMARK  6 active torsions:
REMARK  status: ('A' for Active; 'I' for Inactive)
REMARK    1  A    between atoms: C_1  and  C_2
REMARK    2  A    between atoms: C_2  and  C_3
REMARK    3  A    between atoms: C_2  and  C_4
REMARK    4  A    between atoms: C_4  and  C_5
REMARK    5  A    between atoms: C_7  and  C_8
REMARK    6  A    between atoms: N_17  and  C_18
REMARK                            x       y       z     vdW  Elec       q    Type
REMARK                         _______ _______ _______ _____ _____    ______ ____
ROOT
ATOM      1  C   UNL     1       0.692  10.591  20.779  0.00  0.00    +0.000 C 
ATOM      2  O   UNL     1       1.321  11.221  21.633  0.00  0.00    +0.000 OA
ATOM      3  N   UNL     1      -0.402  11.161  20.126  0.00  0.00    +0.000 N 
ATOM      4  C   UNL     1      -1.136  10.480  19.054  0.00  0.00    +0.000 C 
ATOM      5  C   UNL     1      -1.895  11.447  18.146  0.00  0.00    +0.000 C 
ATOM      6  C   UNL     1      -0.988  12.605  17.701  0.00  0.00    +0.000 C 
ATOM      7  C   UNL     1      -0.167  13.209  18.837  0.00  0.00    +0.000 C 
ATOM      8  C   UNL     1      -0.565  12.624  20.193  0.00  0.00    +0.000 C 
ATOM      9  C   UNL     1      -1.978  13.110  20.609  0.00  0.00    +0.000 C 
ATOM     10  N   UNL     1      -3.132  12.289  20.219  0.00  0.00    +0.000 NA
ATOM     11  C   UNL     1      -3.199  11.924  18.803  0.00  0.00    +0.000 C 
ENDROOT
BRANCH  10  12
ATOM     12  C   UNL     1      -4.431  12.784  20.731  0.00  0.00    +0.000 C 
ATOM     13  C   UNL     1      -4.568  12.781  22.266  0.00  0.00    +0.000 C 
ATOM     14  C   UNL     1      -5.940  13.275  22.683  0.00  0.00    +0.000 C 
ATOM     15  O   UNL     1      -6.964  12.487  22.081  0.00  0.00    +0.000 OA
ATOM     16  C   UNL     1      -6.941  12.575  20.658  0.00  0.00    +0.000 C 
ATOM     17  C   UNL     1      -5.628  12.048  20.101  0.00  0.00    +0.000 C 
ENDBRANCH  10  12
BRANCH   1  20
ATOM     18  C   UNL     1       2.014   7.573  19.251  0.00  0.00    +0.000 A 
ATOM     19  C   UNL     1       1.697   8.939  19.119  0.00  0.00    +0.000 A 
ATOM     20  C   UNL     1       1.180   9.304  20.337  0.00  0.00    +0.000 A 
ATOM     21  O   UNL     1       1.184   8.210  21.154  0.00  0.00    +0.000 OA
ATOM     22  N   UNL     1       1.686   7.114  20.466  0.00  0.00    +0.000 NA
BRANCH  18  23
ATOM     23  C   UNL     1       2.694   6.715  18.242  0.00  0.00    +0.000 C 
BRANCH  23  25
ATOM     24  C   UNL     1       1.609   4.464  17.746  0.00  0.00    +0.000 C 
ATOM     25  C   UNL     1       2.690   5.209  18.534  0.00  0.00    +0.000 C 
ATOM     26  C   UNL     1       4.069   4.632  18.191  0.00  0.00    +0.000 C 
ENDBRANCH  23  25
ENDBRANCH  18  23
ENDBRANCH   1  20
TORSDOF 4
ENDMDL
MODEL 8
REMARK VINA RESULT:      -6.3      7.218      9.330
REMARK  Name = 
REMARK  6 active torsions:
REMARK  status: ('A' for Active; 'I' for Inactive)
REMARK    1  A    between atoms: C_1  and  C_2
REMARK    2  A    between atoms: C_2  and  C_3
REMARK    3  A    between atoms: C_2  and  C_4
REMARK    4  A    between atoms: C_4  and  C_5
REMARK    5  A    between atoms: C_7  and  C_8
REMARK    6  A    between atoms: N_17  and  C_18
REMARK                            x       y       z     vdW  Elec       q    Type
REMARK                         _______ _______ _______ _____ _____    ______ ____
ROOT
ATOM      1  C   UNL     1       1.048   9.528  21.374  0.00  0.00    +0.000 C 
ATOM      2  O   UNL     1       1.439   9.722  22.527  0.00  0.00    +0.000 OA
ATOM      3  N   UNL     1       0.328  10.506  20.685  0.00  0.00    +0.000 N 
ATOM      4  C   UNL     1      -0.096  10.352  19.289  0.00  0.00    +0.000 C 
ATOM      5  C   UNL     1      -0.362  11.687  18.597  0.00  0.00    +0.000 C 
ATOM      6  C   UNL     1       0.798  12.667  18.836  0.00  0.00    +0.000 C 
ATOM      7  C   UNL     1       1.271  12.711  20.286  0.00  0.00    +0.000 C 
ATOM      8  C   UNL     1       0.364  11.886  21.201  0.00  0.00    +0.000 C 
ATOM      9  C   UNL     1      -1.021  12.565  21.360  0.00  0.00    +0.000 C 
ATOM     10  N   UNL     1      -2.084  12.192  20.418  0.00  0.00    +0.000 NA
ATOM     11  C   UNL     1      -1.727  12.264  19.000  0.00  0.00    +0.000 C 
ENDROOT
BRANCH  10  12
ATOM     12  C   UNL     1      -3.394  12.825  20.697  0.00  0.00    +0.000 C 
ATOM     13  C   UNL     1      -3.908  12.643  22.139  0.00  0.00    +0.000 C 
ATOM     14  C   UNL     1      -5.265  13.300  22.311  0.00  0.00    +0.000 C 
ATOM     15  O   UNL     1      -6.200  12.779  21.369  0.00  0.00    +0.000 OA
ATOM     16  C   UNL     1      -5.812  13.048  20.024  0.00  0.00    +0.000 C 
ATOM     17  C   UNL     1      -4.482  12.387  19.699  0.00  0.00    +0.000 C 
ENDBRANCH  10  12
BRANCH   1  20
ATOM     18  C   UNL     1       2.235   6.832  19.251  0.00  0.00    +0.000 A 
ATOM     19  C   UNL     1       2.034   8.214  19.425  0.00  0.00    +0.000 A 
ATOM     20  C   UNL     1       1.465   8.337  20.668  0.00  0.00    +0.000 A 
ATOM     21  O   UNL     1       1.329   7.090  21.207  0.00  0.00    +0.000 OA
ATOM     22  N   UNL     1       1.792   6.139  20.307  0.00  0.00    +0.000 NA
BRANCH  18  23
ATOM     23  C   UNL     1       2.915   6.169  18.103  0.00  0.00    +0.000 C 
BRANCH  23  25
ATOM     24  C   UNL     1       1.546   4.069  17.650  0.00  0.00    +0.000 C 
ATOM     25  C   UNL     1       2.893   4.635  18.110  0.00  0.00    +0.000 C 
ATOM     26  C   UNL     1       4.009   4.117  17.195  0.00  0.00    +0.000 C 
ENDBRANCH  23  25
ENDBRANCH  18  23
ENDBRANCH   1  20
TORSDOF 4
ENDMDL
MODEL 9
REMARK VINA RESULT:      -6.3      5.875      8.621
REMARK  Name = 
REMARK  6 active torsions:
REMARK  status: ('A' for Active; 'I' for Inactive)
REMARK    1  A    between atoms: C_1  and  C_2
REMARK    2  A    between atoms: C_2  and  C_3
REMARK    3  A    between atoms: C_2  and  C_4
REMARK    4  A    between atoms: C_4  and  C_5
REMARK    5  A    between atoms: C_7  and  C_8
REMARK    6  A    between atoms: N_17  and  C_18
REMARK                            x       y       z     vdW  Elec       q    Type
REMARK                         _______ _______ _______ _____ _____    ______ ____
ROOT
ATOM      1  C   UNL     1       2.330   8.051  18.620  0.00  0.00    +0.000 C 
ATOM      2  O   UNL     1       2.837   8.156  17.501  0.00  0.00    +0.000 OA
ATOM      3  N   UNL     1       1.627   9.112  19.193  0.00  0.00    +0.000 N 
ATOM      4  C   UNL     1       0.946   9.012  20.489  0.00  0.00    +0.000 C 
ATOM      5  C   UNL     1      -0.169  10.044  20.657  0.00  0.00    +0.000 C 
ATOM      6  C   UNL     1      -1.085  10.064  19.422  0.00  0.00    +0.000 C 
ATOM      7  C   UNL     1      -0.326  10.060  18.098  0.00  0.00    +0.000 C 
ATOM      8  C   UNL     1       1.182  10.206  18.312  0.00  0.00    +0.000 C 
ATOM      9  C   UNL     1       1.532  11.633  18.807  0.00  0.00    +0.000 C 
ATOM     10  N   UNL     1       1.576  11.869  20.256  0.00  0.00    +0.000 NA
ATOM     11  C   UNL     1       0.398  11.429  21.005  0.00  0.00    +0.000 C 
ENDROOT
BRANCH  10  12
ATOM     12  C   UNL     1       2.001  13.236  20.637  0.00  0.00    +0.000 C 
ATOM     13  C   UNL     1       0.943  14.054  21.404  0.00  0.00    +0.000 C 
ATOM     14  C   UNL     1       1.465  15.443  21.719  0.00  0.00    +0.000 C 
ATOM     15  O   UNL     1       1.861  16.116  20.527  0.00  0.00    +0.000 OA
ATOM     16  C   UNL     1       2.931  15.447  19.863  0.00  0.00    +0.000 C 
ATOM     17  C   UNL     1       2.515  14.048  19.434  0.00  0.00    +0.000 C 
ENDBRANCH  10  12
BRANCH   1  20
ATOM     18  C   UNL     1       2.576   4.668  19.918  0.00  0.00    +0.000 A 
ATOM     19  C   UNL     1       2.855   5.569  18.873  0.00  0.00    +0.000 A 
ATOM     20  C   UNL     1       2.332   6.769  19.289  0.00  0.00    +0.000 A 
ATOM     21  O   UNL     1       1.765   6.590  20.518  0.00  0.00    +0.000 OA
ATOM     22  N   UNL     1       1.896   5.263  20.906  0.00  0.00    +0.000 NA
BRANCH  18  23
ATOM     23  C   UNL     1       3.017   3.248  20.010  0.00  0.00    +0.000 C 
BRANCH  23  25
ATOM     24  C   UNL     1       0.757   2.644  19.000  0.00  0.00    +0.000 C 
ATOM     25  C   UNL     1       2.229   2.247  19.155  0.00  0.00    +0.000 C 
ATOM     26  C   UNL     1       2.884   2.148  17.772  0.00  0.00    +0.000 C 
ENDBRANCH  23  25
ENDBRANCH  18  23
ENDBRANCH   1  20
TORSDOF 4
ENDMDL
