MODEL 1
REMARK VINA RESULT:      -8.7      0.000      0.000
REMARK  Name = 
REMARK  6 active torsions:
REMARK  status: ('A' for Active; 'I' for Inactive)
REMARK    1  A    between atoms: C_2  and  C_13
REMARK    2  A    between atoms: N_3  and  C_4
REMARK    3  A    between atoms: C_4  and  C_5
REMARK    4  A    between atoms: C_5  and  C_6
REMARK    5  A    between atoms: N_17  and  S_18
REMARK    6  A    between atoms: S_18  and  C_21
REMARK                            x       y       z     vdW  Elec       q    Type
REMARK                         _______ _______ _______ _____ _____    ______ ____
ROOT
ATOM      1  C   UNL     1       7.500   5.559  18.391  0.00  0.00    +0.000 C 
ATOM      2  C   UNL     1       7.734   4.465  17.339  0.00  0.00    +0.000 C 
ATOM      3  C   UNL     1       6.607   4.423  16.308  0.00  0.00    +0.000 C 
ATOM      4  C   UNL     1       5.239   4.298  16.968  0.00  0.00    +0.000 C 
ATOM      5  N   UNL     1       5.046   5.373  17.983  0.00  0.00    +0.000 NA
ATOM      6  C   UNL     1       6.116   5.386  19.015  0.00  0.00    +0.000 C 
ENDROOT
BRANCH   1   8
ATOM      7  O   UNL     1       7.609   7.208  16.615  0.00  0.00    +0.000 OA
ATOM      8  C   UNL     1       7.754   6.953  17.809  0.00  0.00    +0.000 C 
ATOM      9  N   UNL     1       8.261   7.891  18.685  0.00  0.00    +0.000 N 
ATOM     10  H   UNL     1       8.329   7.693  19.673  0.00  0.00    +0.000 HD
BRANCH   9  11
ATOM     11  C   UNL     1       8.530   9.237  18.207  0.00  0.00    +0.000 C 
BRANCH  11  12
ATOM     12  C   UNL     1       9.312  10.082  19.207  0.00  0.00    +0.000 C 
BRANCH  12  13
ATOM     13  C   UNL     1       9.814  11.361  18.577  0.00  0.00    +0.000 A 
ATOM     14  C   UNL     1      11.168  11.506  18.247  0.00  0.00    +0.000 A 
ATOM     15  C   UNL     1      11.635  12.698  17.688  0.00  0.00    +0.000 A 
ATOM     16  C   UNL     1      10.752  13.752  17.461  0.00  0.00    +0.000 A 
ATOM     17 CL   UNL     1      11.328  15.219  16.771  0.00  0.00    +0.000 Cl
ATOM     18  C   UNL     1       9.405  13.624  17.793  0.00  0.00    +0.000 A 
ATOM     19  C   UNL     1       8.937  12.432  18.353  0.00  0.00    +0.000 A 
ENDBRANCH  12  13
ENDBRANCH  11  12
ENDBRANCH   9  11
ENDBRANCH   1   8
BRANCH   5  20
ATOM     20  S   UNL     1       3.468   5.393  18.663  0.00  0.00    +0.000 S 
ATOM     21  O   UNL     1       3.578   5.798  20.049  0.00  0.00    +0.000 OA
ATOM     22  O   UNL     1       2.591   6.093  17.746  0.00  0.00    +0.000 OA
BRANCH  20  23
ATOM     23  C   UNL     1       2.805   3.781  18.724  0.00  0.00    +0.000 A 
ATOM     24  C   UNL     1       1.615   3.377  18.153  0.00  0.00    +0.000 A 
ATOM     25  N   UNL     1       1.522   2.041  18.426  0.00  0.00    +0.000 N 
ATOM     26  C   UNL     1       2.632   1.685  19.142  0.00  0.00    +0.000 A 
ATOM     27  N   UNL     1       3.425   2.710  19.349  0.00  0.00    +0.000 NA
ATOM     28  H   UNL     1       0.776   1.419  18.147  0.00  0.00    +0.000 HD
ENDBRANCH  20  23
ENDBRANCH   5  20
TORSDOF 6
ENDMDL
MODEL 2
REMARK VINA RESULT:      -8.5      1.092      1.366
REMARK  Name = 
REMARK  6 active torsions:
REMARK  status: ('A' for Active; 'I' for Inactive)
REMARK    1  A    between atoms: C_2  and  C_13
REMARK    2  A    between atoms: N_3  and  C_4
REMARK    3  A    between atoms: C_4  and  C_5
REMARK    4  A    between atoms: C_5  and  C_6
REMARK    5  A    between atoms: N_17  and  S_18
REMARK    6  A    between atoms: S_18  and  C_21
REMARK                            x       y       z     vdW  Elec       q    Type
REMARK                         _______ _______ _______ _____ _____    ______ ____
ROOT
ATOM      1  C   UNL     1       7.040   5.578  18.402  0.00  0.00    +0.000 C 
ATOM      2  C   UNL     1       7.618   4.542  17.427  0.00  0.00    +0.000 C 
ATOM      3  C   UNL     1       6.729   4.366  16.197  0.00  0.00    +0.000 C 
ATOM      4  C   UNL     1       5.287   4.049  16.580  0.00  0.00    +0.000 C 
ATOM      5  N   UNL     1       4.759   5.071  17.527  0.00  0.00    +0.000 NA
ATOM      6  C   UNL     1       5.597   5.211  18.747  0.00  0.00    +0.000 C 
ENDROOT
BRANCH   1   8
ATOM      7  O   UNL     1       6.571   7.431  16.908  0.00  0.00    +0.000 OA
ATOM      8  C   UNL     1       7.211   7.002  17.866  0.00  0.00    +0.000 C 
ATOM      9  N   UNL     1       8.208   7.754  18.454  0.00  0.00    +0.000 N 
ATOM     10  H   UNL     1       8.695   7.417  19.273  0.00  0.00    +0.000 HD
BRANCH   9  11
ATOM     11  C   UNL     1       8.435   9.115  17.998  0.00  0.00    +0.000 C 
BRANCH  11  12
ATOM     12  C   UNL     1       9.055  10.009  19.067  0.00  0.00    +0.000 C 
BRANCH  12  13
ATOM     13  C   UNL     1       9.589  11.292  18.473  0.00  0.00    +0.000 A 
ATOM     14  C   UNL     1      10.858  11.325  17.879  0.00  0.00    +0.000 A 
ATOM     15  C   UNL     1      11.361  12.518  17.352  0.00  0.00    +0.000 A 
ATOM     16  C   UNL     1      10.599  13.682  17.421  0.00  0.00    +0.000 A 
ATOM     17 CL   UNL     1      11.219  15.150  16.770  0.00  0.00    +0.000 Cl
ATOM     18  C   UNL     1       9.340  13.665  18.016  0.00  0.00    +0.000 A 
ATOM     19  C   UNL     1       8.837  12.474  18.543  0.00  0.00    +0.000 A 
ENDBRANCH  12  13
ENDBRANCH  11  12
ENDBRANCH   9  11
ENDBRANCH   1   8
BRANCH   5  20
ATOM     20  S   UNL     1       3.091   4.868  17.888  0.00  0.00    +0.000 S 
ATOM     21  O   UNL     1       2.497   6.181  18.030  0.00  0.00    +0.000 OA
ATOM     22  O   UNL     1       2.545   3.896  16.962  0.00  0.00    +0.000 OA
BRANCH  20  23
ATOM     23  C   UNL     1       2.886   4.118  19.448  0.00  0.00    +0.000 A 
ATOM     24  C   UNL     1       3.220   2.816  19.767  0.00  0.00    +0.000 A 
ATOM     25  N   UNL     1       2.917   2.684  21.093  0.00  0.00    +0.000 N 
ATOM     26  C   UNL     1       2.418   3.881  21.527  0.00  0.00    +0.000 A 
ATOM     27  N   UNL     1       2.375   4.769  20.561  0.00  0.00    +0.000 NA
ATOM     28  H   UNL     1       3.044   1.857  21.660  0.00  0.00    +0.000 HD
ENDBRANCH  20  23
ENDBRANCH   5  20
TORSDOF 6
ENDMDL
MODEL 3
REMARK VINA RESULT:      -8.5      2.233      2.738
REMARK  Name = 
REMARK  6 active torsions:
REMARK  status: ('A' for Active; 'I' for Inactive)
REMARK    1  A    between atoms: C_2  and  C_13
REMARK    2  A    between atoms: N_3  and  C_4
REMARK    3  A    between atoms: C_4  and  C_5
REMARK    4  A    between atoms: C_5  and  C_6
REMARK    5  A    between atoms: N_17  and  S_18
REMARK    6  A    between atoms: S_18  and  C_21
REMARK                            x       y       z     vdW  Elec       q    Type
REMARK                         _______ _______ _______ _____ _____    ______ ____
ROOT
ATOM      1  C   UNL     1       5.953   5.864  16.467  0.00  0.00    +0.000 C 
ATOM      2  C   UNL     1       4.765   6.807  16.227  0.00  0.00    +0.000 C 
ATOM      3  C   UNL     1       3.849   6.883  17.447  0.00  0.00    +0.000 C 
ATOM      4  C   UNL     1       3.399   5.501  17.906  0.00  0.00    +0.000 C 
ATOM      5  N   UNL     1       4.575   4.613  18.129  0.00  0.00    +0.000 NA
ATOM      6  C   UNL     1       5.443   4.499  16.927  0.00  0.00    +0.000 C 
ENDROOT
BRANCH   1   8
ATOM      7  O   UNL     1       7.533   5.863  18.308  0.00  0.00    +0.000 OA
ATOM      8  C   UNL     1       6.982   6.496  17.409  0.00  0.00    +0.000 C 
ATOM      9  N   UNL     1       7.183   7.854  17.263  0.00  0.00    +0.000 N 
ATOM     10  H   UNL     1       6.769   8.357  16.491  0.00  0.00    +0.000 HD
BRANCH   9  11
ATOM     11  C   UNL     1       8.142   8.527  18.122  0.00  0.00    +0.000 C 
BRANCH  11  12
ATOM     12  C   UNL     1       8.725   9.789  17.494  0.00  0.00    +0.000 C 
BRANCH  12  13
ATOM     13  C   UNL     1       9.064  10.822  18.544  0.00  0.00    +0.000 A 
ATOM     14  C   UNL     1       9.336  10.432  19.862  0.00  0.00    +0.000 A 
ATOM     15  C   UNL     1       9.624  11.390  20.838  0.00  0.00    +0.000 A 
ATOM     16  C   UNL     1       9.638  12.741  20.501  0.00  0.00    +0.000 A 
ATOM     17 CL   UNL     1       9.995  13.920  21.702  0.00  0.00    +0.000 Cl
ATOM     18  C   UNL     1       9.361  13.143  19.196  0.00  0.00    +0.000 A 
ATOM     19  C   UNL     1       9.072  12.187  18.221  0.00  0.00    +0.000 A 
ENDBRANCH  12  13
ENDBRANCH  11  12
ENDBRANCH   9  11
ENDBRANCH   1   8
BRANCH   5  20
ATOM     20  S   UNL     1       4.158   3.084  18.794  0.00  0.00    +0.000 S 
ATOM     21  O   UNL     1       3.885   2.175  17.700  0.00  0.00    +0.000 OA
ATOM     22  O   UNL     1       5.134   2.756  19.814  0.00  0.00    +0.000 OA
BRANCH  20  23
ATOM     23  C   UNL     1       2.656   3.185  19.673  0.00  0.00    +0.000 A 
ATOM     24  C   UNL     1       1.400   2.940  19.153  0.00  0.00    +0.000 A 
ATOM     25  N   UNL     1       0.540   3.107  20.203  0.00  0.00    +0.000 N 
ATOM     26  C   UNL     1       1.283   3.445  21.300  0.00  0.00    +0.000 A 
ATOM     27  N   UNL     1       2.564   3.511  21.017  0.00  0.00    +0.000 NA
ATOM     28  H   UNL     1      -0.465   2.996  20.182  0.00  0.00    +0.000 HD
ENDBRANCH  20  23
ENDBRANCH   5  20
TORSDOF 6
ENDMDL
MODEL 4
REMARK VINA RESULT:      -8.4      0.499      1.034
REMARK  Name = 
REMARK  6 active torsions:
REMARK  status: ('A' for Active; 'I' for Inactive)
REMARK    1  A    between atoms: C_2  and  C_13
REMARK    2  A    between atoms: N_3  and  C_4
REMARK    3  A    between atoms: C_4  and  C_5
REMARK    4  A    between atoms: C_5  and  C_6
REMARK    5  A    between atoms: N_17  and  S_18
REMARK    6  A    between atoms: S_18  and  C_21
REMARK                            x       y       z     vdW  Elec       q    Type
REMARK                         _______ _______ _______ _____ _____    ______ ____
ROOT
ATOM      1  C   UNL     1       7.253   5.652  18.416  0.00  0.00    +0.000 C 
ATOM      2  C   UNL     1       7.495   4.584  17.339  0.00  0.00    +0.000 C 
ATOM      3  C   UNL     1       6.356   4.539  16.322  0.00  0.00    +0.000 C 
ATOM      4  C   UNL     1       4.999   4.373  16.997  0.00  0.00    +0.000 C 
ATOM      5  N   UNL     1       4.798   5.423  18.036  0.00  0.00    +0.000 NA
ATOM      6  C   UNL     1       5.881   5.438  19.054  0.00  0.00    +0.000 C 
ENDROOT
BRANCH   1   8
ATOM      7  O   UNL     1       6.942   7.452  16.819  0.00  0.00    +0.000 OA
ATOM      8  C   UNL     1       7.470   7.062  17.859  0.00  0.00    +0.000 C 
ATOM      9  N   UNL     1       8.382   7.846  18.536  0.00  0.00    +0.000 N 
ATOM     10  H   UNL     1       8.772   7.542  19.417  0.00  0.00    +0.000 HD
BRANCH   9  11
ATOM     11  C   UNL     1       8.645   9.196  18.067  0.00  0.00    +0.000 C 
BRANCH  11  12
ATOM     12  C   UNL     1       8.997  10.163  19.193  0.00  0.00    +0.000 C 
BRANCH  12  13
ATOM     13  C   UNL     1       9.830  11.319  18.689  0.00  0.00    +0.000 A 
ATOM     14  C   UNL     1       9.227  12.379  17.998  0.00  0.00    +0.000 A 
ATOM     15  C   UNL     1      10.001  13.436  17.510  0.00  0.00    +0.000 A 
ATOM     16  C   UNL     1      11.380  13.434  17.706  0.00  0.00    +0.000 A 
ATOM     17 CL   UNL     1      12.332  14.735  17.107  0.00  0.00    +0.000 Cl
ATOM     18  C   UNL     1      11.993  12.382  18.384  0.00  0.00    +0.000 A 
ATOM     19  C   UNL     1      11.220  11.326  18.872  0.00  0.00    +0.000 A 
ENDBRANCH  12  13
ENDBRANCH  11  12
ENDBRANCH   9  11
ENDBRANCH   1   8
BRANCH   5  20
ATOM     20  S   UNL     1       3.229   5.396  18.736  0.00  0.00    +0.000 S 
ATOM     21  O   UNL     1       3.331   5.896  20.092  0.00  0.00    +0.000 OA
ATOM     22  O   UNL     1       2.303   5.985  17.790  0.00  0.00    +0.000 OA
BRANCH  20  23
ATOM     23  C   UNL     1       2.661   3.757  18.910  0.00  0.00    +0.000 A 
ATOM     24  C   UNL     1       1.835   3.092  18.025  0.00  0.00    +0.000 A 
ATOM     25  N   UNL     1       1.686   1.838  18.549  0.00  0.00    +0.000 N 
ATOM     26  C   UNL     1       2.407   1.783  19.709  0.00  0.00    +0.000 A 
ATOM     27  N   UNL     1       3.002   2.925  19.966  0.00  0.00    +0.000 NA
ATOM     28  H   UNL     1       1.149   1.079  18.151  0.00  0.00    +0.000 HD
ENDBRANCH  20  23
ENDBRANCH   5  20
TORSDOF 6
ENDMDL
MODEL 5
REMARK VINA RESULT:      -8.4      2.104      2.768
REMARK  Name = 
REMARK  6 active torsions:
REMARK  status: ('A' for Active; 'I' for Inactive)
REMARK    1  A    between atoms: C_2  and  C_13
REMARK    2  A    between atoms: N_3  and  C_4
REMARK    3  A    between atoms: C_4  and  C_5
REMARK    4  A    between atoms: C_5  and  C_6
REMARK    5  A    between atoms: N_17  and  S_18
REMARK    6  A    between atoms: S_18  and  C_21
REMARK                            x       y       z     vdW  Elec       q    Type
REMARK                         _______ _______ _______ _____ _____    ______ ____
ROOT
ATOM      1  C   UNL     1       7.317   5.664  18.325  0.00  0.00    +0.000 C 
ATOM      2  C   UNL     1       7.508   4.693  17.151  0.00  0.00    +0.000 C 
ATOM      3  C   UNL     1       6.353   4.775  16.155  0.00  0.00    +0.000 C 
ATOM      4  C   UNL     1       5.002   4.589  16.837  0.00  0.00    +0.000 C 
ATOM      5  N   UNL     1       4.850   5.544  17.971  0.00  0.00    +0.000 NA
ATOM      6  C   UNL     1       5.949   5.433  18.966  0.00  0.00    +0.000 C 
ENDROOT
BRANCH   1   8
ATOM      7  O   UNL     1       7.145   7.572  16.837  0.00  0.00    +0.000 OA
ATOM      8  C   UNL     1       7.570   7.111  17.896  0.00  0.00    +0.000 C 
ATOM      9  N   UNL     1       8.397   7.851  18.717  0.00  0.00    +0.000 N 
ATOM     10  H   UNL     1       8.699   7.486  19.609  0.00  0.00    +0.000 HD
BRANCH   9  11
ATOM     11  C   UNL     1       8.687   9.233  18.375  0.00  0.00    +0.000 C 
BRANCH  11  12
ATOM     12  C   UNL     1       9.190  10.050  19.561  0.00  0.00    +0.000 C 
BRANCH  12  13
ATOM     13  C   UNL     1       9.995  11.246  19.106  0.00  0.00    +0.000 A 
ATOM     14  C   UNL     1      10.270  12.295  19.993  0.00  0.00    +0.000 A 
ATOM     15  C   UNL     1      10.993  13.412  19.565  0.00  0.00    +0.000 A 
ATOM     16  C   UNL     1      11.439  13.486  18.247  0.00  0.00    +0.000 A 
ATOM     17 CL   UNL     1      12.331  14.860  17.721  0.00  0.00    +0.000 Cl
ATOM     18  C   UNL     1      11.166  12.453  17.353  0.00  0.00    +0.000 A 
ATOM     19  C   UNL     1      10.443  11.337  17.780  0.00  0.00    +0.000 A 
ENDBRANCH  12  13
ENDBRANCH  11  12
ENDBRANCH   9  11
ENDBRANCH   1   8
BRANCH   5  20
ATOM     20  S   UNL     1       3.292   5.500  18.695  0.00  0.00    +0.000 S 
ATOM     21  O   UNL     1       2.410   4.751  17.824  0.00  0.00    +0.000 OA
ATOM     22  O   UNL     1       3.453   5.137  20.089  0.00  0.00    +0.000 OA
BRANCH  20  23
ATOM     23  C   UNL     1       2.599   7.099  18.759  0.00  0.00    +0.000 A 
ATOM     24  C   UNL     1       2.561   8.004  17.716  0.00  0.00    +0.000 A 
ATOM     25  N   UNL     1       1.903   9.094  18.212  0.00  0.00    +0.000 N 
ATOM     26  C   UNL     1       1.572   8.825  19.511  0.00  0.00    +0.000 A 
ATOM     27  N   UNL     1       1.984   7.634  19.881  0.00  0.00    +0.000 NA
ATOM     28  H   UNL     1       1.687   9.946  17.712  0.00  0.00    +0.000 HD
ENDBRANCH  20  23
ENDBRANCH   5  20
TORSDOF 6
ENDMDL
MODEL 6
REMARK VINA RESULT:      -8.4      1.823      2.501
REMARK  Name = 
REMARK  6 active torsions:
REMARK  status: ('A' for Active; 'I' for Inactive)
REMARK    1  A    between atoms: C_2  and  C_13
REMARK    2  A    between atoms: N_3  and  C_4
REMARK    3  A    between atoms: C_4  and  C_5
REMARK    4  A    between atoms: C_5  and  C_6
REMARK    5  A    between atoms: N_17  and  S_18
REMARK    6  A    between atoms: S_18  and  C_21
REMARK                            x       y       z     vdW  Elec       q    Type
REMARK                         _______ _______ _______ _____ _____    ______ ____
ROOT
ATOM      1  C   UNL     1       7.089   5.242  17.773  0.00  0.00    +0.000 C 
ATOM      2  C   UNL     1       7.277   4.497  16.443  0.00  0.00    +0.000 C 
ATOM      3  C   UNL     1       6.020   4.560  15.578  0.00  0.00    +0.000 C 
ATOM      4  C   UNL     1       4.786   4.078  16.334  0.00  0.00    +0.000 C 
ATOM      5  N   UNL     1       4.635   4.820  17.618  0.00  0.00    +0.000 NA
ATOM      6  C   UNL     1       5.841   4.721  18.483  0.00  0.00    +0.000 C 
ENDROOT
BRANCH   1   8
ATOM      7  O   UNL     1       6.356   7.327  16.774  0.00  0.00    +0.000 OA
ATOM      8  C   UNL     1       7.104   6.759  17.567  0.00  0.00    +0.000 C 
ATOM      9  N   UNL     1       8.083   7.453  18.249  0.00  0.00    +0.000 N 
ATOM     10  H   UNL     1       8.659   6.991  18.938  0.00  0.00    +0.000 HD
BRANCH   9  11
ATOM     11  C   UNL     1       8.163   8.896  18.104  0.00  0.00    +0.000 C 
BRANCH  11  12
ATOM     12  C   UNL     1       9.055   9.555  19.151  0.00  0.00    +0.000 C 
BRANCH  12  13
ATOM     13  C   UNL     1       9.483  10.939  18.721  0.00  0.00    +0.000 A 
ATOM     14  C   UNL     1       8.686  11.688  17.845  0.00  0.00    +0.000 A 
ATOM     15  C   UNL     1       9.095  12.958  17.428  0.00  0.00    +0.000 A 
ATOM     16  C   UNL     1      10.304  13.481  17.881  0.00  0.00    +0.000 A 
ATOM     17 CL   UNL     1      10.806  15.045  17.369  0.00  0.00    +0.000 Cl
ATOM     18  C   UNL     1      11.110  12.743  18.746  0.00  0.00    +0.000 A 
ATOM     19  C   UNL     1      10.702  11.474  19.162  0.00  0.00    +0.000 A 
ENDBRANCH  12  13
ENDBRANCH  11  12
ENDBRANCH   9  11
ENDBRANCH   1   8
BRANCH   5  20
ATOM     20  S   UNL     1       3.184   4.441  18.456  0.00  0.00    +0.000 S 
ATOM     21  O   UNL     1       2.162   4.137  17.476  0.00  0.00    +0.000 OA
ATOM     22  O   UNL     1       3.506   3.505  19.515  0.00  0.00    +0.000 OA
BRANCH  20  23
ATOM     23  C   UNL     1       2.582   5.839  19.306  0.00  0.00    +0.000 A 
ATOM     24  C   UNL     1       2.026   5.837  20.570  0.00  0.00    +0.000 A 
ATOM     25  N   UNL     1       1.733   7.146  20.834  0.00  0.00    +0.000 N 
ATOM     26  C   UNL     1       2.109   7.884  19.746  0.00  0.00    +0.000 A 
ATOM     27  N   UNL     1       2.617   7.129  18.799  0.00  0.00    +0.000 NA
ATOM     28  H   UNL     1       1.321   7.512  21.682  0.00  0.00    +0.000 HD
ENDBRANCH  20  23
ENDBRANCH   5  20
TORSDOF 6
ENDMDL
MODEL 7
REMARK VINA RESULT:      -8.3      1.104      1.581
REMARK  Name = 
REMARK  6 active torsions:
REMARK  status: ('A' for Active; 'I' for Inactive)
REMARK    1  A    between atoms: C_2  and  C_13
REMARK    2  A    between atoms: N_3  and  C_4
REMARK    3  A    between atoms: C_4  and  C_5
REMARK    4  A    between atoms: C_5  and  C_6
REMARK    5  A    between atoms: N_17  and  S_18
REMARK    6  A    between atoms: S_18  and  C_21
REMARK                            x       y       z     vdW  Elec       q    Type
REMARK                         _______ _______ _______ _____ _____    ______ ____
ROOT
ATOM      1  C   UNL     1       7.114   5.309  18.137  0.00  0.00    +0.000 C 
ATOM      2  C   UNL     1       7.139   4.242  17.034  0.00  0.00    +0.000 C 
ATOM      3  C   UNL     1       5.962   4.397  16.072  0.00  0.00    +0.000 C 
ATOM      4  C   UNL     1       4.627   4.427  16.809  0.00  0.00    +0.000 C 
ATOM      5  N   UNL     1       4.639   5.471  17.872  0.00  0.00    +0.000 NA
ATOM      6  C   UNL     1       5.756   5.295  18.837  0.00  0.00    +0.000 C 
ENDROOT
BRANCH   1   8
ATOM      7  O   UNL     1       7.600   6.919  16.389  0.00  0.00    +0.000 OA
ATOM      8  C   UNL     1       7.523   6.681  17.593  0.00  0.00    +0.000 C 
ATOM      9  N   UNL     1       7.906   7.616  18.534  0.00  0.00    +0.000 N 
ATOM     10  H   UNL     1       7.791   7.433  19.520  0.00  0.00    +0.000 HD
BRANCH   9  11
ATOM     11  C   UNL     1       8.310   8.940  18.095  0.00  0.00    +0.000 C 
BRANCH  11  12
ATOM     12  C   UNL     1       9.191   9.663  19.108  0.00  0.00    +0.000 C 
BRANCH  12  13
ATOM     13  C   UNL     1       9.700  10.977  18.561  0.00  0.00    +0.000 A 
ATOM     14  C   UNL     1       8.810  11.909  18.011  0.00  0.00    +0.000 A 
ATOM     15  C   UNL     1       9.284  13.113  17.482  0.00  0.00    +0.000 A 
ATOM     16  C   UNL     1      10.650  13.387  17.496  0.00  0.00    +0.000 A 
ATOM     17 CL   UNL     1      11.233  14.869  16.847  0.00  0.00    +0.000 Cl
ATOM     18  C   UNL     1      11.547  12.465  18.032  0.00  0.00    +0.000 A 
ATOM     19  C   UNL     1      11.073  11.262  18.561  0.00  0.00    +0.000 A 
ENDBRANCH  12  13
ENDBRANCH  11  12
ENDBRANCH   9  11
ENDBRANCH   1   8
BRANCH   5  20
ATOM     20  S   UNL     1       3.118   5.672  18.647  0.00  0.00    +0.000 S 
ATOM     21  O   UNL     1       3.140   6.928  19.367  0.00  0.00    +0.000 OA
ATOM     22  O   UNL     1       2.078   5.381  17.680  0.00  0.00    +0.000 OA
BRANCH  20  23
ATOM     23  C   UNL     1       2.892   4.459  19.879  0.00  0.00    +0.000 A 
ATOM     24  C   UNL     1       3.340   3.154  19.818  0.00  0.00    +0.000 A 
ATOM     25  N   UNL     1       2.966   2.591  21.006  0.00  0.00    +0.000 N 
ATOM     26  C   UNL     1       2.314   3.548  21.733  0.00  0.00    +0.000 A 
ATOM     27  N   UNL     1       2.241   4.686  21.082  0.00  0.00    +0.000 NA
ATOM     28  H   UNL     1       3.143   1.641  21.305  0.00  0.00    +0.000 HD
ENDBRANCH  20  23
ENDBRANCH   5  20
TORSDOF 6
ENDMDL
MODEL 8
REMARK VINA RESULT:      -8.2      5.697      7.700
REMARK  Name = 
REMARK  6 active torsions:
REMARK  status: ('A' for Active; 'I' for Inactive)
REMARK    1  A    between atoms: C_2  and  C_13
REMARK    2  A    between atoms: N_3  and  C_4
REMARK    3  A    between atoms: C_4  and  C_5
REMARK    4  A    between atoms: C_5  and  C_6
REMARK    5  A    between atoms: N_17  and  S_18
REMARK    6  A    between atoms: S_18  and  C_21
REMARK                            x       y       z     vdW  Elec       q    Type
REMARK                         _______ _______ _______ _____ _____    ______ ____
ROOT
ATOM      1  C   UNL     1       2.846   5.421  17.820  0.00  0.00    +0.000 C 
ATOM      2  C   UNL     1       2.645   4.244  18.785  0.00  0.00    +0.000 C 
ATOM      3  C   UNL     1       3.791   4.135  19.790  0.00  0.00    +0.000 C 
ATOM      4  C   UNL     1       5.149   4.085  19.099  0.00  0.00    +0.000 C 
ATOM      5  N   UNL     1       5.309   5.240  18.171  0.00  0.00    +0.000 NA
ATOM      6  C   UNL     1       4.221   5.319  17.161  0.00  0.00    +0.000 C 
ENDROOT
BRANCH   1   8
ATOM      7  O   UNL     1       2.421   6.854  19.731  0.00  0.00    +0.000 OA
ATOM      8  C   UNL     1       2.584   6.760  18.516  0.00  0.00    +0.000 C 
ATOM      9  N   UNL     1       2.434   7.854  17.687  0.00  0.00    +0.000 N 
ATOM     10  H   UNL     1       2.620   7.781  16.697  0.00  0.00    +0.000 HD
BRANCH   9  11
ATOM     11  C   UNL     1       2.181   9.159  18.272  0.00  0.00    +0.000 C 
BRANCH  11  12
ATOM     12  C   UNL     1       0.739   9.625  18.094  0.00  0.00    +0.000 C 
BRANCH  12  13
ATOM     13  C   UNL     1       0.179  10.194  19.377  0.00  0.00    +0.000 A 
ATOM     14  C   UNL     1       0.510   9.619  20.612  0.00  0.00    +0.000 A 
ATOM     15  C   UNL     1      -0.029  10.129  21.796  0.00  0.00    +0.000 A 
ATOM     16  C   UNL     1      -0.903  11.214  21.750  0.00  0.00    +0.000 A 
ATOM     17 CL   UNL     1      -1.563  11.843  23.209  0.00  0.00    +0.000 Cl
ATOM     18  C   UNL     1      -1.246  11.789  20.529  0.00  0.00    +0.000 A 
ATOM     19  C   UNL     1      -0.709  11.279  19.345  0.00  0.00    +0.000 A 
ENDBRANCH  12  13
ENDBRANCH  11  12
ENDBRANCH   9  11
ENDBRANCH   1   8
BRANCH   5  20
ATOM     20  S   UNL     1       6.875   5.337  17.469  0.00  0.00    +0.000 S 
ATOM     21  O   UNL     1       7.244   6.734  17.379  0.00  0.00    +0.000 OA
ATOM     22  O   UNL     1       7.730   4.379  18.140  0.00  0.00    +0.000 OA
BRANCH  20  23
ATOM     23  C   UNL     1       6.842   4.781  15.816  0.00  0.00    +0.000 A 
ATOM     24  C   UNL     1       6.198   3.648  15.360  0.00  0.00    +0.000 A 
ATOM     25  N   UNL     1       6.416   3.632  14.010  0.00  0.00    +0.000 N 
ATOM     26  C   UNL     1       7.171   4.729  13.698  0.00  0.00    +0.000 A 
ATOM     27  N   UNL     1       7.456   5.441  14.763  0.00  0.00    +0.000 NA
ATOM     28  H   UNL     1       6.076   2.943  13.353  0.00  0.00    +0.000 HD
ENDBRANCH  20  23
ENDBRANCH   5  20
TORSDOF 6
ENDMDL
MODEL 9
REMARK VINA RESULT:      -8.2      1.536      1.876
REMARK  Name = 
REMARK  6 active torsions:
REMARK  status: ('A' for Active; 'I' for Inactive)
REMARK    1  A    between atoms: C_2  and  C_13
REMARK    2  A    between atoms: N_3  and  C_4
REMARK    3  A    between atoms: C_4  and  C_5
REMARK    4  A    between atoms: C_5  and  C_6
REMARK    5  A    between atoms: N_17  and  S_18
REMARK    6  A    between atoms: S_18  and  C_21
REMARK                            x       y       z     vdW  Elec       q    Type
REMARK                         _______ _______ _______ _____ _____    ______ ____
ROOT
ATOM      1  C   UNL     1       6.946   4.524  17.962  0.00  0.00    +0.000 C 
ATOM      2  C   UNL     1       6.963   4.657  16.433  0.00  0.00    +0.000 C 
ATOM      3  C   UNL     1       6.060   5.791  15.953  0.00  0.00    +0.000 C 
ATOM      4  C   UNL     1       4.643   5.658  16.500  0.00  0.00    +0.000 C 
ATOM      5  N   UNL     1       4.663   5.530  17.984  0.00  0.00    +0.000 NA
ATOM      6  C   UNL     1       5.504   4.397  18.451  0.00  0.00    +0.000 C 
ENDROOT
BRANCH   1   8
ATOM      7  O   UNL     1       8.333   5.511  19.691  0.00  0.00    +0.000 OA
ATOM      8  C   UNL     1       7.733   5.657  18.627  0.00  0.00    +0.000 C 
ATOM      9  N   UNL     1       7.648   6.892  18.018  0.00  0.00    +0.000 N 
ATOM     10  H   UNL     1       7.199   6.995  17.119  0.00  0.00    +0.000 HD
BRANCH   9  11
ATOM     11  C   UNL     1       8.365   8.018  18.591  0.00  0.00    +0.000 C 
BRANCH  11  12
ATOM     12  C   UNL     1       8.278   9.280  17.739  0.00  0.00    +0.000 C 
BRANCH  12  13
ATOM     13  C   UNL     1       8.863  10.474  18.457  0.00  0.00    +0.000 A 
ATOM     14  C   UNL     1       8.833  11.744  17.865  0.00  0.00    +0.000 A 
ATOM     15  C   UNL     1       9.397  12.843  18.519  0.00  0.00    +0.000 A 
ATOM     16  C   UNL     1       9.997  12.676  19.765  0.00  0.00    +0.000 A 
ATOM     17 CL   UNL     1      10.689  14.029  20.570  0.00  0.00    +0.000 Cl
ATOM     18  C   UNL     1      10.041  11.417  20.361  0.00  0.00    +0.000 A 
ATOM     19  C   UNL     1       9.478  10.319  19.708  0.00  0.00    +0.000 A 
ENDBRANCH  12  13
ENDBRANCH  11  12
ENDBRANCH   9  11
ENDBRANCH   1   8
BRANCH   5  20
ATOM     20  S   UNL     1       3.095   5.528  18.689  0.00  0.00    +0.000 S 
ATOM     21  O   UNL     1       3.221   5.944  20.071  0.00  0.00    +0.000 OA
ATOM     22  O   UNL     1       2.193   6.208  17.782  0.00  0.00    +0.000 OA
BRANCH  20  23
ATOM     23  C   UNL     1       2.461   3.906  18.771  0.00  0.00    +0.000 A 
ATOM     24  C   UNL     1       2.168   3.099  17.689  0.00  0.00    +0.000 A 
ATOM     25  N   UNL     1       1.733   1.921  18.229  0.00  0.00    +0.000 N 
ATOM     26  C   UNL     1       1.771   2.048  19.590  0.00  0.00    +0.000 A 
ATOM     27  N   UNL     1       2.196   3.235  19.955  0.00  0.00    +0.000 NA
ATOM     28  H   UNL     1       1.442   1.097  17.720  0.00  0.00    +0.000 HD
ENDBRANCH  20  23
ENDBRANCH   5  20
TORSDOF 6
ENDMDL
