MODEL 1
REMARK VINA RESULT:      -8.2      0.000      0.000
REMARK  Name = 
REMARK  6 active torsions:
REMARK  status: ('A' for Active; 'I' for Inactive)
REMARK    1  A    between atoms: C_1  and  N_2
REMARK    2  A    between atoms: N_2  and  C_3
REMARK    3  A    between atoms: C_4  and  C_6
REMARK    4  A    between atoms: C_6  and  N_7
REMARK    5  A    between atoms: C_14  and  C_15
REMARK    6  A    between atoms: C_19  and  C_20
REMARK                            x       y       z     vdW  Elec       q    Type
REMARK                         _______ _______ _______ _____ _____    ______ ____
ROOT
ATOM      1  N   UNL     1       4.028   3.578  17.384  0.00  0.00    +0.000 N 
ATOM      2  C   UNL     1       5.122   3.254  16.616  0.00  0.00    +0.000 A 
ATOM      3  C   UNL     1       5.682   4.429  16.167  0.00  0.00    +0.000 A 
ATOM      4 CL   UNL     1       7.063   4.574  15.186  0.00  0.00    +0.000 Cl
ATOM      5  C   UNL     1       4.897   5.500  16.662  0.00  0.00    +0.000 A 
ATOM      6  N   UNL     1       5.031   6.835  16.470  0.00  0.00    +0.000 NA
ATOM      7  C   UNL     1       4.109   7.598  17.103  0.00  0.00    +0.000 A 
ATOM      8  C   UNL     1       3.068   7.159  17.930  0.00  0.00    +0.000 A 
ATOM      9  C   UNL     1       2.955   5.770  18.100  0.00  0.00    +0.000 A 
ATOM     10  C   UNL     1       3.878   4.948  17.438  0.00  0.00    +0.000 A 
ENDROOT
BRANCH   8  11
ATOM     11  C   UNL     1       2.142   8.100  18.605  0.00  0.00    +0.000 A 
ATOM     12  C   UNL     1       1.529   9.157  17.909  0.00  0.00    +0.000 A 
ATOM     13  C   UNL     1       0.620  10.016  18.533  0.00  0.00    +0.000 A 
ATOM     14  C   UNL     1       0.322   9.857  19.883  0.00  0.00    +0.000 A 
ATOM     15  C   UNL     1       0.940   8.844  20.623  0.00  0.00    +0.000 A 
ATOM     16  C   UNL     1       1.824   7.964  19.971  0.00  0.00    +0.000 A 
BRANCH  15  17
ATOM     17  C   UNL     1       0.639   8.667  22.087  0.00  0.00    +0.000 C 
ATOM     18  F   UNL     1       1.527   9.317  22.892  0.00  0.00    +0.000 F 
ATOM     19  F   UNL     1      -0.590   9.140  22.439  0.00  0.00    +0.000 F 
ENDBRANCH  15  17
ENDBRANCH   8  11
BRANCH   1  20
ATOM     20  C   UNL     1       3.119   2.599  17.973  0.00  0.00    +0.000 C 
BRANCH  20  24
ATOM     21  C   UNL     1       2.195   2.633  21.672  0.00  0.00    +0.000 C 
ATOM     22  N   UNL     1       2.102   2.773  20.228  0.00  0.00    +0.000 N 
ATOM     23  C   UNL     1       0.817   3.119  19.643  0.00  0.00    +0.000 C 
ATOM     24  C   UNL     1       3.250   2.498  19.482  0.00  0.00    +0.000 C 
ATOM     25  O   UNL     1       4.304   2.188  20.034  0.00  0.00    +0.000 OA
ENDBRANCH  20  24
ENDBRANCH   1  20
TORSDOF 4
ENDMDL
MODEL 2
REMARK VINA RESULT:      -8.1      5.246      7.648
REMARK  Name = 
REMARK  6 active torsions:
REMARK  status: ('A' for Active; 'I' for Inactive)
REMARK    1  A    between atoms: C_1  and  N_2
REMARK    2  A    between atoms: N_2  and  C_3
REMARK    3  A    between atoms: C_4  and  C_6
REMARK    4  A    between atoms: C_6  and  N_7
REMARK    5  A    between atoms: C_14  and  C_15
REMARK    6  A    between atoms: C_19  and  C_20
REMARK                            x       y       z     vdW  Elec       q    Type
REMARK                         _______ _______ _______ _____ _____    ______ ____
ROOT
ATOM      1  N   UNL     1       5.245   4.307  17.934  0.00  0.00    +0.000 N 
ATOM      2  C   UNL     1       5.936   5.162  18.760  0.00  0.00    +0.000 A 
ATOM      3  C   UNL     1       6.896   5.794  18.003  0.00  0.00    +0.000 A 
ATOM      4 CL   UNL     1       8.009   6.955  18.553  0.00  0.00    +0.000 Cl
ATOM      5  C   UNL     1       6.798   5.298  16.678  0.00  0.00    +0.000 A 
ATOM      6  N   UNL     1       7.541   5.594  15.584  0.00  0.00    +0.000 NA
ATOM      7  C   UNL     1       7.174   4.946  14.453  0.00  0.00    +0.000 A 
ATOM      8  C   UNL     1       6.120   4.038  14.300  0.00  0.00    +0.000 A 
ATOM      9  C   UNL     1       5.377   3.749  15.456  0.00  0.00    +0.000 A 
ATOM     10  C   UNL     1       5.745   4.383  16.651  0.00  0.00    +0.000 A 
ENDROOT
BRANCH   8  11
ATOM     11  C   UNL     1       5.788   3.422  12.993  0.00  0.00    +0.000 A 
ATOM     12  C   UNL     1       6.598   2.424  12.422  0.00  0.00    +0.000 A 
ATOM     13  C   UNL     1       6.262   1.809  11.213  0.00  0.00    +0.000 A 
ATOM     14  C   UNL     1       5.117   2.200  10.525  0.00  0.00    +0.000 A 
ATOM     15  C   UNL     1       4.306   3.218  11.036  0.00  0.00    +0.000 A 
ATOM     16  C   UNL     1       4.638   3.800  12.273  0.00  0.00    +0.000 A 
BRANCH  15  17
ATOM     17  C   UNL     1       3.071   3.662  10.298  0.00  0.00    +0.000 C 
ATOM     18  F   UNL     1       3.336   4.588   9.333  0.00  0.00    +0.000 F 
ATOM     19  F   UNL     1       2.436   2.639   9.659  0.00  0.00    +0.000 F 
ENDBRANCH  15  17
ENDBRANCH   8  11
BRANCH   1  20
ATOM     20  C   UNL     1       4.198   3.396  18.386  0.00  0.00    +0.000 C 
BRANCH  20  24
ATOM     21  C   UNL     1       1.246   4.474  20.545  0.00  0.00    +0.000 C 
ATOM     22  N   UNL     1       2.425   3.762  20.081  0.00  0.00    +0.000 N 
ATOM     23  C   UNL     1       3.041   2.785  20.964  0.00  0.00    +0.000 C 
ATOM     24  C   UNL     1       2.935   4.114  18.830  0.00  0.00    +0.000 C 
ATOM     25  O   UNL     1       2.382   4.965  18.137  0.00  0.00    +0.000 OA
ENDBRANCH  20  24
ENDBRANCH   1  20
TORSDOF 4
ENDMDL
MODEL 3
REMARK VINA RESULT:      -7.9      1.328      1.942
REMARK  Name = 
REMARK  6 active torsions:
REMARK  status: ('A' for Active; 'I' for Inactive)
REMARK    1  A    between atoms: C_1  and  N_2
REMARK    2  A    between atoms: N_2  and  C_3
REMARK    3  A    between atoms: C_4  and  C_6
REMARK    4  A    between atoms: C_6  and  N_7
REMARK    5  A    between atoms: C_14  and  C_15
REMARK    6  A    between atoms: C_19  and  C_20
REMARK                            x       y       z     vdW  Elec       q    Type
REMARK                         _______ _______ _______ _____ _____    ______ ____
ROOT
ATOM      1  N   UNL     1       4.014   3.575  17.334  0.00  0.00    +0.000 N 
ATOM      2  C   UNL     1       5.044   3.351  16.451  0.00  0.00    +0.000 A 
ATOM      3  C   UNL     1       5.518   4.576  16.039  0.00  0.00    +0.000 A 
ATOM      4 CL   UNL     1       6.798   4.847  14.953  0.00  0.00    +0.000 Cl
ATOM      5  C   UNL     1       4.744   5.577  16.678  0.00  0.00    +0.000 A 
ATOM      6  N   UNL     1       4.812   6.926  16.571  0.00  0.00    +0.000 NA
ATOM      7  C   UNL     1       3.924   7.605  17.337  0.00  0.00    +0.000 A 
ATOM      8  C   UNL     1       2.980   7.066  18.219  0.00  0.00    +0.000 A 
ATOM      9  C   UNL     1       2.933   5.665  18.298  0.00  0.00    +0.000 A 
ATOM     10  C   UNL     1       3.820   4.931  17.500  0.00  0.00    +0.000 A 
ENDROOT
BRANCH   8  11
ATOM     11  C   UNL     1       2.086   7.919  19.040  0.00  0.00    +0.000 A 
ATOM     12  C   UNL     1       1.803   7.611  20.383  0.00  0.00    +0.000 A 
ATOM     13  C   UNL     1       0.998   8.439  21.171  0.00  0.00    +0.000 A 
ATOM     14  C   UNL     1       0.429   9.585  20.624  0.00  0.00    +0.000 A 
ATOM     15  C   UNL     1       0.651   9.906  19.281  0.00  0.00    +0.000 A 
ATOM     16  C   UNL     1       1.494   9.083  18.512  0.00  0.00    +0.000 A 
BRANCH  15  17
ATOM     17  C   UNL     1       0.031  11.136  18.670  0.00  0.00    +0.000 C 
ATOM     18  F   UNL     1      -1.233  10.917  18.210  0.00  0.00    +0.000 F 
ATOM     19  F   UNL     1      -0.072  12.172  19.550  0.00  0.00    +0.000 F 
ENDBRANCH  15  17
ENDBRANCH   8  11
BRANCH   1  20
ATOM     20  C   UNL     1       3.199   2.520  17.930  0.00  0.00    +0.000 C 
BRANCH  20  24
ATOM     21  C   UNL     1       2.227   2.574  21.616  0.00  0.00    +0.000 C 
ATOM     22  N   UNL     1       2.144   2.677  20.168  0.00  0.00    +0.000 N 
ATOM     23  C   UNL     1       0.848   2.931  19.562  0.00  0.00    +0.000 C 
ATOM     24  C   UNL     1       3.317   2.459  19.442  0.00  0.00    +0.000 C 
ATOM     25  O   UNL     1       4.381   2.227  20.013  0.00  0.00    +0.000 OA
ENDBRANCH  20  24
ENDBRANCH   1  20
TORSDOF 4
ENDMDL
MODEL 4
REMARK VINA RESULT:      -7.9      5.536      7.781
REMARK  Name = 
REMARK  6 active torsions:
REMARK  status: ('A' for Active; 'I' for Inactive)
REMARK    1  A    between atoms: C_1  and  N_2
REMARK    2  A    between atoms: N_2  and  C_3
REMARK    3  A    between atoms: C_4  and  C_6
REMARK    4  A    between atoms: C_6  and  N_7
REMARK    5  A    between atoms: C_14  and  C_15
REMARK    6  A    between atoms: C_19  and  C_20
REMARK                            x       y       z     vdW  Elec       q    Type
REMARK                         _______ _______ _______ _____ _____    ______ ____
ROOT
ATOM      1  N   UNL     1       5.485   4.503  18.321  0.00  0.00    +0.000 N 
ATOM      2  C   UNL     1       6.250   5.356  19.081  0.00  0.00    +0.000 A 
ATOM      3  C   UNL     1       7.113   6.014  18.234  0.00  0.00    +0.000 A 
ATOM      4 CL   UNL     1       8.262   7.185  18.679  0.00  0.00    +0.000 Cl
ATOM      5  C   UNL     1       6.879   5.536  16.920  0.00  0.00    +0.000 A 
ATOM      6  N   UNL     1       7.494   5.860  15.756  0.00  0.00    +0.000 NA
ATOM      7  C   UNL     1       7.015   5.222  14.662  0.00  0.00    +0.000 A 
ATOM      8  C   UNL     1       5.964   4.300  14.609  0.00  0.00    +0.000 A 
ATOM      9  C   UNL     1       5.355   3.983  15.834  0.00  0.00    +0.000 A 
ATOM     10  C   UNL     1       5.842   4.605  16.992  0.00  0.00    +0.000 A 
ENDROOT
BRANCH   8  11
ATOM     11  C   UNL     1       5.501   3.698  13.336  0.00  0.00    +0.000 A 
ATOM     12  C   UNL     1       4.295   4.093  12.729  0.00  0.00    +0.000 A 
ATOM     13  C   UNL     1       3.881   3.560  11.505  0.00  0.00    +0.000 A 
ATOM     14  C   UNL     1       4.651   2.591  10.869  0.00  0.00    +0.000 A 
ATOM     15  C   UNL     1       5.837   2.140  11.457  0.00  0.00    +0.000 A 
ATOM     16  C   UNL     1       6.259   2.714  12.671  0.00  0.00    +0.000 A 
BRANCH  15  17
ATOM     17  C   UNL     1       6.675   1.083  10.788  0.00  0.00    +0.000 C 
ATOM     18  F   UNL     1       7.999   1.183  11.099  0.00  0.00    +0.000 F 
ATOM     19  F   UNL     1       6.311  -0.183  11.136  0.00  0.00    +0.000 F 
ENDBRANCH  15  17
ENDBRANCH   8  11
BRANCH   1  20
ATOM     20  C   UNL     1       4.506   3.569  18.868  0.00  0.00    +0.000 C 
BRANCH  20  24
ATOM     21  C   UNL     1       1.152   4.363  20.499  0.00  0.00    +0.000 C 
ATOM     22  N   UNL     1       2.430   3.731  20.215  0.00  0.00    +0.000 N 
ATOM     23  C   UNL     1       2.914   2.700  21.120  0.00  0.00    +0.000 C 
ATOM     24  C   UNL     1       3.150   4.205  19.117  0.00  0.00    +0.000 C 
ATOM     25  O   UNL     1       2.698   5.096  18.401  0.00  0.00    +0.000 OA
ENDBRANCH  20  24
ENDBRANCH   1  20
TORSDOF 4
ENDMDL
MODEL 5
REMARK VINA RESULT:      -7.7      0.945      1.167
REMARK  Name = 
REMARK  6 active torsions:
REMARK  status: ('A' for Active; 'I' for Inactive)
REMARK    1  A    between atoms: C_1  and  N_2
REMARK    2  A    between atoms: N_2  and  C_3
REMARK    3  A    between atoms: C_4  and  C_6
REMARK    4  A    between atoms: C_6  and  N_7
REMARK    5  A    between atoms: C_14  and  C_15
REMARK    6  A    between atoms: C_19  and  C_20
REMARK                            x       y       z     vdW  Elec       q    Type
REMARK                         _______ _______ _______ _____ _____    ______ ____
ROOT
ATOM      1  N   UNL     1       3.436   3.666  17.468  0.00  0.00    +0.000 N 
ATOM      2  C   UNL     1       4.583   3.271  16.820  0.00  0.00    +0.000 A 
ATOM      3  C   UNL     1       5.308   4.403  16.522  0.00  0.00    +0.000 A 
ATOM      4 CL   UNL     1       6.811   4.456  15.730  0.00  0.00    +0.000 Cl
ATOM      5  C   UNL     1       4.574   5.523  16.989  0.00  0.00    +0.000 A 
ATOM      6  N   UNL     1       4.861   6.845  16.904  0.00  0.00    +0.000 NA
ATOM      7  C   UNL     1       3.943   7.665  17.469  0.00  0.00    +0.000 A 
ATOM      8  C   UNL     1       2.768   7.293  18.132  0.00  0.00    +0.000 A 
ATOM      9  C   UNL     1       2.499   5.917  18.193  0.00  0.00    +0.000 A 
ATOM     10  C   UNL     1       3.414   5.040  17.596  0.00  0.00    +0.000 A 
ENDROOT
BRANCH   8  11
ATOM     11  C   UNL     1       1.858   8.288  18.750  0.00  0.00    +0.000 A 
ATOM     12  C   UNL     1       1.315   9.352  18.007  0.00  0.00    +0.000 A 
ATOM     13  C   UNL     1       0.421  10.263  18.576  0.00  0.00    +0.000 A 
ATOM     14  C   UNL     1       0.070  10.151  19.918  0.00  0.00    +0.000 A 
ATOM     15  C   UNL     1       0.619   9.133  20.704  0.00  0.00    +0.000 A 
ATOM     16  C   UNL     1       1.488   8.201  20.106  0.00  0.00    +0.000 A 
BRANCH  15  17
ATOM     17  C   UNL     1       0.259   9.006  22.161  0.00  0.00    +0.000 C 
ATOM     18  F   UNL     1       1.296   9.316  22.990  0.00  0.00    +0.000 F 
ATOM     19  F   UNL     1      -0.764   9.827  22.530  0.00  0.00    +0.000 F 
ENDBRANCH  15  17
ENDBRANCH   8  11
BRANCH   1  20
ATOM     20  C   UNL     1       2.368   2.758  17.874  0.00  0.00    +0.000 C 
BRANCH  20  24
ATOM     21  C   UNL     1       2.382   2.971  21.681  0.00  0.00    +0.000 C 
ATOM     22  N   UNL     1       2.801   2.702  20.316  0.00  0.00    +0.000 N 
ATOM     23  C   UNL     1       4.150   2.213  20.085  0.00  0.00    +0.000 C 
ATOM     24  C   UNL     1       1.893   2.996  19.297  0.00  0.00    +0.000 C 
ATOM     25  O   UNL     1       0.771   3.430  19.554  0.00  0.00    +0.000 OA
ENDBRANCH  20  24
ENDBRANCH   1  20
TORSDOF 4
ENDMDL
MODEL 6
REMARK VINA RESULT:      -7.6      4.891      7.606
REMARK  Name = 
REMARK  6 active torsions:
REMARK  status: ('A' for Active; 'I' for Inactive)
REMARK    1  A    between atoms: C_1  and  N_2
REMARK    2  A    between atoms: N_2  and  C_3
REMARK    3  A    between atoms: C_4  and  C_6
REMARK    4  A    between atoms: C_6  and  N_7
REMARK    5  A    between atoms: C_14  and  C_15
REMARK    6  A    between atoms: C_19  and  C_20
REMARK                            x       y       z     vdW  Elec       q    Type
REMARK                         _______ _______ _______ _____ _____    ______ ____
ROOT
ATOM      1  N   UNL     1       2.294   6.315  19.537  0.00  0.00    +0.000 N 
ATOM      2  C   UNL     1       1.615   5.642  20.526  0.00  0.00    +0.000 A 
ATOM      3  C   UNL     1       1.899   4.302  20.393  0.00  0.00    +0.000 A 
ATOM      4 CL   UNL     1       1.313   3.046  21.378  0.00  0.00    +0.000 Cl
ATOM      5  C   UNL     1       2.765   4.151  19.280  0.00  0.00    +0.000 A 
ATOM      6  N   UNL     1       3.296   3.027  18.740  0.00  0.00    +0.000 NA
ATOM      7  C   UNL     1       4.105   3.233  17.674  0.00  0.00    +0.000 A 
ATOM      8  C   UNL     1       4.454   4.461  17.100  0.00  0.00    +0.000 A 
ATOM      9  C   UNL     1       3.880   5.603  17.681  0.00  0.00    +0.000 A 
ATOM     10  C   UNL     1       3.017   5.425  18.771  0.00  0.00    +0.000 A 
ENDROOT
BRANCH   8  11
ATOM     11  C   UNL     1       5.389   4.562  15.954  0.00  0.00    +0.000 A 
ATOM     12  C   UNL     1       6.539   5.370  16.009  0.00  0.00    +0.000 A 
ATOM     13  C   UNL     1       7.446   5.429  14.947  0.00  0.00    +0.000 A 
ATOM     14  C   UNL     1       7.208   4.703  13.784  0.00  0.00    +0.000 A 
ATOM     15  C   UNL     1       6.055   3.919  13.671  0.00  0.00    +0.000 A 
ATOM     16  C   UNL     1       5.172   3.840  14.764  0.00  0.00    +0.000 A 
BRANCH  15  17
ATOM     17  C   UNL     1       5.776   3.137  12.415  0.00  0.00    +0.000 C 
ATOM     18  F   UNL     1       4.836   3.726  11.623  0.00  0.00    +0.000 F 
ATOM     19  F   UNL     1       6.878   2.986  11.626  0.00  0.00    +0.000 F 
ENDBRANCH  15  17
ENDBRANCH   8  11
BRANCH   1  20
ATOM     20  C   UNL     1       2.184   7.751  19.296  0.00  0.00    +0.000 C 
BRANCH  20  24
ATOM     21  C   UNL     1      -0.217  10.187  20.981  0.00  0.00    +0.000 C 
ATOM     22  N   UNL     1       0.569   9.511  19.961  0.00  0.00    +0.000 N 
ATOM     23  C   UNL     1       0.385   9.895  18.572  0.00  0.00    +0.000 C 
ATOM     24  C   UNL     1       1.411   8.479  20.381  0.00  0.00    +0.000 C 
ATOM     25  O   UNL     1       1.507   8.185  21.571  0.00  0.00    +0.000 OA
ENDBRANCH  20  24
ENDBRANCH   1  20
TORSDOF 4
ENDMDL
MODEL 7
REMARK VINA RESULT:      -7.5      5.038      7.568
REMARK  Name = 
REMARK  6 active torsions:
REMARK  status: ('A' for Active; 'I' for Inactive)
REMARK    1  A    between atoms: C_1  and  N_2
REMARK    2  A    between atoms: N_2  and  C_3
REMARK    3  A    between atoms: C_4  and  C_6
REMARK    4  A    between atoms: C_6  and  N_7
REMARK    5  A    between atoms: C_14  and  C_15
REMARK    6  A    between atoms: C_19  and  C_20
REMARK                            x       y       z     vdW  Elec       q    Type
REMARK                         _______ _______ _______ _____ _____    ______ ____
ROOT
ATOM      1  N   UNL     1       4.669   5.468  17.389  0.00  0.00    +0.000 N 
ATOM      2  C   UNL     1       5.414   6.285  18.206  0.00  0.00    +0.000 A 
ATOM      3  C   UNL     1       6.624   6.507  17.590  0.00  0.00    +0.000 A 
ATOM      4 CL   UNL     1       7.899   7.460  18.187  0.00  0.00    +0.000 Cl
ATOM      5  C   UNL     1       6.625   5.789  16.367  0.00  0.00    +0.000 A 
ATOM      6  N   UNL     1       7.597   5.674  15.429  0.00  0.00    +0.000 NA
ATOM      7  C   UNL     1       7.267   4.914  14.357  0.00  0.00    +0.000 A 
ATOM      8  C   UNL     1       6.049   4.269  14.118  0.00  0.00    +0.000 A 
ATOM      9  C   UNL     1       5.069   4.404  15.114  0.00  0.00    +0.000 A 
ATOM     10  C   UNL     1       5.384   5.162  16.249  0.00  0.00    +0.000 A 
ENDROOT
BRANCH   8  11
ATOM     11  C   UNL     1       5.792   3.496  12.878  0.00  0.00    +0.000 A 
ATOM     12  C   UNL     1       6.690   2.513  12.424  0.00  0.00    +0.000 A 
ATOM     13  C   UNL     1       6.426   1.750  11.282  0.00  0.00    +0.000 A 
ATOM     14  C   UNL     1       5.268   1.975  10.545  0.00  0.00    +0.000 A 
ATOM     15  C   UNL     1       4.369   2.971  10.938  0.00  0.00    +0.000 A 
ATOM     16  C   UNL     1       4.629   3.703  12.111  0.00  0.00    +0.000 A 
BRANCH  15  17
ATOM     17  C   UNL     1       3.116   3.236  10.144  0.00  0.00    +0.000 C 
ATOM     18  F   UNL     1       1.999   2.721  10.731  0.00  0.00    +0.000 F 
ATOM     19  F   UNL     1       2.863   4.564   9.976  0.00  0.00    +0.000 F 
ENDBRANCH  15  17
ENDBRANCH   8  11
BRANCH   1  20
ATOM     20  C   UNL     1       3.353   4.941  17.734  0.00  0.00    +0.000 C 
BRANCH  20  24
ATOM     21  C   UNL     1       2.861   2.749  20.814  0.00  0.00    +0.000 C 
ATOM     22  N   UNL     1       2.854   3.902  19.930  0.00  0.00    +0.000 N 
ATOM     23  C   UNL     1       2.210   5.124  20.383  0.00  0.00    +0.000 C 
ATOM     24  C   UNL     1       3.416   3.741  18.662  0.00  0.00    +0.000 C 
ATOM     25  O   UNL     1       3.928   2.674  18.327  0.00  0.00    +0.000 OA
ENDBRANCH  20  24
ENDBRANCH   1  20
TORSDOF 4
ENDMDL
MODEL 8
REMARK VINA RESULT:      -7.5      1.208      1.358
REMARK  Name = 
REMARK  6 active torsions:
REMARK  status: ('A' for Active; 'I' for Inactive)
REMARK    1  A    between atoms: C_1  and  N_2
REMARK    2  A    between atoms: N_2  and  C_3
REMARK    3  A    between atoms: C_4  and  C_6
REMARK    4  A    between atoms: C_6  and  N_7
REMARK    5  A    between atoms: C_14  and  C_15
REMARK    6  A    between atoms: C_19  and  C_20
REMARK                            x       y       z     vdW  Elec       q    Type
REMARK                         _______ _______ _______ _____ _____    ______ ____
ROOT
ATOM      1  N   UNL     1       4.540   4.267  18.892  0.00  0.00    +0.000 N 
ATOM      2  C   UNL     1       5.628   3.918  18.127  0.00  0.00    +0.000 A 
ATOM      3  C   UNL     1       5.881   4.956  17.259  0.00  0.00    +0.000 A 
ATOM      4 CL   UNL     1       7.130   5.023  16.107  0.00  0.00    +0.000 Cl
ATOM      5  C   UNL     1       4.909   5.962  17.491  0.00  0.00    +0.000 A 
ATOM      6  N   UNL     1       4.728   7.153  16.871  0.00  0.00    +0.000 NA
ATOM      7  C   UNL     1       3.700   7.894  17.348  0.00  0.00    +0.000 A 
ATOM      8  C   UNL     1       2.839   7.570  18.403  0.00  0.00    +0.000 A 
ATOM      9  C   UNL     1       3.051   6.325  19.016  0.00  0.00    +0.000 A 
ATOM     10  C   UNL     1       4.091   5.520  18.531  0.00  0.00    +0.000 A 
ENDROOT
BRANCH   8  11
ATOM     11  C   UNL     1       1.770   8.488  18.863  0.00  0.00    +0.000 A 
ATOM     12  C   UNL     1       1.108   9.354  17.974  0.00  0.00    +0.000 A 
ATOM     13  C   UNL     1       0.068  10.186  18.397  0.00  0.00    +0.000 A 
ATOM     14  C   UNL     1      -0.317  10.197  19.735  0.00  0.00    +0.000 A 
ATOM     15  C   UNL     1       0.342   9.382  20.661  0.00  0.00    +0.000 A 
ATOM     16  C   UNL     1       1.361   8.522  20.211  0.00  0.00    +0.000 A 
BRANCH  15  17
ATOM     17  C   UNL     1      -0.055   9.391  22.114  0.00  0.00    +0.000 C 
ATOM     18  F   UNL     1      -0.725  10.522  22.472  0.00  0.00    +0.000 F 
ATOM     19  F   UNL     1      -0.877   8.356  22.447  0.00  0.00    +0.000 F 
ENDBRANCH  15  17
ENDBRANCH   8  11
BRANCH   1  20
ATOM     20  C   UNL     1       3.913   3.390  19.877  0.00  0.00    +0.000 C 
BRANCH  20  24
ATOM     21  C   UNL     1       0.473   1.972  19.043  0.00  0.00    +0.000 C 
ATOM     22  N   UNL     1       1.520   2.783  19.643  0.00  0.00    +0.000 N 
ATOM     23  C   UNL     1       1.137   3.876  20.521  0.00  0.00    +0.000 C 
ATOM     24  C   UNL     1       2.838   2.498  19.281  0.00  0.00    +0.000 C 
ATOM     25  O   UNL     1       3.098   1.573  18.514  0.00  0.00    +0.000 OA
ENDBRANCH  20  24
ENDBRANCH   1  20
TORSDOF 4
ENDMDL
MODEL 9
REMARK VINA RESULT:      -7.5      4.862      7.600
REMARK  Name = 
REMARK  6 active torsions:
REMARK  status: ('A' for Active; 'I' for Inactive)
REMARK    1  A    between atoms: C_1  and  N_2
REMARK    2  A    between atoms: N_2  and  C_3
REMARK    3  A    between atoms: C_4  and  C_6
REMARK    4  A    between atoms: C_6  and  N_7
REMARK    5  A    between atoms: C_14  and  C_15
REMARK    6  A    between atoms: C_19  and  C_20
REMARK                            x       y       z     vdW  Elec       q    Type
REMARK                         _______ _______ _______ _____ _____    ______ ____
ROOT
ATOM      1  N   UNL     1       2.450   6.266  19.728  0.00  0.00    +0.000 N 
ATOM      2  C   UNL     1       1.595   5.571  20.551  0.00  0.00    +0.000 A 
ATOM      3  C   UNL     1       1.621   4.250  20.165  0.00  0.00    +0.000 A 
ATOM      4 CL   UNL     1       0.744   2.978  20.873  0.00  0.00    +0.000 Cl
ATOM      5  C   UNL     1       2.506   4.139  19.063  0.00  0.00    +0.000 A 
ATOM      6  N   UNL     1       2.839   3.052  18.325  0.00  0.00    +0.000 NA
ATOM      7  C   UNL     1       3.736   3.287  17.337  0.00  0.00    +0.000 A 
ATOM      8  C   UNL     1       4.351   4.504  17.022  0.00  0.00    +0.000 A 
ATOM      9  C   UNL     1       3.976   5.609  17.802  0.00  0.00    +0.000 A 
ATOM     10  C   UNL     1       3.031   5.408  18.817  0.00  0.00    +0.000 A 
ENDROOT
BRANCH   8  11
ATOM     11  C   UNL     1       5.354   4.627  15.937  0.00  0.00    +0.000 A 
ATOM     12  C   UNL     1       6.487   5.450  16.071  0.00  0.00    +0.000 A 
ATOM     13  C   UNL     1       7.458   5.530  15.068  0.00  0.00    +0.000 A 
ATOM     14  C   UNL     1       7.303   4.809  13.888  0.00  0.00    +0.000 A 
ATOM     15  C   UNL     1       6.172   4.010  13.697  0.00  0.00    +0.000 A 
ATOM     16  C   UNL     1       5.223   3.911  14.731  0.00  0.00    +0.000 A 
BRANCH  15  17
ATOM     17  C   UNL     1       5.983   3.234  12.420  0.00  0.00    +0.000 C 
ATOM     18  F   UNL     1       4.835   3.565  11.764  0.00  0.00    +0.000 F 
ATOM     19  F   UNL     1       6.989   3.435  11.522  0.00  0.00    +0.000 F 
ENDBRANCH  15  17
ENDBRANCH   8  11
BRANCH   1  20
ATOM     20  C   UNL     1       2.635   7.713  19.770  0.00  0.00    +0.000 C 
BRANCH  20  24
ATOM     21  C   UNL     1      -0.052  10.087  18.473  0.00  0.00    +0.000 C 
ATOM     22  N   UNL     1       0.794   9.328  19.380  0.00  0.00    +0.000 N 
ATOM     23  C   UNL     1       0.671   9.563  20.809  0.00  0.00    +0.000 C 
ATOM     24  C   UNL     1       1.726   8.459  18.809  0.00  0.00    +0.000 C 
ATOM     25  O   UNL     1       1.798   8.319  17.590  0.00  0.00    +0.000 OA
ENDBRANCH  20  24
ENDBRANCH   1  20
TORSDOF 4
ENDMDL
