MODEL 1
REMARK VINA RESULT:      -8.8      0.000      0.000
REMARK  Name = 
REMARK  8 active torsions:
REMARK  status: ('A' for Active; 'I' for Inactive)
REMARK    1  A    between atoms: C_2  and  C_3
REMARK    2  A    between atoms: C_2  and  C_24
REMARK    3  A    between atoms: C_3  and  O_4
REMARK    4  A    between atoms: O_4  and  C_5
REMARK    5  A    between atoms: C_5  and  C_7
REMARK    6  A    between atoms: N_9  and  C_10
REMARK    7  A    between atoms: C_17  and  C_18
REMARK    8  A    between atoms: C_27  and  N_28
REMARK                            x       y       z     vdW  Elec       q    Type
REMARK                         _______ _______ _______ _____ _____    ______ ____
ROOT
ATOM      1  C   UNL     1       5.451   4.645  17.820  0.00  0.00    +0.000 A 
ATOM      2  C   UNL     1       6.349   4.858  16.794  0.00  0.00    +0.000 A 
ATOM      3  N   UNL     1       5.790   4.348  15.651  0.00  0.00    +0.000 N 
ATOM      4  N   UNL     1       4.583   3.786  15.900  0.00  0.00    +0.000 NA
ATOM      5  C   UNL     1       4.381   3.924  17.220  0.00  0.00    +0.000 A 
ENDROOT
BRANCH   3   6
ATOM      6  C   UNL     1       6.337   4.362  14.337  0.00  0.00    +0.000 A 
ATOM      7  C   UNL     1       5.835   3.513  13.339  0.00  0.00    +0.000 A 
ATOM      8  C   UNL     1       6.380   3.544  12.054  0.00  0.00    +0.000 A 
ATOM      9  C   UNL     1       7.432   4.410  11.760  0.00  0.00    +0.000 A 
ATOM     10  C   UNL     1       7.937   5.254  12.746  0.00  0.00    +0.000 A 
ATOM     11  C   UNL     1       7.390   5.238  14.032  0.00  0.00    +0.000 A 
ENDBRANCH   3   6
BRANCH   5  12
ATOM     12  C   UNL     1       3.192   3.357  17.862  0.00  0.00    +0.000 A 
ATOM     13  C   UNL     1       3.291   2.245  18.714  0.00  0.00    +0.000 A 
ATOM     14  C   UNL     1       2.166   1.747  19.373  0.00  0.00    +0.000 A 
ATOM     15  C   UNL     1       0.922   2.331  19.160  0.00  0.00    +0.000 A 
ATOM     16  C   UNL     1       0.800   3.407  18.281  0.00  0.00    +0.000 A 
ATOM     17  C   UNL     1       1.930   3.917  17.635  0.00  0.00    +0.000 A 
ENDBRANCH   5  12
BRANCH   1  18
ATOM     18  C   UNL     1       5.596   5.090  19.188  0.00  0.00    +0.000 C 
ATOM     19  O   UNL     1       6.680   5.269  19.736  0.00  0.00    +0.000 OA
BRANCH  18  20
ATOM     20  O   UNL     1       4.397   5.358  19.784  0.00  0.00    +0.000 OA
BRANCH  20  21
ATOM     21  C   UNL     1       3.765   6.518  19.244  0.00  0.00    +0.000 C 
BRANCH  21  23
ATOM     22  O   UNL     1       1.812   5.909  20.538  0.00  0.00    +0.000 OA
ATOM     23  C   UNL     1       2.411   6.772  19.896  0.00  0.00    +0.000 C 
BRANCH  23  24
ATOM     24  C   UNL     1       1.763   8.096  19.686  0.00  0.00    +0.000 A 
ATOM     25  C   UNL     1       1.085   8.765  20.713  0.00  0.00    +0.000 A 
ATOM     26  C   UNL     1       0.474   9.998  20.464  0.00  0.00    +0.000 A 
ATOM     27  C   UNL     1       0.547  10.565  19.185  0.00  0.00    +0.000 A 
ATOM     28  C   UNL     1       1.231   9.910  18.154  0.00  0.00    +0.000 A 
ATOM     29  C   UNL     1       1.833   8.673  18.408  0.00  0.00    +0.000 A 
BRANCH  27  30
ATOM     30  N   UNL     1      -0.112  11.852  18.924  0.00  0.00    +0.000 N 
ATOM     31  O   UNL     1      -1.039  11.864  18.102  0.00  0.00    +0.000 OA
ATOM     32  O   UNL     1       0.297  12.844  19.541  0.00  0.00    +0.000 OA
ENDBRANCH  27  30
ENDBRANCH  23  24
ENDBRANCH  21  23
ENDBRANCH  20  21
ENDBRANCH  18  20
ENDBRANCH   1  18
TORSDOF 8
ENDMDL
MODEL 2
REMARK VINA RESULT:      -8.6      3.956      7.238
REMARK  Name = 
REMARK  8 active torsions:
REMARK  status: ('A' for Active; 'I' for Inactive)
REMARK    1  A    between atoms: C_2  and  C_3
REMARK    2  A    between atoms: C_2  and  C_24
REMARK    3  A    between atoms: C_3  and  O_4
REMARK    4  A    between atoms: O_4  and  C_5
REMARK    5  A    between atoms: C_5  and  C_7
REMARK    6  A    between atoms: N_9  and  C_10
REMARK    7  A    between atoms: C_17  and  C_18
REMARK    8  A    between atoms: C_27  and  N_28
REMARK                            x       y       z     vdW  Elec       q    Type
REMARK                         _______ _______ _______ _____ _____    ______ ____
ROOT
ATOM      1  C   UNL     1       1.336   8.648  20.608  0.00  0.00    +0.000 A 
ATOM      2  C   UNL     1       1.942   7.437  20.342  0.00  0.00    +0.000 A 
ATOM      3  N   UNL     1       2.224   7.408  19.001  0.00  0.00    +0.000 N 
ATOM      4  N   UNL     1       1.799   8.536  18.383  0.00  0.00    +0.000 NA
ATOM      5  C   UNL     1       1.223   9.282  19.339  0.00  0.00    +0.000 A 
ENDROOT
BRANCH   3   6
ATOM      6  C   UNL     1       2.872   6.371  18.274  0.00  0.00    +0.000 A 
ATOM      7  C   UNL     1       2.330   5.078  18.226  0.00  0.00    +0.000 A 
ATOM      8  C   UNL     1       2.977   4.073  17.504  0.00  0.00    +0.000 A 
ATOM      9  C   UNL     1       4.169   4.347  16.836  0.00  0.00    +0.000 A 
ATOM     10  C   UNL     1       4.715   5.628  16.881  0.00  0.00    +0.000 A 
ATOM     11  C   UNL     1       4.068   6.642  17.592  0.00  0.00    +0.000 A 
ENDBRANCH   3   6
BRANCH   5  12
ATOM     12  C   UNL     1       0.577  10.555  19.011  0.00  0.00    +0.000 A 
ATOM     13  C   UNL     1       1.308  11.754  18.998  0.00  0.00    +0.000 A 
ATOM     14  C   UNL     1       0.704  12.956  18.623  0.00  0.00    +0.000 A 
ATOM     15  C   UNL     1      -0.647  12.979  18.292  0.00  0.00    +0.000 A 
ATOM     16  C   UNL     1      -1.396  11.804  18.344  0.00  0.00    +0.000 A 
ATOM     17  C   UNL     1      -0.787  10.598  18.702  0.00  0.00    +0.000 A 
ENDBRANCH   5  12
BRANCH   1  18
ATOM     18  C   UNL     1       0.938   9.137  21.910  0.00  0.00    +0.000 C 
ATOM     19  O   UNL     1       1.730   9.415  22.806  0.00  0.00    +0.000 OA
BRANCH  18  20
ATOM     20  O   UNL     1      -0.411   9.323  22.011  0.00  0.00    +0.000 OA
BRANCH  20  21
ATOM     21  C   UNL     1      -0.761  10.229  23.056  0.00  0.00    +0.000 C 
BRANCH  21  23
ATOM     22  O   UNL     1      -0.054  12.361  22.154  0.00  0.00    +0.000 OA
ATOM     23  C   UNL     1      -0.981  11.640  22.523  0.00  0.00    +0.000 C 
BRANCH  23  24
ATOM     24  C   UNL     1      -2.366  12.185  22.516  0.00  0.00    +0.000 A 
ATOM     25  C   UNL     1      -2.973  12.660  21.346  0.00  0.00    +0.000 A 
ATOM     26  C   UNL     1      -4.271  13.182  21.390  0.00  0.00    +0.000 A 
ATOM     27  C   UNL     1      -4.963  13.223  22.607  0.00  0.00    +0.000 A 
ATOM     28  C   UNL     1      -4.369  12.741  23.780  0.00  0.00    +0.000 A 
ATOM     29  C   UNL     1      -3.069  12.228  23.730  0.00  0.00    +0.000 A 
BRANCH  27  30
ATOM     30  N   UNL     1      -6.317  13.788  22.652  0.00  0.00    +0.000 N 
ATOM     31  O   UNL     1      -6.797  14.038  23.767  0.00  0.00    +0.000 OA
ATOM     32  O   UNL     1      -6.896  13.985  21.576  0.00  0.00    +0.000 OA
ENDBRANCH  27  30
ENDBRANCH  23  24
ENDBRANCH  21  23
ENDBRANCH  20  21
ENDBRANCH  18  20
ENDBRANCH   1  18
TORSDOF 8
ENDMDL
MODEL 3
REMARK VINA RESULT:      -8.6      2.754      8.218
REMARK  Name = 
REMARK  8 active torsions:
REMARK  status: ('A' for Active; 'I' for Inactive)
REMARK    1  A    between atoms: C_2  and  C_3
REMARK    2  A    between atoms: C_2  and  C_24
REMARK    3  A    between atoms: C_3  and  O_4
REMARK    4  A    between atoms: O_4  and  C_5
REMARK    5  A    between atoms: C_5  and  C_7
REMARK    6  A    between atoms: N_9  and  C_10
REMARK    7  A    between atoms: C_17  and  C_18
REMARK    8  A    between atoms: C_27  and  N_28
REMARK                            x       y       z     vdW  Elec       q    Type
REMARK                         _______ _______ _______ _____ _____    ______ ____
ROOT
ATOM      1  C   UNL     1       2.403   7.072  19.291  0.00  0.00    +0.000 A 
ATOM      2  C   UNL     1       1.984   8.361  19.552  0.00  0.00    +0.000 A 
ATOM      3  N   UNL     1       1.181   8.312  20.661  0.00  0.00    +0.000 N 
ATOM      4  N   UNL     1       1.038   7.043  21.111  0.00  0.00    +0.000 NA
ATOM      5  C   UNL     1       1.742   6.274  20.266  0.00  0.00    +0.000 A 
ENDROOT
BRANCH   3   6
ATOM      6  C   UNL     1       0.542   9.402  21.318  0.00  0.00    +0.000 A 
ATOM      7  C   UNL     1      -0.152   9.210  22.521  0.00  0.00    +0.000 A 
ATOM      8  C   UNL     1      -0.769  10.290  23.154  0.00  0.00    +0.000 A 
ATOM      9  C   UNL     1      -0.707  11.562  22.588  0.00  0.00    +0.000 A 
ATOM     10  C   UNL     1      -0.022  11.761  21.392  0.00  0.00    +0.000 A 
ATOM     11  C   UNL     1       0.608  10.687  20.758  0.00  0.00    +0.000 A 
ENDBRANCH   3   6
BRANCH   5  12
ATOM     12  C   UNL     1       1.750   4.815  20.407  0.00  0.00    +0.000 A 
ATOM     13  C   UNL     1       2.343   4.200  21.521  0.00  0.00    +0.000 A 
ATOM     14  C   UNL     1       2.292   2.814  21.683  0.00  0.00    +0.000 A 
ATOM     15  C   UNL     1       1.681   2.024  20.715  0.00  0.00    +0.000 A 
ATOM     16  C   UNL     1       1.127   2.618  19.581  0.00  0.00    +0.000 A 
ATOM     17  C   UNL     1       1.162   4.007  19.428  0.00  0.00    +0.000 A 
ENDBRANCH   5  12
BRANCH   1  18
ATOM     18  C   UNL     1       3.327   6.667  18.255  0.00  0.00    +0.000 C 
ATOM     19  O   UNL     1       2.998   6.457  17.091  0.00  0.00    +0.000 OA
BRANCH  18  20
ATOM     20  O   UNL     1       4.618   6.612  18.695  0.00  0.00    +0.000 OA
BRANCH  20  21
ATOM     21  C   UNL     1       4.936   5.361  19.305  0.00  0.00    +0.000 C 
BRANCH  21  23
ATOM     22  O   UNL     1       4.399   3.137  18.515  0.00  0.00    +0.000 OA
ATOM     23  C   UNL     1       4.929   4.225  18.289  0.00  0.00    +0.000 C 
BRANCH  23  24
ATOM     24  C   UNL     1       5.652   4.422  17.003  0.00  0.00    +0.000 A 
ATOM     25  C   UNL     1       6.970   4.896  16.953  0.00  0.00    +0.000 A 
ATOM     26  C   UNL     1       7.602   5.085  15.720  0.00  0.00    +0.000 A 
ATOM     27  C   UNL     1       6.916   4.794  14.535  0.00  0.00    +0.000 A 
ATOM     28  C   UNL     1       5.602   4.311  14.573  0.00  0.00    +0.000 A 
ATOM     29  C   UNL     1       4.973   4.132  15.809  0.00  0.00    +0.000 A 
BRANCH  27  30
ATOM     30  N   UNL     1       7.577   5.012  13.242  0.00  0.00    +0.000 N 
ATOM     31  O   UNL     1       7.160   4.369  12.269  0.00  0.00    +0.000 OA
ATOM     32  O   UNL     1       8.508   5.827  13.201  0.00  0.00    +0.000 OA
ENDBRANCH  27  30
ENDBRANCH  23  24
ENDBRANCH  21  23
ENDBRANCH  20  21
ENDBRANCH  18  20
ENDBRANCH   1  18
TORSDOF 8
ENDMDL
MODEL 4
REMARK VINA RESULT:      -8.6      2.893      8.420
REMARK  Name = 
REMARK  8 active torsions:
REMARK  status: ('A' for Active; 'I' for Inactive)
REMARK    1  A    between atoms: C_2  and  C_3
REMARK    2  A    between atoms: C_2  and  C_24
REMARK    3  A    between atoms: C_3  and  O_4
REMARK    4  A    between atoms: O_4  and  C_5
REMARK    5  A    between atoms: C_5  and  C_7
REMARK    6  A    between atoms: N_9  and  C_10
REMARK    7  A    between atoms: C_17  and  C_18
REMARK    8  A    between atoms: C_27  and  N_28
REMARK                            x       y       z     vdW  Elec       q    Type
REMARK                         _______ _______ _______ _____ _____    ______ ____
ROOT
ATOM      1  C   UNL     1       2.451   7.156  19.264  0.00  0.00    +0.000 A 
ATOM      2  C   UNL     1       2.012   8.433  19.550  0.00  0.00    +0.000 A 
ATOM      3  N   UNL     1       1.177   8.344  20.633  0.00  0.00    +0.000 N 
ATOM      4  N   UNL     1       1.033   7.061  21.040  0.00  0.00    +0.000 NA
ATOM      5  C   UNL     1       1.770   6.324  20.195  0.00  0.00    +0.000 A 
ENDROOT
BRANCH   3   6
ATOM      6  C   UNL     1       0.508   9.407  21.301  0.00  0.00    +0.000 A 
ATOM      7  C   UNL     1      -0.169   9.186  22.510  0.00  0.00    +0.000 A 
ATOM      8  C   UNL     1      -0.816  10.241  23.154  0.00  0.00    +0.000 A 
ATOM      9  C   UNL     1      -0.802  11.518  22.596  0.00  0.00    +0.000 A 
ATOM     10  C   UNL     1      -0.134  11.746  21.395  0.00  0.00    +0.000 A 
ATOM     11  C   UNL     1       0.526  10.697  20.749  0.00  0.00    +0.000 A 
ENDBRANCH   3   6
BRANCH   5  12
ATOM     12  C   UNL     1       1.788   4.861  20.293  0.00  0.00    +0.000 A 
ATOM     13  C   UNL     1       2.294   4.220  21.435  0.00  0.00    +0.000 A 
ATOM     14  C   UNL     1       2.251   2.830  21.551  0.00  0.00    +0.000 A 
ATOM     15  C   UNL     1       1.736   2.062  20.512  0.00  0.00    +0.000 A 
ATOM     16  C   UNL     1       1.271   2.682  19.353  0.00  0.00    +0.000 A 
ATOM     17  C   UNL     1       1.297   4.076  19.244  0.00  0.00    +0.000 A 
ENDBRANCH   5  12
BRANCH   1  18
ATOM     18  C   UNL     1       3.410   6.790  18.245  0.00  0.00    +0.000 C 
ATOM     19  O   UNL     1       3.492   7.348  17.154  0.00  0.00    +0.000 OA
BRANCH  18  20
ATOM     20  O   UNL     1       4.261   5.805  18.654  0.00  0.00    +0.000 OA
BRANCH  20  21
ATOM     21  C   UNL     1       5.632   6.186  18.546  0.00  0.00    +0.000 C 
BRANCH  21  23
ATOM     22  O   UNL     1       7.306   4.445  18.709  0.00  0.00    +0.000 OA
ATOM     23  C   UNL     1       6.491   5.047  18.010  0.00  0.00    +0.000 C 
BRANCH  23  24
ATOM     24  C   UNL     1       6.381   4.698  16.567  0.00  0.00    +0.000 A 
ATOM     25  C   UNL     1       5.329   3.922  16.066  0.00  0.00    +0.000 A 
ATOM     26  C   UNL     1       5.277   3.603  14.705  0.00  0.00    +0.000 A 
ATOM     27  C   UNL     1       6.280   4.067  13.843  0.00  0.00    +0.000 A 
ATOM     28  C   UNL     1       7.331   4.853  14.333  0.00  0.00    +0.000 A 
ATOM     29  C   UNL     1       7.380   5.161  15.696  0.00  0.00    +0.000 A 
BRANCH  27  30
ATOM     30  N   UNL     1       6.233   3.714  12.419  0.00  0.00    +0.000 N 
ATOM     31  O   UNL     1       7.183   4.070  11.708  0.00  0.00    +0.000 OA
ATOM     32  O   UNL     1       5.249   3.079  12.014  0.00  0.00    +0.000 OA
ENDBRANCH  27  30
ENDBRANCH  23  24
ENDBRANCH  21  23
ENDBRANCH  20  21
ENDBRANCH  18  20
ENDBRANCH   1  18
TORSDOF 8
ENDMDL
MODEL 5
REMARK VINA RESULT:      -8.6      3.946      7.257
REMARK  Name = 
REMARK  8 active torsions:
REMARK  status: ('A' for Active; 'I' for Inactive)
REMARK    1  A    between atoms: C_2  and  C_3
REMARK    2  A    between atoms: C_2  and  C_24
REMARK    3  A    between atoms: C_3  and  O_4
REMARK    4  A    between atoms: O_4  and  C_5
REMARK    5  A    between atoms: C_5  and  C_7
REMARK    6  A    between atoms: N_9  and  C_10
REMARK    7  A    between atoms: C_17  and  C_18
REMARK    8  A    between atoms: C_27  and  N_28
REMARK                            x       y       z     vdW  Elec       q    Type
REMARK                         _______ _______ _______ _____ _____    ______ ____
ROOT
ATOM      1  C   UNL     1       1.374   8.632  20.549  0.00  0.00    +0.000 A 
ATOM      2  C   UNL     1       1.960   7.407  20.298  0.00  0.00    +0.000 A 
ATOM      3  N   UNL     1       2.238   7.356  18.957  0.00  0.00    +0.000 N 
ATOM      4  N   UNL     1       1.829   8.481  18.325  0.00  0.00    +0.000 NA
ATOM      5  C   UNL     1       1.267   9.249  19.271  0.00  0.00    +0.000 A 
ENDROOT
BRANCH   3   6
ATOM      6  C   UNL     1       2.869   6.299  18.243  0.00  0.00    +0.000 A 
ATOM      7  C   UNL     1       4.093   6.502  17.589  0.00  0.00    +0.000 A 
ATOM      8  C   UNL     1       4.701   5.453  16.896  0.00  0.00    +0.000 A 
ATOM      9  C   UNL     1       4.089   4.202  16.842  0.00  0.00    +0.000 A 
ATOM     10  C   UNL     1       2.872   3.993  17.487  0.00  0.00    +0.000 A 
ATOM     11  C   UNL     1       2.262   5.035  18.191  0.00  0.00    +0.000 A 
ENDBRANCH   3   6
BRANCH   5  12
ATOM     12  C   UNL     1       0.639  10.528  18.927  0.00  0.00    +0.000 A 
ATOM     13  C   UNL     1      -0.733  10.605  18.639  0.00  0.00    +0.000 A 
ATOM     14  C   UNL     1      -1.340  11.834  18.375  0.00  0.00    +0.000 A 
ATOM     15  C   UNL     1      -0.575  12.996  18.358  0.00  0.00    +0.000 A 
ATOM     16  C   UNL     1       0.797  12.929  18.598  0.00  0.00    +0.000 A 
ATOM     17  C   UNL     1       1.401  11.700  18.881  0.00  0.00    +0.000 A 
ENDBRANCH   5  12
BRANCH   1  18
ATOM     18  C   UNL     1       0.986   9.144  21.844  0.00  0.00    +0.000 C 
ATOM     19  O   UNL     1       1.786   9.445  22.726  0.00  0.00    +0.000 OA
BRANCH  18  20
ATOM     20  O   UNL     1      -0.362   9.324  21.956  0.00  0.00    +0.000 OA
BRANCH  20  21
ATOM     21  C   UNL     1      -0.707  10.247  22.988  0.00  0.00    +0.000 C 
BRANCH  21  23
ATOM     22  O   UNL     1       0.023  12.335  22.006  0.00  0.00    +0.000 OA
ATOM     23  C   UNL     1      -0.907  11.654  22.438  0.00  0.00    +0.000 C 
BRANCH  23  24
ATOM     24  C   UNL     1      -2.272  12.246  22.489  0.00  0.00    +0.000 A 
ATOM     25  C   UNL     1      -2.834  12.921  21.397  0.00  0.00    +0.000 A 
ATOM     26  C   UNL     1      -4.113  13.478  21.498  0.00  0.00    +0.000 A 
ATOM     27  C   UNL     1      -4.833  13.354  22.693  0.00  0.00    +0.000 A 
ATOM     28  C   UNL     1      -4.285  12.672  23.787  0.00  0.00    +0.000 A 
ATOM     29  C   UNL     1      -3.003  12.125  23.681  0.00  0.00    +0.000 A 
BRANCH  27  30
ATOM     30  N   UNL     1      -6.168  13.957  22.801  0.00  0.00    +0.000 N 
ATOM     31  O   UNL     1      -6.906  13.558  23.712  0.00  0.00    +0.000 OA
ATOM     32  O   UNL     1      -6.474  14.829  21.977  0.00  0.00    +0.000 OA
ENDBRANCH  27  30
ENDBRANCH  23  24
ENDBRANCH  21  23
ENDBRANCH  20  21
ENDBRANCH  18  20
ENDBRANCH   1  18
TORSDOF 8
ENDMDL
MODEL 6
REMARK VINA RESULT:      -8.5      4.251      7.605
REMARK  Name = 
REMARK  8 active torsions:
REMARK  status: ('A' for Active; 'I' for Inactive)
REMARK    1  A    between atoms: C_2  and  C_3
REMARK    2  A    between atoms: C_2  and  C_24
REMARK    3  A    between atoms: C_3  and  O_4
REMARK    4  A    between atoms: O_4  and  C_5
REMARK    5  A    between atoms: C_5  and  C_7
REMARK    6  A    between atoms: N_9  and  C_10
REMARK    7  A    between atoms: C_17  and  C_18
REMARK    8  A    between atoms: C_27  and  N_28
REMARK                            x       y       z     vdW  Elec       q    Type
REMARK                         _______ _______ _______ _____ _____    ______ ____
ROOT
ATOM      1  C   UNL     1       1.191   8.870  20.693  0.00  0.00    +0.000 A 
ATOM      2  C   UNL     1       1.783   7.648  20.444  0.00  0.00    +0.000 A 
ATOM      3  N   UNL     1       2.121   7.623  19.116  0.00  0.00    +0.000 N 
ATOM      4  N   UNL     1       1.745   8.763  18.489  0.00  0.00    +0.000 NA
ATOM      5  C   UNL     1       1.144   9.514  19.425  0.00  0.00    +0.000 A 
ENDROOT
BRANCH   3   6
ATOM      6  C   UNL     1       2.780   6.578  18.409  0.00  0.00    +0.000 A 
ATOM      7  C   UNL     1       2.302   5.261  18.460  0.00  0.00    +0.000 A 
ATOM      8  C   UNL     1       2.957   4.249  17.757  0.00  0.00    +0.000 A 
ATOM      9  C   UNL     1       4.096   4.540  17.009  0.00  0.00    +0.000 A 
ATOM     10  C   UNL     1       4.579   5.845  16.955  0.00  0.00    +0.000 A 
ATOM     11  C   UNL     1       3.923   6.866  17.647  0.00  0.00    +0.000 A 
ENDBRANCH   3   6
BRANCH   5  12
ATOM     12  C   UNL     1       0.537  10.802  19.079  0.00  0.00    +0.000 A 
ATOM     13  C   UNL     1      -0.836  10.903  18.803  0.00  0.00    +0.000 A 
ATOM     14  C   UNL     1      -1.422  12.142  18.536  0.00  0.00    +0.000 A 
ATOM     15  C   UNL     1      -0.636  13.289  18.507  0.00  0.00    +0.000 A 
ATOM     16  C   UNL     1       0.737  13.198  18.736  0.00  0.00    +0.000 A 
ATOM     17  C   UNL     1       1.321  11.960  19.020  0.00  0.00    +0.000 A 
ENDBRANCH   5  12
BRANCH   1  18
ATOM     18  C   UNL     1       0.747   9.357  21.980  0.00  0.00    +0.000 C 
ATOM     19  O   UNL     1       1.495   9.539  22.936  0.00  0.00    +0.000 OA
BRANCH  18  20
ATOM     20  O   UNL     1      -0.584   9.661  21.996  0.00  0.00    +0.000 OA
BRANCH  20  21
ATOM     21  C   UNL     1      -0.928  10.557  23.052  0.00  0.00    +0.000 C 
BRANCH  21  23
ATOM     22  O   UNL     1      -0.632  12.707  21.981  0.00  0.00    +0.000 OA
ATOM     23  C   UNL     1      -1.397  11.904  22.514  0.00  0.00    +0.000 C 
BRANCH  23  24
ATOM     24  C   UNL     1      -2.825  12.282  22.703  0.00  0.00    +0.000 A 
ATOM     25  C   UNL     1      -3.652  12.632  21.628  0.00  0.00    +0.000 A 
ATOM     26  C   UNL     1      -4.982  13.000  21.856  0.00  0.00    +0.000 A 
ATOM     27  C   UNL     1      -5.486  13.012  23.163  0.00  0.00    +0.000 A 
ATOM     28  C   UNL     1      -4.670  12.654  24.243  0.00  0.00    +0.000 A 
ATOM     29  C   UNL     1      -3.339  12.295  24.009  0.00  0.00    +0.000 A 
BRANCH  27  30
ATOM     30  N   UNL     1      -6.877  13.418  23.400  0.00  0.00    +0.000 N 
ATOM     31  O   UNL     1      -7.314  14.378  22.749  0.00  0.00    +0.000 OA
ATOM     32  O   UNL     1      -7.531  12.775  24.232  0.00  0.00    +0.000 OA
ENDBRANCH  27  30
ENDBRANCH  23  24
ENDBRANCH  21  23
ENDBRANCH  20  21
ENDBRANCH  18  20
ENDBRANCH   1  18
TORSDOF 8
ENDMDL
MODEL 7
REMARK VINA RESULT:      -8.5      2.924      8.470
REMARK  Name = 
REMARK  8 active torsions:
REMARK  status: ('A' for Active; 'I' for Inactive)
REMARK    1  A    between atoms: C_2  and  C_3
REMARK    2  A    between atoms: C_2  and  C_24
REMARK    3  A    between atoms: C_3  and  O_4
REMARK    4  A    between atoms: O_4  and  C_5
REMARK    5  A    between atoms: C_5  and  C_7
REMARK    6  A    between atoms: N_9  and  C_10
REMARK    7  A    between atoms: C_17  and  C_18
REMARK    8  A    between atoms: C_27  and  N_28
REMARK                            x       y       z     vdW  Elec       q    Type
REMARK                         _______ _______ _______ _____ _____    ______ ____
ROOT
ATOM      1  C   UNL     1       2.431   7.146  19.321  0.00  0.00    +0.000 A 
ATOM      2  C   UNL     1       1.954   8.413  19.595  0.00  0.00    +0.000 A 
ATOM      3  N   UNL     1       1.065   8.297  20.632  0.00  0.00    +0.000 N 
ATOM      4  N   UNL     1       0.923   7.007  21.019  0.00  0.00    +0.000 NA
ATOM      5  C   UNL     1       1.716   6.292  20.207  0.00  0.00    +0.000 A 
ENDROOT
BRANCH   3   6
ATOM      6  C   UNL     1       0.343   9.342  21.275  0.00  0.00    +0.000 A 
ATOM      7  C   UNL     1      -0.096  10.463  20.555  0.00  0.00    +0.000 A 
ATOM      8  C   UNL     1      -0.807  11.476  21.200  0.00  0.00    +0.000 A 
ATOM      9  C   UNL     1      -1.076  11.384  22.565  0.00  0.00    +0.000 A 
ATOM     10  C   UNL     1      -0.642  10.275  23.287  0.00  0.00    +0.000 A 
ATOM     11  C   UNL     1       0.061   9.251  22.647  0.00  0.00    +0.000 A 
ENDBRANCH   3   6
BRANCH   5  12
ATOM     12  C   UNL     1       1.755   4.830  20.291  0.00  0.00    +0.000 A 
ATOM     13  C   UNL     1       2.221   4.185  21.449  0.00  0.00    +0.000 A 
ATOM     14  C   UNL     1       2.197   2.793  21.550  0.00  0.00    +0.000 A 
ATOM     15  C   UNL     1       1.743   2.027  20.482  0.00  0.00    +0.000 A 
ATOM     16  C   UNL     1       1.319   2.652  19.309  0.00  0.00    +0.000 A 
ATOM     17  C   UNL     1       1.326   4.046  19.214  0.00  0.00    +0.000 A 
ENDBRANCH   5  12
BRANCH   1  18
ATOM     18  C   UNL     1       3.447   6.808  18.351  0.00  0.00    +0.000 C 
ATOM     19  O   UNL     1       3.486   7.269  17.213  0.00  0.00    +0.000 OA
BRANCH  18  20
ATOM     20  O   UNL     1       4.402   5.974  18.858  0.00  0.00    +0.000 OA
BRANCH  20  21
ATOM     21  C   UNL     1       5.709   6.279  18.374  0.00  0.00    +0.000 C 
BRANCH  21  23
ATOM     22  O   UNL     1       7.131   4.340  18.650  0.00  0.00    +0.000 OA
ATOM     23  C   UNL     1       6.438   5.027  17.900  0.00  0.00    +0.000 C 
BRANCH  23  24
ATOM     24  C   UNL     1       6.357   4.666  16.458  0.00  0.00    +0.000 A 
ATOM     25  C   UNL     1       5.312   3.888  15.942  0.00  0.00    +0.000 A 
ATOM     26  C   UNL     1       5.288   3.556  14.584  0.00  0.00    +0.000 A 
ATOM     27  C   UNL     1       6.309   4.009  13.739  0.00  0.00    +0.000 A 
ATOM     28  C   UNL     1       7.353   4.796  14.243  0.00  0.00    +0.000 A 
ATOM     29  C   UNL     1       7.374   5.117  15.603  0.00  0.00    +0.000 A 
BRANCH  27  30
ATOM     30  N   UNL     1       6.290   3.643  12.317  0.00  0.00    +0.000 N 
ATOM     31  O   UNL     1       5.344   2.951  11.916  0.00  0.00    +0.000 OA
ATOM     32  O   UNL     1       7.217   4.050  11.605  0.00  0.00    +0.000 OA
ENDBRANCH  27  30
ENDBRANCH  23  24
ENDBRANCH  21  23
ENDBRANCH  20  21
ENDBRANCH  18  20
ENDBRANCH   1  18
TORSDOF 8
ENDMDL
MODEL 8
REMARK VINA RESULT:      -8.5      2.555      3.671
REMARK  Name = 
REMARK  8 active torsions:
REMARK  status: ('A' for Active; 'I' for Inactive)
REMARK    1  A    between atoms: C_2  and  C_3
REMARK    2  A    between atoms: C_2  and  C_24
REMARK    3  A    between atoms: C_3  and  O_4
REMARK    4  A    between atoms: O_4  and  C_5
REMARK    5  A    between atoms: C_5  and  C_7
REMARK    6  A    between atoms: N_9  and  C_10
REMARK    7  A    between atoms: C_17  and  C_18
REMARK    8  A    between atoms: C_27  and  N_28
REMARK                            x       y       z     vdW  Elec       q    Type
REMARK                         _______ _______ _______ _____ _____    ______ ____
ROOT
ATOM      1  C   UNL     1       3.280   6.516  18.136  0.00  0.00    +0.000 A 
ATOM      2  C   UNL     1       4.181   6.685  17.104  0.00  0.00    +0.000 A 
ATOM      3  N   UNL     1       4.561   5.435  16.687  0.00  0.00    +0.000 N 
ATOM      4  N   UNL     1       3.967   4.467  17.425  0.00  0.00    +0.000 NA
ATOM      5  C   UNL     1       3.216   5.109  18.334  0.00  0.00    +0.000 A 
ENDROOT
BRANCH   3   6
ATOM      6  C   UNL     1       5.455   5.109  15.629  0.00  0.00    +0.000 A 
ATOM      7  C   UNL     1       6.779   5.572  15.637  0.00  0.00    +0.000 A 
ATOM      8  C   UNL     1       7.644   5.239  14.593  0.00  0.00    +0.000 A 
ATOM      9  C   UNL     1       7.194   4.453  13.534  0.00  0.00    +0.000 A 
ATOM     10  C   UNL     1       5.880   3.992  13.517  0.00  0.00    +0.000 A 
ATOM     11  C   UNL     1       5.010   4.311  14.563  0.00  0.00    +0.000 A 
ENDBRANCH   3   6
BRANCH   5  12
ATOM     12  C   UNL     1       2.482   4.365  19.361  0.00  0.00    +0.000 A 
ATOM     13  C   UNL     1       1.279   3.708  19.056  0.00  0.00    +0.000 A 
ATOM     14  C   UNL     1       0.615   2.948  20.021  0.00  0.00    +0.000 A 
ATOM     15  C   UNL     1       1.126   2.867  21.312  0.00  0.00    +0.000 A 
ATOM     16  C   UNL     1       2.296   3.551  21.641  0.00  0.00    +0.000 A 
ATOM     17  C   UNL     1       2.970   4.297  20.671  0.00  0.00    +0.000 A 
ENDBRANCH   5  12
BRANCH   1  18
ATOM     18  C   UNL     1       2.564   7.567  18.825  0.00  0.00    +0.000 C 
ATOM     19  O   UNL     1       2.069   7.437  19.941  0.00  0.00    +0.000 OA
BRANCH  18  20
ATOM     20  O   UNL     1       2.558   8.742  18.130  0.00  0.00    +0.000 OA
BRANCH  20  21
ATOM     21  C   UNL     1       1.265   9.074  17.627  0.00  0.00    +0.000 C 
BRANCH  21  23
ATOM     22  O   UNL     1       1.189  10.763  19.359  0.00  0.00    +0.000 OA
ATOM     23  C   UNL     1       0.595  10.152  18.470  0.00  0.00    +0.000 C 
BRANCH  23  24
ATOM     24  C   UNL     1      -0.852  10.424  18.250  0.00  0.00    +0.000 A 
ATOM     25  C   UNL     1      -1.607   9.718  17.304  0.00  0.00    +0.000 A 
ATOM     26  C   UNL     1      -2.960  10.021  17.117  0.00  0.00    +0.000 A 
ATOM     27  C   UNL     1      -3.558  11.030  17.883  0.00  0.00    +0.000 A 
ATOM     28  C   UNL     1      -2.815  11.735  18.837  0.00  0.00    +0.000 A 
ATOM     29  C   UNL     1      -1.461  11.432  19.013  0.00  0.00    +0.000 A 
BRANCH  27  30
ATOM     30  N   UNL     1      -4.974  11.358  17.670  0.00  0.00    +0.000 N 
ATOM     31  O   UNL     1      -5.237  12.283  16.889  0.00  0.00    +0.000 OA
ATOM     32  O   UNL     1      -5.819  10.689  18.281  0.00  0.00    +0.000 OA
ENDBRANCH  27  30
ENDBRANCH  23  24
ENDBRANCH  21  23
ENDBRANCH  20  21
ENDBRANCH  18  20
ENDBRANCH   1  18
TORSDOF 8
ENDMDL
MODEL 9
REMARK VINA RESULT:      -8.4      2.564      3.526
REMARK  Name = 
REMARK  8 active torsions:
REMARK  status: ('A' for Active; 'I' for Inactive)
REMARK    1  A    between atoms: C_2  and  C_3
REMARK    2  A    between atoms: C_2  and  C_24
REMARK    3  A    between atoms: C_3  and  O_4
REMARK    4  A    between atoms: O_4  and  C_5
REMARK    5  A    between atoms: C_5  and  C_7
REMARK    6  A    between atoms: N_9  and  C_10
REMARK    7  A    between atoms: C_17  and  C_18
REMARK    8  A    between atoms: C_27  and  N_28
REMARK                            x       y       z     vdW  Elec       q    Type
REMARK                         _______ _______ _______ _____ _____    ______ ____
ROOT
ATOM      1  C   UNL     1       3.293   6.532  18.180  0.00  0.00    +0.000 A 
ATOM      2  C   UNL     1       4.191   6.700  17.145  0.00  0.00    +0.000 A 
ATOM      3  N   UNL     1       4.555   5.450  16.715  0.00  0.00    +0.000 N 
ATOM      4  N   UNL     1       3.955   4.482  17.447  0.00  0.00    +0.000 NA
ATOM      5  C   UNL     1       3.216   5.123  18.366  0.00  0.00    +0.000 A 
ENDROOT
BRANCH   3   6
ATOM      6  C   UNL     1       5.440   5.124  15.649  0.00  0.00    +0.000 A 
ATOM      7  C   UNL     1       5.020   4.307  14.589  0.00  0.00    +0.000 A 
ATOM      8  C   UNL     1       5.900   4.001  13.549  0.00  0.00    +0.000 A 
ATOM      9  C   UNL     1       7.202   4.496  13.564  0.00  0.00    +0.000 A 
ATOM     10  C   UNL     1       7.627   5.307  14.615  0.00  0.00    +0.000 A 
ATOM     11  C   UNL     1       6.750   5.627  15.654  0.00  0.00    +0.000 A 
ENDBRANCH   3   6
BRANCH   5  12
ATOM     12  C   UNL     1       2.479   4.379  19.391  0.00  0.00    +0.000 A 
ATOM     13  C   UNL     1       1.237   3.790  19.103  0.00  0.00    +0.000 A 
ATOM     14  C   UNL     1       0.569   3.028  20.063  0.00  0.00    +0.000 A 
ATOM     15  C   UNL     1       1.115   2.876  21.333  0.00  0.00    +0.000 A 
ATOM     16  C   UNL     1       2.326   3.493  21.647  0.00  0.00    +0.000 A 
ATOM     17  C   UNL     1       3.004   4.241  20.681  0.00  0.00    +0.000 A 
ENDBRANCH   5  12
BRANCH   1  18
ATOM     18  C   UNL     1       2.592   7.584  18.882  0.00  0.00    +0.000 C 
ATOM     19  O   UNL     1       2.189   7.482  20.037  0.00  0.00    +0.000 OA
BRANCH  18  20
ATOM     20  O   UNL     1       2.489   8.729  18.146  0.00  0.00    +0.000 OA
BRANCH  20  21
ATOM     21  C   UNL     1       1.147   9.003  17.745  0.00  0.00    +0.000 C 
BRANCH  21  23
ATOM     22  O   UNL     1       1.250  10.892  19.254  0.00  0.00    +0.000 OA
ATOM     23  C   UNL     1       0.580  10.215  18.474  0.00  0.00    +0.000 C 
BRANCH  23  24
ATOM     24  C   UNL     1      -0.858  10.546  18.282  0.00  0.00    +0.000 A 
ATOM     25  C   UNL     1      -1.523  11.476  19.092  0.00  0.00    +0.000 A 
ATOM     26  C   UNL     1      -2.881  11.741  18.888  0.00  0.00    +0.000 A 
ATOM     27  C   UNL     1      -3.573  11.077  17.867  0.00  0.00    +0.000 A 
ATOM     28  C   UNL     1      -2.915  10.153  17.045  0.00  0.00    +0.000 A 
ATOM     29  C   UNL     1      -1.559   9.888  17.261  0.00  0.00    +0.000 A 
BRANCH  27  30
ATOM     30  N   UNL     1      -5.004  11.344  17.668  0.00  0.00    +0.000 N 
ATOM     31  O   UNL     1      -5.809  10.682  18.337  0.00  0.00    +0.000 OA
ATOM     32  O   UNL     1      -5.318  12.216  16.847  0.00  0.00    +0.000 OA
ENDBRANCH  27  30
ENDBRANCH  23  24
ENDBRANCH  21  23
ENDBRANCH  20  21
ENDBRANCH  18  20
ENDBRANCH   1  18
TORSDOF 8
ENDMDL
