MODEL 1
REMARK VINA RESULT:      -7.1      0.000      0.000
REMARK  Name = 
REMARK  3 active torsions:
REMARK  status: ('A' for Active; 'I' for Inactive)
REMARK    1  A    between atoms: C_1  and  N_2
REMARK    2  A    between atoms: C_5  and  N_6
REMARK    3  A    between atoms: C_16  and  C_17
REMARK                            x       y       z     vdW  Elec       q    Type
REMARK                         _______ _______ _______ _____ _____    ______ ____
ROOT
ATOM      1  N   UNL     1       1.888   9.440  19.141  0.00  0.00    +0.000 N 
ATOM      2  C   UNL     1       0.789  10.216  18.774  0.00  0.00    +0.000 C 
ATOM      3  N   UNL     1      -0.326   9.616  18.448  0.00  0.00    +0.000 NA
ATOM      4  C   UNL     1      -1.501  10.261  18.013  0.00  0.00    +0.000 A 
ATOM      5  C   UNL     1      -2.189   9.687  16.936  0.00  0.00    +0.000 A 
ATOM      6  C   UNL     1      -3.373  10.253  16.448  0.00  0.00    +0.000 A 
ATOM      7  C   UNL     1      -3.902  11.392  17.048  0.00  0.00    +0.000 A 
ATOM      8  C   UNL     1      -3.253  11.961  18.140  0.00  0.00    +0.000 A 
ATOM      9  C   UNL     1      -2.064  11.393  18.627  0.00  0.00    +0.000 A 
ATOM     10  C   UNL     1      -1.294  12.087  19.666  0.00  0.00    +0.000 C 
ATOM     11  C   UNL     1      -1.788  12.160  20.919  0.00  0.00    +0.000 C 
ATOM     12  C   UNL     1       0.045  12.593  19.295  0.00  0.00    +0.000 A 
ATOM     13  C   UNL     1       0.327  13.968  19.344  0.00  0.00    +0.000 A 
ATOM     14  C   UNL     1       1.564  14.457  18.917  0.00  0.00    +0.000 A 
ATOM     15  C   UNL     1       2.520  13.583  18.402  0.00  0.00    +0.000 A 
ATOM     16  C   UNL     1       2.233  12.219  18.316  0.00  0.00    +0.000 A 
ATOM     17  C   UNL     1       1.007  11.708  18.780  0.00  0.00    +0.000 A 
ATOM     18  H   UNL     1       2.769   9.929  19.238  0.00  0.00    +0.000 HD
ENDROOT
BRANCH   1  23
ATOM     19  C   UNL     1       4.074   4.305  18.205  0.00  0.00    +0.000 C 
ATOM     20  N   UNL     1       3.741   5.675  18.602  0.00  0.00    +0.000 NA
ATOM     21  C   UNL     1       3.596   6.528  17.414  0.00  0.00    +0.000 C 
ATOM     22  C   UNL     1       3.300   7.968  17.810  0.00  0.00    +0.000 C 
ATOM     23  C   UNL     1       2.049   8.059  18.682  0.00  0.00    +0.000 C 
ATOM     24  C   UNL     1       2.185   7.110  19.882  0.00  0.00    +0.000 C 
ATOM     25  C   UNL     1       2.519   5.690  19.417  0.00  0.00    +0.000 C 
ENDBRANCH   1  23
BRANCH  11  26
ATOM     26  C   UNL     1      -0.965  12.807  22.021  0.00  0.00    +0.000 C 
ATOM     27  N   UNL     1      -0.283  13.343  22.936  0.00  0.00    +0.000 NA
ENDBRANCH  11  26
TORSDOF 2
ENDMDL
MODEL 2
REMARK VINA RESULT:      -7.0      2.672      8.775
REMARK  Name = 
REMARK  3 active torsions:
REMARK  status: ('A' for Active; 'I' for Inactive)
REMARK    1  A    between atoms: C_1  and  N_2
REMARK    2  A    between atoms: C_5  and  N_6
REMARK    3  A    between atoms: C_16  and  C_17
REMARK                            x       y       z     vdW  Elec       q    Type
REMARK                         _______ _______ _______ _____ _____    ______ ____
ROOT
ATOM      1  N   UNL     1       3.456   7.661  17.804  0.00  0.00    +0.000 N 
ATOM      2  C   UNL     1       3.665   6.290  17.942  0.00  0.00    +0.000 C 
ATOM      3  N   UNL     1       2.629   5.492  17.964  0.00  0.00    +0.000 NA
ATOM      4  C   UNL     1       2.679   4.096  18.144  0.00  0.00    +0.000 A 
ATOM      5  C   UNL     1       1.728   3.521  18.997  0.00  0.00    +0.000 A 
ATOM      6  C   UNL     1       1.696   2.141  19.222  0.00  0.00    +0.000 A 
ATOM      7  C   UNL     1       2.602   1.305  18.575  0.00  0.00    +0.000 A 
ATOM      8  C   UNL     1       3.535   1.850  17.696  0.00  0.00    +0.000 A 
ATOM      9  C   UNL     1       3.567   3.236  17.474  0.00  0.00    +0.000 A 
ATOM     10  C   UNL     1       4.654   3.825  16.682  0.00  0.00    +0.000 C 
ATOM     11  C   UNL     1       4.705   3.597  15.354  0.00  0.00    +0.000 C 
ATOM     12  C   UNL     1       5.594   4.726  17.383  0.00  0.00    +0.000 A 
ATOM     13  C   UNL     1       6.958   4.404  17.473  0.00  0.00    +0.000 A 
ATOM     14  C   UNL     1       7.834   5.211  18.204  0.00  0.00    +0.000 A 
ATOM     15  C   UNL     1       7.350   6.329  18.883  0.00  0.00    +0.000 A 
ATOM     16  C   UNL     1       5.989   6.634  18.829  0.00  0.00    +0.000 A 
ATOM     17  C   UNL     1       5.103   5.854  18.064  0.00  0.00    +0.000 A 
ATOM     18  H   UNL     1       4.265   8.253  17.941  0.00  0.00    +0.000 HD
ENDROOT
BRANCH   1  23
ATOM     19  C   UNL     1      -0.243  11.075  20.387  0.00  0.00    +0.000 C 
ATOM     20  N   UNL     1       0.909  10.346  19.853  0.00  0.00    +0.000 NA
ATOM     21  C   UNL     1       0.836   8.929  20.234  0.00  0.00    +0.000 C 
ATOM     22  C   UNL     1       2.053   8.166  19.729  0.00  0.00    +0.000 C 
ATOM     23  C   UNL     1       2.204   8.299  18.215  0.00  0.00    +0.000 C 
ATOM     24  C   UNL     1       2.208   9.784  17.825  0.00  0.00    +0.000 C 
ATOM     25  C   UNL     1       0.981  10.500  18.394  0.00  0.00    +0.000 C 
ENDBRANCH   1  23
BRANCH  11  26
ATOM     26  C   UNL     1       5.779   4.264  14.511  0.00  0.00    +0.000 C 
ATOM     27  N   UNL     1       6.671   4.817  13.812  0.00  0.00    +0.000 NA
ENDBRANCH  11  26
TORSDOF 2
ENDMDL
MODEL 3
REMARK VINA RESULT:      -6.9      2.664      8.776
REMARK  Name = 
REMARK  3 active torsions:
REMARK  status: ('A' for Active; 'I' for Inactive)
REMARK    1  A    between atoms: C_1  and  N_2
REMARK    2  A    between atoms: C_5  and  N_6
REMARK    3  A    between atoms: C_16  and  C_17
REMARK                            x       y       z     vdW  Elec       q    Type
REMARK                         _______ _______ _______ _____ _____    ______ ____
ROOT
ATOM      1  N   UNL     1       2.003   6.490  20.395  0.00  0.00    +0.000 N 
ATOM      2  C   UNL     1       2.658   5.841  19.349  0.00  0.00    +0.000 C 
ATOM      3  N   UNL     1       3.595   6.481  18.698  0.00  0.00    +0.000 NA
ATOM      4  C   UNL     1       4.309   5.976  17.593  0.00  0.00    +0.000 A 
ATOM      5  C   UNL     1       4.529   6.845  16.517  0.00  0.00    +0.000 A 
ATOM      6  C   UNL     1       5.241   6.431  15.386  0.00  0.00    +0.000 A 
ATOM      7  C   UNL     1       5.768   5.145  15.322  0.00  0.00    +0.000 A 
ATOM      8  C   UNL     1       5.591   4.274  16.394  0.00  0.00    +0.000 A 
ATOM      9  C   UNL     1       4.873   4.690  17.528  0.00  0.00    +0.000 A 
ATOM     10  C   UNL     1       4.544   3.722  18.581  0.00  0.00    +0.000 C 
ATOM     11  C   UNL     1       5.527   3.234  19.365  0.00  0.00    +0.000 C 
ATOM     12  C   UNL     1       3.114   3.402  18.785  0.00  0.00    +0.000 A 
ATOM     13  C   UNL     1       2.641   2.093  18.594  0.00  0.00    +0.000 A 
ATOM     14  C   UNL     1       1.279   1.804  18.707  0.00  0.00    +0.000 A 
ATOM     15  C   UNL     1       0.369   2.826  18.976  0.00  0.00    +0.000 A 
ATOM     16  C   UNL     1       0.827   4.136  19.130  0.00  0.00    +0.000 A 
ATOM     17  C   UNL     1       2.200   4.434  19.060  0.00  0.00    +0.000 A 
ATOM     18  H   UNL     1       1.189   6.021  20.772  0.00  0.00    +0.000 HD
ENDROOT
BRANCH   1  23
ATOM     19  C   UNL     1      -0.047  11.758  20.151  0.00  0.00    +0.000 C 
ATOM     20  N   UNL     1       0.218  10.317  20.155  0.00  0.00    +0.000 NA
ATOM     21  C   UNL     1       1.224   9.982  19.140  0.00  0.00    +0.000 C 
ATOM     22  C   UNL     1       1.475   8.481  19.096  0.00  0.00    +0.000 C 
ATOM     23  C   UNL     1       1.905   7.949  20.462  0.00  0.00    +0.000 C 
ATOM     24  C   UNL     1       0.880   8.367  21.525  0.00  0.00    +0.000 C 
ATOM     25  C   UNL     1       0.646   9.880  21.491  0.00  0.00    +0.000 C 
ENDBRANCH   1  23
BRANCH  11  26
ATOM     26  C   UNL     1       5.188   2.291  20.508  0.00  0.00    +0.000 C 
ATOM     27  N   UNL     1       4.907   1.510  21.456  0.00  0.00    +0.000 NA
ENDBRANCH  11  26
TORSDOF 2
ENDMDL
MODEL 4
REMARK VINA RESULT:      -6.7      1.931      3.838
REMARK  Name = 
REMARK  3 active torsions:
REMARK  status: ('A' for Active; 'I' for Inactive)
REMARK    1  A    between atoms: C_1  and  N_2
REMARK    2  A    between atoms: C_5  and  N_6
REMARK    3  A    between atoms: C_16  and  C_17
REMARK                            x       y       z     vdW  Elec       q    Type
REMARK                         _______ _______ _______ _____ _____    ______ ____
ROOT
ATOM      1  N   UNL     1       1.811   8.920  17.884  0.00  0.00    +0.000 N 
ATOM      2  C   UNL     1       0.956   9.453  18.847  0.00  0.00    +0.000 C 
ATOM      3  N   UNL     1       1.271   9.325  20.111  0.00  0.00    +0.000 NA
ATOM      4  C   UNL     1       0.487   9.768  21.195  0.00  0.00    +0.000 A 
ATOM      5  C   UNL     1       0.368   8.911  22.296  0.00  0.00    +0.000 A 
ATOM      6  C   UNL     1      -0.379   9.276  23.421  0.00  0.00    +0.000 A 
ATOM      7  C   UNL     1      -1.000  10.520  23.475  0.00  0.00    +0.000 A 
ATOM      8  C   UNL     1      -0.868  11.403  22.406  0.00  0.00    +0.000 A 
ATOM      9  C   UNL     1      -0.121  11.033  21.276  0.00  0.00    +0.000 A 
ATOM     10  C   UNL     1      -0.121  11.892  20.085  0.00  0.00    +0.000 C 
ATOM     11  C   UNL     1       0.507  13.085  20.128  0.00  0.00    +0.000 C 
ATOM     12  C   UNL     1      -0.742  11.349  18.858  0.00  0.00    +0.000 A 
ATOM     13  C   UNL     1      -1.861  11.978  18.285  0.00  0.00    +0.000 A 
ATOM     14  C   UNL     1      -2.498  11.422  17.173  0.00  0.00    +0.000 A 
ATOM     15  C   UNL     1      -2.048  10.214  16.642  0.00  0.00    +0.000 A 
ATOM     16  C   UNL     1      -0.960   9.564  17.228  0.00  0.00    +0.000 A 
ATOM     17  C   UNL     1      -0.284  10.133  18.323  0.00  0.00    +0.000 A 
ATOM     18  H   UNL     1       1.461   8.907  16.934  0.00  0.00    +0.000 HD
ENDROOT
BRANCH   1  23
ATOM     19  C   UNL     1       4.734   4.100  17.400  0.00  0.00    +0.000 C 
ATOM     20  N   UNL     1       3.897   5.294  17.260  0.00  0.00    +0.000 NA
ATOM     21  C   UNL     1       2.831   5.289  18.271  0.00  0.00    +0.000 C 
ATOM     22  C   UNL     1       1.920   6.498  18.108  0.00  0.00    +0.000 C 
ATOM     23  C   UNL     1       2.710   7.803  18.178  0.00  0.00    +0.000 C 
ATOM     24  C   UNL     1       3.863   7.765  17.165  0.00  0.00    +0.000 C 
ATOM     25  C   UNL     1       4.716   6.509  17.359  0.00  0.00    +0.000 C 
ENDBRANCH   1  23
BRANCH  11  26
ATOM     26  C   UNL     1       0.579  13.948  18.879  0.00  0.00    +0.000 C 
ATOM     27  N   UNL     1       0.641  14.664  17.843  0.00  0.00    +0.000 NA
ENDBRANCH  11  26
TORSDOF 2
ENDMDL
MODEL 5
REMARK VINA RESULT:      -6.5      3.416      7.626
REMARK  Name = 
REMARK  3 active torsions:
REMARK  status: ('A' for Active; 'I' for Inactive)
REMARK    1  A    between atoms: C_1  and  N_2
REMARK    2  A    between atoms: C_5  and  N_6
REMARK    3  A    between atoms: C_16  and  C_17
REMARK                            x       y       z     vdW  Elec       q    Type
REMARK                         _______ _______ _______ _____ _____    ______ ____
ROOT
ATOM      1  N   UNL     1      -2.860  13.300  22.194  0.00  0.00    +0.000 N 
ATOM      2  C   UNL     1      -2.405  12.413  21.219  0.00  0.00    +0.000 C 
ATOM      3  N   UNL     1      -2.913  12.484  20.016  0.00  0.00    +0.000 NA
ATOM      4  C   UNL     1      -2.590  11.629  18.943  0.00  0.00    +0.000 A 
ATOM      5  C   UNL     1      -3.645  11.169  18.146  0.00  0.00    +0.000 A 
ATOM      6  C   UNL     1      -3.413  10.328  17.051  0.00  0.00    +0.000 A 
ATOM      7  C   UNL     1      -2.114   9.953  16.720  0.00  0.00    +0.000 A 
ATOM      8  C   UNL     1      -1.046  10.426  17.478  0.00  0.00    +0.000 A 
ATOM      9  C   UNL     1      -1.281  11.267  18.578  0.00  0.00    +0.000 A 
ATOM     10  C   UNL     1      -0.175  11.627  19.474  0.00  0.00    +0.000 C 
ATOM     11  C   UNL     1       0.795  12.453  19.032  0.00  0.00    +0.000 C 
ATOM     12  C   UNL     1      -0.238  11.127  20.864  0.00  0.00    +0.000 A 
ATOM     13  C   UNL     1       0.751  10.259  21.356  0.00  0.00    +0.000 A 
ATOM     14  C   UNL     1       0.651   9.722  22.642  0.00  0.00    +0.000 A 
ATOM     15  C   UNL     1      -0.456  10.016  23.438  0.00  0.00    +0.000 A 
ATOM     16  C   UNL     1      -1.461  10.849  22.941  0.00  0.00    +0.000 A 
ATOM     17  C   UNL     1      -1.353  11.429  21.665  0.00  0.00    +0.000 A 
ATOM     18  H   UNL     1      -2.556  13.116  23.142  0.00  0.00    +0.000 HD
ENDROOT
BRANCH   1  23
ATOM     19  C   UNL     1      -7.791  15.624  23.710  0.00  0.00    +0.000 C 
ATOM     20  N   UNL     1      -6.458  15.029  23.594  0.00  0.00    +0.000 NA
ATOM     21  C   UNL     1      -6.547  13.694  22.989  0.00  0.00    +0.000 C 
ATOM     22  C   UNL     1      -5.174  13.040  22.908  0.00  0.00    +0.000 C 
ATOM     23  C   UNL     1      -4.190  13.910  22.128  0.00  0.00    +0.000 C 
ATOM     24  C   UNL     1      -4.159  15.322  22.728  0.00  0.00    +0.000 C 
ATOM     25  C   UNL     1      -5.572  15.906  22.816  0.00  0.00    +0.000 C 
ENDBRANCH   1  23
BRANCH  11  26
ATOM     26  C   UNL     1       1.903  12.894  19.974  0.00  0.00    +0.000 C 
ATOM     27  N   UNL     1       2.821  13.260  20.756  0.00  0.00    +0.000 NA
ENDBRANCH  11  26
TORSDOF 2
ENDMDL
MODEL 6
REMARK VINA RESULT:      -6.4      1.619      3.986
REMARK  Name = 
REMARK  3 active torsions:
REMARK  status: ('A' for Active; 'I' for Inactive)
REMARK    1  A    between atoms: C_1  and  N_2
REMARK    2  A    between atoms: C_5  and  N_6
REMARK    3  A    between atoms: C_16  and  C_17
REMARK                            x       y       z     vdW  Elec       q    Type
REMARK                         _______ _______ _______ _____ _____    ______ ____
ROOT
ATOM      1  N   UNL     1       0.919   8.832  19.959  0.00  0.00    +0.000 N 
ATOM      2  C   UNL     1       0.786  10.219  19.919  0.00  0.00    +0.000 C 
ATOM      3  N   UNL     1       1.486  10.896  19.045  0.00  0.00    +0.000 NA
ATOM      4  C   UNL     1       1.493  12.299  18.918  0.00  0.00    +0.000 A 
ATOM      5  C   UNL     1       2.731  12.921  18.718  0.00  0.00    +0.000 A 
ATOM      6  C   UNL     1       2.829  14.309  18.567  0.00  0.00    +0.000 A 
ATOM      7  C   UNL     1       1.683  15.098  18.588  0.00  0.00    +0.000 A 
ATOM      8  C   UNL     1       0.437  14.498  18.752  0.00  0.00    +0.000 A 
ATOM      9  C   UNL     1       0.341  13.105  18.907  0.00  0.00    +0.000 A 
ATOM     10  C   UNL     1      -0.950  12.494  19.247  0.00  0.00    +0.000 C 
ATOM     11  C   UNL     1      -1.936  12.474  18.328  0.00  0.00    +0.000 C 
ATOM     12  C   UNL     1      -1.064  11.842  20.569  0.00  0.00    +0.000 A 
ATOM     13  C   UNL     1      -1.984  12.314  21.521  0.00  0.00    +0.000 A 
ATOM     14  C   UNL     1      -2.038  11.752  22.798  0.00  0.00    +0.000 A 
ATOM     15  C   UNL     1      -1.150  10.737  23.153  0.00  0.00    +0.000 A 
ATOM     16  C   UNL     1      -0.208  10.288  22.224  0.00  0.00    +0.000 A 
ATOM     17  C   UNL     1      -0.169  10.817  20.922  0.00  0.00    +0.000 A 
ATOM     18  H   UNL     1       0.480   8.363  20.741  0.00  0.00    +0.000 HD
ENDROOT
BRANCH   1  23
ATOM     19  C   UNL     1       4.387   5.117  17.471  0.00  0.00    +0.000 C 
ATOM     20  N   UNL     1       3.284   5.926  17.995  0.00  0.00    +0.000 NA
ATOM     21  C   UNL     1       3.307   5.929  19.463  0.00  0.00    +0.000 C 
ATOM     22  C   UNL     1       2.137   6.724  20.025  0.00  0.00    +0.000 C 
ATOM     23  C   UNL     1       2.132   8.156  19.494  0.00  0.00    +0.000 C 
ATOM     24  C   UNL     1       2.178   8.139  17.959  0.00  0.00    +0.000 C 
ATOM     25  C   UNL     1       3.353   7.293  17.461  0.00  0.00    +0.000 C 
ENDBRANCH   1  23
BRANCH  11  26
ATOM     26  C   UNL     1      -3.250  11.776  18.641  0.00  0.00    +0.000 C 
ATOM     27  N   UNL     1      -4.339  11.197  18.900  0.00  0.00    +0.000 NA
ENDBRANCH  11  26
TORSDOF 2
ENDMDL
MODEL 7
REMARK VINA RESULT:      -6.3      3.530      7.566
REMARK  Name = 
REMARK  3 active torsions:
REMARK  status: ('A' for Active; 'I' for Inactive)
REMARK    1  A    between atoms: C_1  and  N_2
REMARK    2  A    between atoms: C_5  and  N_6
REMARK    3  A    between atoms: C_16  and  C_17
REMARK                            x       y       z     vdW  Elec       q    Type
REMARK                         _______ _______ _______ _____ _____    ______ ____
ROOT
ATOM      1  N   UNL     1      -2.529  13.085  23.472  0.00  0.00    +0.000 N 
ATOM      2  C   UNL     1      -2.315  12.507  22.222  0.00  0.00    +0.000 C 
ATOM      3  N   UNL     1      -3.032  12.914  21.207  0.00  0.00    +0.000 NA
ATOM      4  C   UNL     1      -2.963  12.394  19.899  0.00  0.00    +0.000 A 
ATOM      5  C   UNL     1      -4.172  12.179  19.227  0.00  0.00    +0.000 A 
ATOM      6  C   UNL     1      -4.196  11.679  17.920  0.00  0.00    +0.000 A 
ATOM      7  C   UNL     1      -3.005  11.408  17.253  0.00  0.00    +0.000 A 
ATOM      8  C   UNL     1      -1.789  11.645  17.889  0.00  0.00    +0.000 A 
ATOM      9  C   UNL     1      -1.768  12.144  19.202  0.00  0.00    +0.000 A 
ATOM     10  C   UNL     1      -0.496  12.235  19.929  0.00  0.00    +0.000 C 
ATOM     11  C   UNL     1       0.421  13.149  19.552  0.00  0.00    +0.000 C 
ATOM     12  C   UNL     1      -0.328  11.365  21.114  0.00  0.00    +0.000 A 
ATOM     13  C   UNL     1       0.683  10.390  21.147  0.00  0.00    +0.000 A 
ATOM     14  C   UNL     1       0.792   9.514  22.230  0.00  0.00    +0.000 A 
ATOM     15  C   UNL     1      -0.129   9.577  23.275  0.00  0.00    +0.000 A 
ATOM     16  C   UNL     1      -1.159  10.519  23.231  0.00  0.00    +0.000 A 
ATOM     17  C   UNL     1      -1.257  11.434  22.167  0.00  0.00    +0.000 A 
ATOM     18  H   UNL     1      -2.066  12.642  24.255  0.00  0.00    +0.000 HD
ENDROOT
BRANCH   1  23
ATOM     19  C   UNL     1      -7.736  15.273  23.119  0.00  0.00    +0.000 C 
ATOM     20  N   UNL     1      -6.421  14.654  22.935  0.00  0.00    +0.000 NA
ATOM     21  C   UNL     1      -5.358  15.604  23.288  0.00  0.00    +0.000 C 
ATOM     22  C   UNL     1      -3.982  14.995  23.054  0.00  0.00    +0.000 C 
ATOM     23  C   UNL     1      -3.811  13.694  23.836  0.00  0.00    +0.000 C 
ATOM     24  C   UNL     1      -4.967  12.738  23.510  0.00  0.00    +0.000 C 
ATOM     25  C   UNL     1      -6.318  13.423  23.730  0.00  0.00    +0.000 C 
ENDBRANCH   1  23
BRANCH  11  26
ATOM     26  C   UNL     1       1.708  13.305  20.345  0.00  0.00    +0.000 C 
ATOM     27  N   UNL     1       2.775  13.434  21.003  0.00  0.00    +0.000 NA
ENDBRANCH  11  26
TORSDOF 2
ENDMDL
MODEL 8
REMARK VINA RESULT:      -6.3      3.483      5.959
REMARK  Name = 
REMARK  3 active torsions:
REMARK  status: ('A' for Active; 'I' for Inactive)
REMARK    1  A    between atoms: C_1  and  N_2
REMARK    2  A    between atoms: C_5  and  N_6
REMARK    3  A    between atoms: C_16  and  C_17
REMARK                            x       y       z     vdW  Elec       q    Type
REMARK                         _______ _______ _______ _____ _____    ______ ____
ROOT
ATOM      1  N   UNL     1      -2.405  10.698  18.673  0.00  0.00    +0.000 N 
ATOM      2  C   UNL     1      -1.601  11.531  19.450  0.00  0.00    +0.000 C 
ATOM      3  N   UNL     1      -1.371  12.750  19.037  0.00  0.00    +0.000 NA
ATOM      4  C   UNL     1      -0.545  13.688  19.687  0.00  0.00    +0.000 A 
ATOM      5  C   UNL     1       0.313  14.454  18.888  0.00  0.00    +0.000 A 
ATOM      6  C   UNL     1       1.157  15.419  19.450  0.00  0.00    +0.000 A 
ATOM      7  C   UNL     1       1.139  15.652  20.821  0.00  0.00    +0.000 A 
ATOM      8  C   UNL     1       0.270  14.926  21.632  0.00  0.00    +0.000 A 
ATOM      9  C   UNL     1      -0.574  13.956  21.067  0.00  0.00    +0.000 A 
ATOM     10  C   UNL     1      -1.364  13.077  21.939  0.00  0.00    +0.000 C 
ATOM     11  C   UNL     1      -2.398  13.591  22.636  0.00  0.00    +0.000 C 
ATOM     12  C   UNL     1      -1.033  11.636  21.929  0.00  0.00    +0.000 A 
ATOM     13  C   UNL     1      -0.583  10.999  23.097  0.00  0.00    +0.000 A 
ATOM     14  C   UNL     1      -0.192   9.658  23.072  0.00  0.00    +0.000 A 
ATOM     15  C   UNL     1      -0.212   8.947  21.873  0.00  0.00    +0.000 A 
ATOM     16  C   UNL     1      -0.622   9.585  20.700  0.00  0.00    +0.000 A 
ATOM     17  C   UNL     1      -1.057  10.922  20.718  0.00  0.00    +0.000 A 
ATOM     18  H   UNL     1      -2.436   9.724  18.947  0.00  0.00    +0.000 HD
ENDROOT
BRANCH   1  23
ATOM     19  C   UNL     1      -4.091  10.067  13.309  0.00  0.00    +0.000 C 
ATOM     20  N   UNL     1      -3.843  10.027  14.752  0.00  0.00    +0.000 NA
ATOM     21  C   UNL     1      -2.438   9.691  15.017  0.00  0.00    +0.000 C 
ATOM     22  C   UNL     1      -2.174   9.595  16.514  0.00  0.00    +0.000 C 
ATOM     23  C   UNL     1      -2.552  10.890  17.229  0.00  0.00    +0.000 C 
ATOM     24  C   UNL     1      -4.001  11.267  16.886  0.00  0.00    +0.000 C 
ATOM     25  C   UNL     1      -4.207  11.309  15.370  0.00  0.00    +0.000 C 
ENDBRANCH   1  23
BRANCH  11  26
ATOM     26  C   UNL     1      -3.271  12.677  23.481  0.00  0.00    +0.000 C 
ATOM     27  N   UNL     1      -3.996  11.920  24.181  0.00  0.00    +0.000 NA
ENDBRANCH  11  26
TORSDOF 2
ENDMDL
MODEL 9
REMARK VINA RESULT:      -6.3      2.589      8.576
REMARK  Name = 
REMARK  3 active torsions:
REMARK  status: ('A' for Active; 'I' for Inactive)
REMARK    1  A    between atoms: C_1  and  N_2
REMARK    2  A    between atoms: C_5  and  N_6
REMARK    3  A    between atoms: C_16  and  C_17
REMARK                            x       y       z     vdW  Elec       q    Type
REMARK                         _______ _______ _______ _____ _____    ______ ____
ROOT
ATOM      1  N   UNL     1       3.048   7.984  17.576  0.00  0.00    +0.000 N 
ATOM      2  C   UNL     1       3.532   6.770  18.063  0.00  0.00    +0.000 C 
ATOM      3  N   UNL     1       2.703   5.957  18.665  0.00  0.00    +0.000 NA
ATOM      4  C   UNL     1       3.052   4.722  19.248  0.00  0.00    +0.000 A 
ATOM      5  C   UNL     1       2.493   4.418  20.496  0.00  0.00    +0.000 A 
ATOM      6  C   UNL     1       2.774   3.208  21.140  0.00  0.00    +0.000 A 
ATOM      7  C   UNL     1       3.602   2.268  20.533  0.00  0.00    +0.000 A 
ATOM      8  C   UNL     1       4.143   2.535  19.278  0.00  0.00    +0.000 A 
ATOM      9  C   UNL     1       3.863   3.751  18.635  0.00  0.00    +0.000 A 
ATOM     10  C   UNL     1       4.564   4.101  17.394  0.00  0.00    +0.000 C 
ATOM     11  C   UNL     1       4.288   3.422  16.261  0.00  0.00    +0.000 C 
ATOM     12  C   UNL     1       5.482   5.260  17.437  0.00  0.00    +0.000 A 
ATOM     13  C   UNL     1       6.854   5.094  17.181  0.00  0.00    +0.000 A 
ATOM     14  C   UNL     1       7.735   6.171  17.300  0.00  0.00    +0.000 A 
ATOM     15  C   UNL     1       7.264   7.418  17.712  0.00  0.00    +0.000 A 
ATOM     16  C   UNL     1       5.908   7.580  18.004  0.00  0.00    +0.000 A 
ATOM     17  C   UNL     1       5.002   6.515  17.849  0.00  0.00    +0.000 A 
ATOM     18  H   UNL     1       3.743   8.645  17.254  0.00  0.00    +0.000 HD
ENDROOT
BRANCH   1  23
ATOM     19  C   UNL     1      -0.270  11.312  20.727  0.00  0.00    +0.000 C 
ATOM     20  N   UNL     1       0.800  10.588  20.038  0.00  0.00    +0.000 NA
ATOM     21  C   UNL     1       0.704   9.149  20.320  0.00  0.00    +0.000 C 
ATOM     22  C   UNL     1       1.840   8.386  19.653  0.00  0.00    +0.000 C 
ATOM     23  C   UNL     1       1.864   8.630  18.145  0.00  0.00    +0.000 C 
ATOM     24  C   UNL     1       1.894  10.139  17.865  0.00  0.00    +0.000 C 
ATOM     25  C   UNL     1       0.750  10.850  18.594  0.00  0.00    +0.000 C 
ENDBRANCH   1  23
BRANCH  11  26
ATOM     26  C   UNL     1       4.951   3.826  14.955  0.00  0.00    +0.000 C 
ATOM     27  N   UNL     1       5.501   4.160  13.871  0.00  0.00    +0.000 NA
ENDBRANCH  11  26
TORSDOF 2
ENDMDL
