MODEL 1
REMARK VINA RESULT:      -7.6      0.000      0.000
REMARK  Name = 
REMARK  8 active torsions:
REMARK  status: ('A' for Active; 'I' for Inactive)
REMARK    1  A    between atoms: C_1  and  C_2
REMARK    2  A    between atoms: C_2  and  C_3
REMARK    3  A    between atoms: C_3  and  C_4
REMARK    4  A    between atoms: C_4  and  N_5
REMARK    5  A    between atoms: C_9  and  C_10
REMARK    6  A    between atoms: C_10  and  N_11
REMARK    7  A    between atoms: C_12  and  C_14
REMARK    8  A    between atoms: N_25  and  C_26
REMARK                            x       y       z     vdW  Elec       q    Type
REMARK                         _______ _______ _______ _____ _____    ______ ____
ROOT
ATOM      1  N   UNL     1       2.301   7.300  18.940  0.00  0.00    +0.000 N 
ATOM      2  C   UNL     1       2.009   8.458  18.259  0.00  0.00    +0.000 C 
ATOM      3  O   UNL     1       2.562   8.788  17.217  0.00  0.00    +0.000 OA
ATOM      4  H   UNL     1       1.840   7.126  19.827  0.00  0.00    +0.000 HD
ENDROOT
BRANCH   2   5
ATOM      5  C   UNL     1       0.942   9.308  18.842  0.00  0.00    +0.000 A 
ATOM      6  C   UNL     1       0.117   9.992  17.941  0.00  0.00    +0.000 A 
ATOM      7  C   UNL     1      -0.892  10.811  18.426  0.00  0.00    +0.000 A 
ATOM      8 CL   UNL     1      -1.950  11.600  17.323  0.00  0.00    +0.000 Cl
ATOM      9  C   UNL     1      -1.068  10.984  19.801  0.00  0.00    +0.000 A 
ATOM     10  C   UNL     1      -0.248  10.313  20.720  0.00  0.00    +0.000 A 
ATOM     11  C   UNL     1       0.751   9.458  20.228  0.00  0.00    +0.000 A 
ATOM     12  O   UNL     1       1.537   8.698  21.061  0.00  0.00    +0.000 OA
ATOM     13  C   UNL     1       1.633   9.190  22.381  0.00  0.00    +0.000 C 
ATOM     14  C   UNL     1       0.360   9.722  23.008  0.00  0.00    +0.000 C 
ATOM     15  O   UNL     1       0.140   9.608  24.213  0.00  0.00    +0.000 OA
ATOM     16  N   UNL     1      -0.442  10.435  22.126  0.00  0.00    +0.000 N 
ATOM     17  C   UNL     1      -1.452  11.325  22.668  0.00  0.00    +0.000 C 
ENDBRANCH   2   5
BRANCH   1  18
ATOM     18  C   UNL     1       3.370   6.421  18.527  0.00  0.00    +0.000 C 
BRANCH  18  23
ATOM     19  N   UNL     1       1.921   4.293  18.115  0.00  0.00    +0.000 NA
ATOM     20  C   UNL     1       2.374   2.957  17.698  0.00  0.00    +0.000 C 
ATOM     21  C   UNL     1       3.881   3.051  17.626  0.00  0.00    +0.000 C 
ATOM     22  C   UNL     1       4.110   4.447  17.091  0.00  0.00    +0.000 C 
ATOM     23  C   UNL     1       2.912   5.274  17.603  0.00  0.00    +0.000 C 
BRANCH  19  24
ATOM     24  C   UNL     1       1.534   4.317  19.530  0.00  0.00    +0.000 C 
BRANCH  24  25
ATOM     25  C   UNL     1       0.832   3.078  20.120  0.00  0.00    +0.000 C 
BRANCH  25  27
ATOM     26  C   UNL     1       2.848   2.539  21.541  0.00  0.00    +0.000 C 
ATOM     27  C   UNL     1       1.331   2.668  21.508  0.00  0.00    +0.000 C 
ENDBRANCH  25  27
ENDBRANCH  24  25
ENDBRANCH  19  24
ENDBRANCH  18  23
ENDBRANCH   1  18
TORSDOF 6
ENDMDL
MODEL 2
REMARK VINA RESULT:      -7.6      2.808      7.423
REMARK  Name = 
REMARK  8 active torsions:
REMARK  status: ('A' for Active; 'I' for Inactive)
REMARK    1  A    between atoms: C_1  and  C_2
REMARK    2  A    between atoms: C_2  and  C_3
REMARK    3  A    between atoms: C_3  and  C_4
REMARK    4  A    between atoms: C_4  and  N_5
REMARK    5  A    between atoms: C_9  and  C_10
REMARK    6  A    between atoms: C_10  and  N_11
REMARK    7  A    between atoms: C_12  and  C_14
REMARK    8  A    between atoms: N_25  and  C_26
REMARK                            x       y       z     vdW  Elec       q    Type
REMARK                         _______ _______ _______ _____ _____    ______ ____
ROOT
ATOM      1  N   UNL     1       1.736   8.691  19.586  0.00  0.00    +0.000 N 
ATOM      2  C   UNL     1       2.189   8.279  18.355  0.00  0.00    +0.000 C 
ATOM      3  O   UNL     1       1.963   8.883  17.314  0.00  0.00    +0.000 OA
ATOM      4  H   UNL     1       1.917   8.105  20.394  0.00  0.00    +0.000 HD
ENDROOT
BRANCH   2   5
ATOM      5  C   UNL     1       3.015   7.046  18.341  0.00  0.00    +0.000 A 
ATOM      6  C   UNL     1       4.034   6.980  17.385  0.00  0.00    +0.000 A 
ATOM      7  C   UNL     1       4.833   5.848  17.316  0.00  0.00    +0.000 A 
ATOM      8 CL   UNL     1       6.130   5.790  16.188  0.00  0.00    +0.000 Cl
ATOM      9  C   UNL     1       4.605   4.763  18.167  0.00  0.00    +0.000 A 
ATOM     10  C   UNL     1       3.584   4.807  19.128  0.00  0.00    +0.000 A 
ATOM     11  C   UNL     1       2.798   5.968  19.219  0.00  0.00    +0.000 A 
ATOM     12  O   UNL     1       1.838   6.124  20.190  0.00  0.00    +0.000 OA
ATOM     13  C   UNL     1       1.353   4.914  20.730  0.00  0.00    +0.000 C 
ATOM     14  C   UNL     1       2.374   3.829  21.007  0.00  0.00    +0.000 C 
ATOM     15  O   UNL     1       2.247   3.052  21.953  0.00  0.00    +0.000 OA
ATOM     16  N   UNL     1       3.367   3.735  20.039  0.00  0.00    +0.000 N 
ATOM     17  C   UNL     1       4.146   2.514  19.960  0.00  0.00    +0.000 C 
ENDBRANCH   2   5
BRANCH   1  18
ATOM     18  C   UNL     1       0.860   9.829  19.734  0.00  0.00    +0.000 C 
BRANCH  18  23
ATOM     19  N   UNL     1      -0.778  10.832  21.498  0.00  0.00    +0.000 NA
ATOM     20  C   UNL     1      -0.891  10.491  22.924  0.00  0.00    +0.000 C 
ATOM     21  C   UNL     1       0.202   9.478  23.180  0.00  0.00    +0.000 C 
ATOM     22  C   UNL     1       0.213   8.661  21.908  0.00  0.00    +0.000 C 
ATOM     23  C   UNL     1      -0.238   9.636  20.801  0.00  0.00    +0.000 C 
BRANCH  19  24
ATOM     24  C   UNL     1      -0.143  12.140  21.301  0.00  0.00    +0.000 C 
BRANCH  24  25
ATOM     25  C   UNL     1      -0.770  13.115  20.285  0.00  0.00    +0.000 C 
BRANCH  25  27
ATOM     26  C   UNL     1       1.057  13.458  18.578  0.00  0.00    +0.000 C 
ATOM     27  C   UNL     1       0.218  14.109  19.669  0.00  0.00    +0.000 C 
ENDBRANCH  25  27
ENDBRANCH  24  25
ENDBRANCH  19  24
ENDBRANCH  18  23
ENDBRANCH   1  18
TORSDOF 6
ENDMDL
MODEL 3
REMARK VINA RESULT:      -7.6      1.072      2.818
REMARK  Name = 
REMARK  8 active torsions:
REMARK  status: ('A' for Active; 'I' for Inactive)
REMARK    1  A    between atoms: C_1  and  C_2
REMARK    2  A    between atoms: C_2  and  C_3
REMARK    3  A    between atoms: C_3  and  C_4
REMARK    4  A    between atoms: C_4  and  N_5
REMARK    5  A    between atoms: C_9  and  C_10
REMARK    6  A    between atoms: C_10  and  N_11
REMARK    7  A    between atoms: C_12  and  C_14
REMARK    8  A    between atoms: N_25  and  C_26
REMARK                            x       y       z     vdW  Elec       q    Type
REMARK                         _______ _______ _______ _____ _____    ______ ____
ROOT
ATOM      1  N   UNL     1       2.230   7.229  18.908  0.00  0.00    +0.000 N 
ATOM      2  C   UNL     1       1.974   8.410  18.250  0.00  0.00    +0.000 C 
ATOM      3  O   UNL     1       2.546   8.749  17.222  0.00  0.00    +0.000 OA
ATOM      4  H   UNL     1       1.756   7.047  19.785  0.00  0.00    +0.000 HD
ENDROOT
BRANCH   2   5
ATOM      5  C   UNL     1       0.922   9.273  18.842  0.00  0.00    +0.000 A 
ATOM      6  C   UNL     1       0.098   9.966  17.948  0.00  0.00    +0.000 A 
ATOM      7  C   UNL     1      -0.897  10.797  18.442  0.00  0.00    +0.000 A 
ATOM      8 CL   UNL     1      -1.955  11.599  17.348  0.00  0.00    +0.000 Cl
ATOM      9  C   UNL     1      -1.059  10.974  19.818  0.00  0.00    +0.000 A 
ATOM     10  C   UNL     1      -0.239  10.293  20.731  0.00  0.00    +0.000 A 
ATOM     11  C   UNL     1       0.746   9.426  20.230  0.00  0.00    +0.000 A 
ATOM     12  O   UNL     1       1.530   8.657  21.057  0.00  0.00    +0.000 OA
ATOM     13  C   UNL     1       1.644   9.148  22.375  0.00  0.00    +0.000 C 
ATOM     14  C   UNL     1       0.383   9.696  23.013  0.00  0.00    +0.000 C 
ATOM     15  O   UNL     1       0.173   9.585  24.220  0.00  0.00    +0.000 OA
ATOM     16  N   UNL     1      -0.419  10.418  22.138  0.00  0.00    +0.000 N 
ATOM     17  C   UNL     1      -1.412  11.321  22.689  0.00  0.00    +0.000 C 
ENDBRANCH   2   5
BRANCH   1  18
ATOM     18  C   UNL     1       3.281   6.334  18.485  0.00  0.00    +0.000 C 
BRANCH  18  23
ATOM     19  N   UNL     1       3.624   3.755  18.314  0.00  0.00    +0.000 NA
ATOM     20  C   UNL     1       2.628   2.694  18.528  0.00  0.00    +0.000 C 
ATOM     21  C   UNL     1       1.328   3.416  18.799  0.00  0.00    +0.000 C 
ATOM     22  C   UNL     1       1.767   4.615  19.608  0.00  0.00    +0.000 C 
ATOM     23  C   UNL     1       3.195   4.929  19.116  0.00  0.00    +0.000 C 
BRANCH  19  24
ATOM     24  C   UNL     1       3.943   3.920  16.892  0.00  0.00    +0.000 C 
BRANCH  24  25
ATOM     25  C   UNL     1       5.419   4.105  16.487  0.00  0.00    +0.000 C 
BRANCH  25  27
ATOM     26  C   UNL     1       5.997   4.021  14.032  0.00  0.00    +0.000 C 
ATOM     27  C   UNL     1       5.628   4.917  15.206  0.00  0.00    +0.000 C 
ENDBRANCH  25  27
ENDBRANCH  24  25
ENDBRANCH  19  24
ENDBRANCH  18  23
ENDBRANCH   1  18
TORSDOF 6
ENDMDL
MODEL 4
REMARK VINA RESULT:      -7.6      1.601      2.778
REMARK  Name = 
REMARK  8 active torsions:
REMARK  status: ('A' for Active; 'I' for Inactive)
REMARK    1  A    between atoms: C_1  and  C_2
REMARK    2  A    between atoms: C_2  and  C_3
REMARK    3  A    between atoms: C_3  and  C_4
REMARK    4  A    between atoms: C_4  and  N_5
REMARK    5  A    between atoms: C_9  and  C_10
REMARK    6  A    between atoms: C_10  and  N_11
REMARK    7  A    between atoms: C_12  and  C_14
REMARK    8  A    between atoms: N_25  and  C_26
REMARK                            x       y       z     vdW  Elec       q    Type
REMARK                         _______ _______ _______ _____ _____    ______ ____
ROOT
ATOM      1  N   UNL     1       2.119   7.313  18.680  0.00  0.00    +0.000 N 
ATOM      2  C   UNL     1       1.941   8.571  18.153  0.00  0.00    +0.000 C 
ATOM      3  O   UNL     1       2.582   9.005  17.205  0.00  0.00    +0.000 OA
ATOM      4  H   UNL     1       1.589   7.049  19.503  0.00  0.00    +0.000 HD
ENDROOT
BRANCH   2   5
ATOM      5  C   UNL     1       0.884   9.400  18.784  0.00  0.00    +0.000 A 
ATOM      6  C   UNL     1       0.037  10.105  17.923  0.00  0.00    +0.000 A 
ATOM      7  C   UNL     1      -0.964  10.906  18.454  0.00  0.00    +0.000 A 
ATOM      8 CL   UNL     1      -2.050  11.722  17.398  0.00  0.00    +0.000 Cl
ATOM      9  C   UNL     1      -1.109  11.041  19.837  0.00  0.00    +0.000 A 
ATOM     10  C   UNL     1      -0.265  10.348  20.718  0.00  0.00    +0.000 A 
ATOM     11  C   UNL     1       0.726   9.511  20.178  0.00  0.00    +0.000 A 
ATOM     12  O   UNL     1       1.533   8.732  20.972  0.00  0.00    +0.000 OA
ATOM     13  C   UNL     1       1.659   9.187  22.302  0.00  0.00    +0.000 C 
ATOM     14  C   UNL     1       0.399   9.696  22.973  0.00  0.00    +0.000 C 
ATOM     15  O   UNL     1       0.208   9.548  24.179  0.00  0.00    +0.000 OA
ATOM     16  N   UNL     1      -0.427  10.430  22.130  0.00  0.00    +0.000 N 
ATOM     17  C   UNL     1      -1.426  11.301  22.721  0.00  0.00    +0.000 C 
ENDBRANCH   2   5
BRANCH   1  18
ATOM     18  C   UNL     1       3.163   6.433  18.213  0.00  0.00    +0.000 C 
BRANCH  18  23
ATOM     19  N   UNL     1       4.491   4.372  19.103  0.00  0.00    +0.000 NA
ATOM     20  C   UNL     1       4.279   2.952  18.782  0.00  0.00    +0.000 C 
ATOM     21  C   UNL     1       3.165   2.936  17.760  0.00  0.00    +0.000 C 
ATOM     22  C   UNL     1       2.255   4.049  18.231  0.00  0.00    +0.000 C 
ATOM     23  C   UNL     1       3.188   5.063  18.923  0.00  0.00    +0.000 C 
BRANCH  19  24
ATOM     24  C   UNL     1       5.694   4.902  18.450  0.00  0.00    +0.000 C 
BRANCH  24  25
ATOM     25  C   UNL     1       6.842   5.421  19.336  0.00  0.00    +0.000 C 
BRANCH  25  27
ATOM     26  C   UNL     1       7.154   6.979  17.376  0.00  0.00    +0.000 C 
ATOM     27  C   UNL     1       7.778   6.415  18.644  0.00  0.00    +0.000 C 
ENDBRANCH  25  27
ENDBRANCH  24  25
ENDBRANCH  19  24
ENDBRANCH  18  23
ENDBRANCH   1  18
TORSDOF 6
ENDMDL
MODEL 5
REMARK VINA RESULT:      -7.6      2.760      7.436
REMARK  Name = 
REMARK  8 active torsions:
REMARK  status: ('A' for Active; 'I' for Inactive)
REMARK    1  A    between atoms: C_1  and  C_2
REMARK    2  A    between atoms: C_2  and  C_3
REMARK    3  A    between atoms: C_3  and  C_4
REMARK    4  A    between atoms: C_4  and  N_5
REMARK    5  A    between atoms: C_9  and  C_10
REMARK    6  A    between atoms: C_10  and  N_11
REMARK    7  A    between atoms: C_12  and  C_14
REMARK    8  A    between atoms: N_25  and  C_26
REMARK                            x       y       z     vdW  Elec       q    Type
REMARK                         _______ _______ _______ _____ _____    ______ ____
ROOT
ATOM      1  N   UNL     1       1.673   8.603  19.558  0.00  0.00    +0.000 N 
ATOM      2  C   UNL     1       2.214   8.271  18.338  0.00  0.00    +0.000 C 
ATOM      3  O   UNL     1       2.082   8.954  17.330  0.00  0.00    +0.000 OA
ATOM      4  H   UNL     1       1.779   7.955  20.331  0.00  0.00    +0.000 HD
ENDROOT
BRANCH   2   5
ATOM      5  C   UNL     1       3.015   7.023  18.296  0.00  0.00    +0.000 A 
ATOM      6  C   UNL     1       3.993   6.934  17.299  0.00  0.00    +0.000 A 
ATOM      7  C   UNL     1       4.767   5.786  17.202  0.00  0.00    +0.000 A 
ATOM      8 CL   UNL     1       6.016   5.699  16.023  0.00  0.00    +0.000 Cl
ATOM      9  C   UNL     1       4.554   4.709  18.067  0.00  0.00    +0.000 A 
ATOM     10  C   UNL     1       3.573   4.776  19.068  0.00  0.00    +0.000 A 
ATOM     11  C   UNL     1       2.814   5.952  19.186  0.00  0.00    +0.000 A 
ATOM     12  O   UNL     1       1.897   6.129  20.194  0.00  0.00    +0.000 OA
ATOM     13  C   UNL     1       1.412   4.931  20.759  0.00  0.00    +0.000 C 
ATOM     14  C   UNL     1       2.423   3.827  20.999  0.00  0.00    +0.000 C 
ATOM     15  O   UNL     1       2.320   3.057  21.953  0.00  0.00    +0.000 OA
ATOM     16  N   UNL     1       3.373   3.711  19.992  0.00  0.00    +0.000 N 
ATOM     17  C   UNL     1       4.126   2.475  19.886  0.00  0.00    +0.000 C 
ENDBRANCH   2   5
BRANCH   1  18
ATOM     18  C   UNL     1       0.810   9.748  19.722  0.00  0.00    +0.000 C 
BRANCH  18  23
ATOM     19  N   UNL     1      -0.782  10.775  21.514  0.00  0.00    +0.000 NA
ATOM     20  C   UNL     1      -0.857  10.455  22.948  0.00  0.00    +0.000 C 
ATOM     21  C   UNL     1       0.242   9.446  23.189  0.00  0.00    +0.000 C 
ATOM     22  C   UNL     1       0.220   8.611  21.928  0.00  0.00    +0.000 C 
ATOM     23  C   UNL     1      -0.259   9.570  20.820  0.00  0.00    +0.000 C 
BRANCH  19  24
ATOM     24  C   UNL     1      -0.153  12.081  21.282  0.00  0.00    +0.000 C 
BRANCH  24  25
ATOM     25  C   UNL     1      -0.878  13.094  20.376  0.00  0.00    +0.000 C 
BRANCH  25  27
ATOM     26  C   UNL     1      -3.341  12.670  20.018  0.00  0.00    +0.000 C 
ATOM     27  C   UNL     1      -2.301  13.440  20.822  0.00  0.00    +0.000 C 
ENDBRANCH  25  27
ENDBRANCH  24  25
ENDBRANCH  19  24
ENDBRANCH  18  23
ENDBRANCH   1  18
TORSDOF 6
ENDMDL
MODEL 6
REMARK VINA RESULT:      -7.5      2.868      7.198
REMARK  Name = 
REMARK  8 active torsions:
REMARK  status: ('A' for Active; 'I' for Inactive)
REMARK    1  A    between atoms: C_1  and  C_2
REMARK    2  A    between atoms: C_2  and  C_3
REMARK    3  A    between atoms: C_3  and  C_4
REMARK    4  A    between atoms: C_4  and  N_5
REMARK    5  A    between atoms: C_9  and  C_10
REMARK    6  A    between atoms: C_10  and  N_11
REMARK    7  A    between atoms: C_12  and  C_14
REMARK    8  A    between atoms: N_25  and  C_26
REMARK                            x       y       z     vdW  Elec       q    Type
REMARK                         _______ _______ _______ _____ _____    ______ ____
ROOT
ATOM      1  N   UNL     1       1.704   8.678  19.462  0.00  0.00    +0.000 N 
ATOM      2  C   UNL     1       2.221   8.239  18.265  0.00  0.00    +0.000 C 
ATOM      3  O   UNL     1       2.019   8.799  17.195  0.00  0.00    +0.000 OA
ATOM      4  H   UNL     1       1.870   8.125  20.297  0.00  0.00    +0.000 HD
ENDROOT
BRANCH   2   5
ATOM      5  C   UNL     1       3.085   7.034  18.328  0.00  0.00    +0.000 A 
ATOM      6  C   UNL     1       4.170   6.989  17.446  0.00  0.00    +0.000 A 
ATOM      7  C   UNL     1       5.008   5.883  17.451  0.00  0.00    +0.000 A 
ATOM      8 CL   UNL     1       6.382   5.853  16.416  0.00  0.00    +0.000 Cl
ATOM      9  C   UNL     1       4.757   4.804  18.301  0.00  0.00    +0.000 A 
ATOM     10  C   UNL     1       3.670   4.826  19.188  0.00  0.00    +0.000 A 
ATOM     11  C   UNL     1       2.842   5.961  19.206  0.00  0.00    +0.000 A 
ATOM     12  O   UNL     1       1.812   6.098  20.105  0.00  0.00    +0.000 OA
ATOM     13  C   UNL     1       1.330   4.880  20.629  0.00  0.00    +0.000 C 
ATOM     14  C   UNL     1       2.364   3.834  20.994  0.00  0.00    +0.000 C 
ATOM     15  O   UNL     1       2.196   3.066  21.941  0.00  0.00    +0.000 OA
ATOM     16  N   UNL     1       3.424   3.760  20.099  0.00  0.00    +0.000 N 
ATOM     17  C   UNL     1       4.246   2.564  20.093  0.00  0.00    +0.000 C 
ENDBRANCH   2   5
BRANCH   1  18
ATOM     18  C   UNL     1       0.787   9.790  19.534  0.00  0.00    +0.000 C 
BRANCH  18  23
ATOM     19  N   UNL     1       0.779  12.100  20.744  0.00  0.00    +0.000 NA
ATOM     20  C   UNL     1       0.916  13.436  20.143  0.00  0.00    +0.000 C 
ATOM     21  C   UNL     1       0.990  13.197  18.652  0.00  0.00    +0.000 C 
ATOM     22  C   UNL     1       1.792  11.919  18.552  0.00  0.00    +0.000 C 
ATOM     23  C   UNL     1       1.467  11.140  19.843  0.00  0.00    +0.000 C 
BRANCH  19  24
ATOM     24  C   UNL     1      -0.599  11.838  21.174  0.00  0.00    +0.000 C 
BRANCH  24  25
ATOM     25  C   UNL     1      -0.903  11.807  22.685  0.00  0.00    +0.000 C 
BRANCH  25  27
ATOM     26  C   UNL     1       0.074   9.529  23.158  0.00  0.00    +0.000 C 
ATOM     27  C   UNL     1      -1.164  10.409  23.251  0.00  0.00    +0.000 C 
ENDBRANCH  25  27
ENDBRANCH  24  25
ENDBRANCH  19  24
ENDBRANCH  18  23
ENDBRANCH   1  18
TORSDOF 6
ENDMDL
MODEL 7
REMARK VINA RESULT:      -7.4      2.851      7.604
REMARK  Name = 
REMARK  8 active torsions:
REMARK  status: ('A' for Active; 'I' for Inactive)
REMARK    1  A    between atoms: C_1  and  C_2
REMARK    2  A    between atoms: C_2  and  C_3
REMARK    3  A    between atoms: C_3  and  C_4
REMARK    4  A    between atoms: C_4  and  N_5
REMARK    5  A    between atoms: C_9  and  C_10
REMARK    6  A    between atoms: C_10  and  N_11
REMARK    7  A    between atoms: C_12  and  C_14
REMARK    8  A    between atoms: N_25  and  C_26
REMARK                            x       y       z     vdW  Elec       q    Type
REMARK                         _______ _______ _______ _____ _____    ______ ____
ROOT
ATOM      1  N   UNL     1       1.517   8.521  19.831  0.00  0.00    +0.000 N 
ATOM      2  C   UNL     1       1.962   8.170  18.578  0.00  0.00    +0.000 C 
ATOM      3  O   UNL     1       1.647   8.766  17.556  0.00  0.00    +0.000 OA
ATOM      4  H   UNL     1       1.778   7.941  20.621  0.00  0.00    +0.000 HD
ENDROOT
BRANCH   2   5
ATOM      5  C   UNL     1       2.894   7.016  18.514  0.00  0.00    +0.000 A 
ATOM      6  C   UNL     1       3.945   7.104  17.594  0.00  0.00    +0.000 A 
ATOM      7  C   UNL     1       4.843   6.052  17.481  0.00  0.00    +0.000 A 
ATOM      8 CL   UNL     1       6.174   6.184  16.400  0.00  0.00    +0.000 Cl
ATOM      9  C   UNL     1       4.686   4.897  18.250  0.00  0.00    +0.000 A 
ATOM     10  C   UNL     1       3.635   4.786  19.174  0.00  0.00    +0.000 A 
ATOM     11  C   UNL     1       2.747   5.866  19.311  0.00  0.00    +0.000 A 
ATOM     12  O   UNL     1       1.747   5.872  20.254  0.00  0.00    +0.000 OA
ATOM     13  C   UNL     1       1.354   4.590  20.696  0.00  0.00    +0.000 C 
ATOM     14  C   UNL     1       2.459   3.581  20.939  0.00  0.00    +0.000 C 
ATOM     15  O   UNL     1       2.371   2.734  21.827  0.00  0.00    +0.000 OA
ATOM     16  N   UNL     1       3.485   3.640  20.005  0.00  0.00    +0.000 N 
ATOM     17  C   UNL     1       4.372   2.499  19.874  0.00  0.00    +0.000 C 
ENDBRANCH   2   5
BRANCH   1  18
ATOM     18  C   UNL     1       0.549   9.572  20.029  0.00  0.00    +0.000 C 
BRANCH  18  23
ATOM     19  N   UNL     1       0.668  11.698  21.533  0.00  0.00    +0.000 NA
ATOM     20  C   UNL     1       0.537  13.105  21.124  0.00  0.00    +0.000 C 
ATOM     21  C   UNL     1       0.242  13.063  19.642  0.00  0.00    +0.000 C 
ATOM     22  C   UNL     1       1.091  11.908  19.159  0.00  0.00    +0.000 C 
ATOM     23  C   UNL     1       1.174  10.943  20.359  0.00  0.00    +0.000 C 
BRANCH  19  24
ATOM     24  C   UNL     1      -0.527  11.228  22.244  0.00  0.00    +0.000 C 
BRANCH  24  25
ATOM     25  C   UNL     1      -1.350  12.249  23.052  0.00  0.00    +0.000 C 
BRANCH  25  27
ATOM     26  C   UNL     1      -3.732  12.536  23.837  0.00  0.00    +0.000 C 
ATOM     27  C   UNL     1      -2.818  12.355  22.632  0.00  0.00    +0.000 C 
ENDBRANCH  25  27
ENDBRANCH  24  25
ENDBRANCH  19  24
ENDBRANCH  18  23
ENDBRANCH   1  18
TORSDOF 6
ENDMDL
MODEL 8
REMARK VINA RESULT:      -7.4      2.980      7.411
REMARK  Name = 
REMARK  8 active torsions:
REMARK  status: ('A' for Active; 'I' for Inactive)
REMARK    1  A    between atoms: C_1  and  C_2
REMARK    2  A    between atoms: C_2  and  C_3
REMARK    3  A    between atoms: C_3  and  C_4
REMARK    4  A    between atoms: C_4  and  N_5
REMARK    5  A    between atoms: C_9  and  C_10
REMARK    6  A    between atoms: C_10  and  N_11
REMARK    7  A    between atoms: C_12  and  C_14
REMARK    8  A    between atoms: N_25  and  C_26
REMARK                            x       y       z     vdW  Elec       q    Type
REMARK                         _______ _______ _______ _____ _____    ______ ____
ROOT
ATOM      1  N   UNL     1       2.033   8.302  19.158  0.00  0.00    +0.000 N 
ATOM      2  C   UNL     1       2.735   7.773  18.100  0.00  0.00    +0.000 C 
ATOM      3  O   UNL     1       2.779   8.289  16.991  0.00  0.00    +0.000 OA
ATOM      4  H   UNL     1       2.000   7.784  20.029  0.00  0.00    +0.000 HD
ENDROOT
BRANCH   2   5
ATOM      5  C   UNL     1       3.487   6.523  18.374  0.00  0.00    +0.000 A 
ATOM      6  C   UNL     1       4.677   6.334  17.663  0.00  0.00    +0.000 A 
ATOM      7  C   UNL     1       5.418   5.179  17.868  0.00  0.00    +0.000 A 
ATOM      8 CL   UNL     1       6.915   4.973  17.046  0.00  0.00    +0.000 Cl
ATOM      9  C   UNL     1       4.969   4.193  18.749  0.00  0.00    +0.000 A 
ATOM     10  C   UNL     1       3.775   4.360  19.467  0.00  0.00    +0.000 A 
ATOM     11  C   UNL     1       3.043   5.545  19.283  0.00  0.00    +0.000 A 
ATOM     12  O   UNL     1       1.912   5.823  20.012  0.00  0.00    +0.000 OA
ATOM     13  C   UNL     1       1.270   4.688  20.549  0.00  0.00    +0.000 C 
ATOM     14  C   UNL     1       2.160   3.609  21.134  0.00  0.00    +0.000 C 
ATOM     15  O   UNL     1       1.804   2.935  22.099  0.00  0.00    +0.000 OA
ATOM     16  N   UNL     1       3.325   3.392  20.408  0.00  0.00    +0.000 N 
ATOM     17  C   UNL     1       4.045   2.148  20.607  0.00  0.00    +0.000 C 
ENDBRANCH   2   5
BRANCH   1  18
ATOM     18  C   UNL     1       1.198   9.470  19.010  0.00  0.00    +0.000 C 
BRANCH  18  23
ATOM     19  N   UNL     1      -1.022  10.509  19.900  0.00  0.00    +0.000 NA
ATOM     20  C   UNL     1      -1.219  11.319  21.112  0.00  0.00    +0.000 C 
ATOM     21  C   UNL     1       0.160  11.490  21.706  0.00  0.00    +0.000 C 
ATOM     22  C   UNL     1       0.815  10.154  21.437  0.00  0.00    +0.000 C 
ATOM     23  C   UNL     1       0.160   9.642  20.138  0.00  0.00    +0.000 C 
BRANCH  19  24
ATOM     24  C   UNL     1      -1.093  11.327  18.684  0.00  0.00    +0.000 C 
BRANCH  24  25
ATOM     25  C   UNL     1      -2.289  11.126  17.733  0.00  0.00    +0.000 C 
BRANCH  25  27
ATOM     26  C   UNL     1      -2.978  10.157  15.507  0.00  0.00    +0.000 C 
ATOM     27  C   UNL     1      -2.135   9.955  16.759  0.00  0.00    +0.000 C 
ENDBRANCH  25  27
ENDBRANCH  24  25
ENDBRANCH  19  24
ENDBRANCH  18  23
ENDBRANCH   1  18
TORSDOF 6
ENDMDL
MODEL 9
REMARK VINA RESULT:      -7.3      1.441      2.994
REMARK  Name = 
REMARK  8 active torsions:
REMARK  status: ('A' for Active; 'I' for Inactive)
REMARK    1  A    between atoms: C_1  and  C_2
REMARK    2  A    between atoms: C_2  and  C_3
REMARK    3  A    between atoms: C_3  and  C_4
REMARK    4  A    between atoms: C_4  and  N_5
REMARK    5  A    between atoms: C_9  and  C_10
REMARK    6  A    between atoms: C_10  and  N_11
REMARK    7  A    between atoms: C_12  and  C_14
REMARK    8  A    between atoms: N_25  and  C_26
REMARK                            x       y       z     vdW  Elec       q    Type
REMARK                         _______ _______ _______ _____ _____    ______ ____
ROOT
ATOM      1  N   UNL     1       1.979   7.398  18.520  0.00  0.00    +0.000 N 
ATOM      2  C   UNL     1       1.809   8.686  18.069  0.00  0.00    +0.000 C 
ATOM      3  O   UNL     1       2.455   9.173  17.150  0.00  0.00    +0.000 OA
ATOM      4  H   UNL     1       1.446   7.088  19.324  0.00  0.00    +0.000 HD
ENDROOT
BRANCH   2   5
ATOM      5  C   UNL     1       0.756   9.482  18.748  0.00  0.00    +0.000 A 
ATOM      6  C   UNL     1      -0.134  10.182  17.925  0.00  0.00    +0.000 A 
ATOM      7  C   UNL     1      -1.133  10.953  18.501  0.00  0.00    +0.000 A 
ATOM      8 CL   UNL     1      -2.271  11.761  17.495  0.00  0.00    +0.000 Cl
ATOM      9  C   UNL     1      -1.236  11.063  19.890  0.00  0.00    +0.000 A 
ATOM     10  C   UNL     1      -0.349  10.375  20.732  0.00  0.00    +0.000 A 
ATOM     11  C   UNL     1       0.641   9.568  20.147  0.00  0.00    +0.000 A 
ATOM     12  O   UNL     1       1.490   8.794  20.902  0.00  0.00    +0.000 OA
ATOM     13  C   UNL     1       1.650   9.231  22.234  0.00  0.00    +0.000 C 
ATOM     14  C   UNL     1       0.402   9.702  22.954  0.00  0.00    +0.000 C 
ATOM     15  O   UNL     1       0.253   9.531  24.163  0.00  0.00    +0.000 OA
ATOM     16  N   UNL     1      -0.466  10.431  22.150  0.00  0.00    +0.000 N 
ATOM     17  C   UNL     1      -1.464  11.270  22.787  0.00  0.00    +0.000 C 
ENDBRANCH   2   5
BRANCH   1  18
ATOM     18  C   UNL     1       3.019   6.541  18.002  0.00  0.00    +0.000 C 
BRANCH  18  23
ATOM     19  N   UNL     1       5.078   5.244  18.939  0.00  0.00    +0.000 NA
ATOM     20  C   UNL     1       5.188   3.804  19.221  0.00  0.00    +0.000 C 
ATOM     21  C   UNL     1       3.869   3.210  18.783  0.00  0.00    +0.000 C 
ATOM     22  C   UNL     1       2.869   4.278  19.168  0.00  0.00    +0.000 C 
ATOM     23  C   UNL     1       3.642   5.607  19.060  0.00  0.00    +0.000 C 
BRANCH  19  24
ATOM     24  C   UNL     1       5.826   5.618  17.733  0.00  0.00    +0.000 C 
BRANCH  24  25
ATOM     25  C   UNL     1       6.829   4.605  17.149  0.00  0.00    +0.000 C 
BRANCH  25  27
ATOM     26  C   UNL     1       5.955   4.079  14.840  0.00  0.00    +0.000 C 
ATOM     27  C   UNL     1       7.065   4.744  15.642  0.00  0.00    +0.000 C 
ENDBRANCH  25  27
ENDBRANCH  24  25
ENDBRANCH  19  24
ENDBRANCH  18  23
ENDBRANCH   1  18
TORSDOF 6
ENDMDL
