MODEL 1
REMARK VINA RESULT:      -4.2      0.000      0.000
REMARK  Name = 
REMARK  7 active torsions:
REMARK  status: ('A' for Active; 'I' for Inactive)
REMARK    1  A    between atoms: C_2  and  C_3
REMARK    2  A    between atoms: C_3  and  O_5
REMARK    3  A    between atoms: O_5  and  C_6
REMARK    4  A    between atoms: C_6  and  C_7
REMARK    5  A    between atoms: C_7  and  C_8
REMARK    6  A    between atoms: C_8  and  C_9
REMARK    7  A    between atoms: C_9  and  O_10
REMARK                            x       y       z     vdW  Elec       q    Type
REMARK                         _______ _______ _______ _____ _____    ______ ____
ROOT
ATOM      1  C   UNL     1       5.050   6.313  16.212  0.00  0.00    +0.000 C 
ENDROOT
BRANCH   1   2
ATOM      2  O   UNL     1       6.307   6.998  16.333  0.00  0.00    +0.000 OA
BRANCH   2   3
ATOM      3  C   UNL     1       7.243   6.318  17.040  0.00  0.00    +0.000 C 
ATOM      4  O   UNL     1       7.568   5.152  16.880  0.00  0.00    +0.000 OA
BRANCH   3   6
ATOM      5  C   UNL     1       7.966   8.516  17.793  0.00  0.00    +0.000 C 
ATOM      6  C   UNL     1       7.829   7.211  18.057  0.00  0.00    +0.000 C 
ENDBRANCH   3   6
ENDBRANCH   2   3
ENDBRANCH   1   2
BRANCH   1   7
ATOM      7  C   UNL     1       4.248   6.455  17.503  0.00  0.00    +0.000 C 
BRANCH   7   8
ATOM      8  C   UNL     1       3.861   5.095  18.074  0.00  0.00    +0.000 C 
BRANCH   8   9
ATOM      9  C   UNL     1       4.791   4.679  19.206  0.00  0.00    +0.000 C 
BRANCH   9  10
ATOM     10  O   UNL     1       5.723   3.718  18.732  0.00  0.00    +0.000 OA
ATOM     11  H   UNL     1       5.833   3.859  17.776  0.00  0.00    +0.000 HD
ENDBRANCH   9  10
ENDBRANCH   8   9
ENDBRANCH   7   8
ENDBRANCH   1   7
TORSDOF 7
ENDMDL
MODEL 2
REMARK VINA RESULT:      -4.0      1.823      3.274
REMARK  Name = 
REMARK  7 active torsions:
REMARK  status: ('A' for Active; 'I' for Inactive)
REMARK    1  A    between atoms: C_2  and  C_3
REMARK    2  A    between atoms: C_3  and  O_5
REMARK    3  A    between atoms: O_5  and  C_6
REMARK    4  A    between atoms: C_6  and  C_7
REMARK    5  A    between atoms: C_7  and  C_8
REMARK    6  A    between atoms: C_8  and  C_9
REMARK    7  A    between atoms: C_9  and  O_10
REMARK                            x       y       z     vdW  Elec       q    Type
REMARK                         _______ _______ _______ _____ _____    ______ ____
ROOT
ATOM      1  C   UNL     1       5.931   7.175  17.166  0.00  0.00    +0.000 C 
ENDROOT
BRANCH   1   2
ATOM      2  O   UNL     1       5.681   6.626  15.862  0.00  0.00    +0.000 OA
BRANCH   2   3
ATOM      3  C   UNL     1       5.143   5.382  15.879  0.00  0.00    +0.000 C 
ATOM      4  O   UNL     1       4.348   4.946  16.697  0.00  0.00    +0.000 OA
BRANCH   3   6
ATOM      5  C   UNL     1       6.900   4.857  14.280  0.00  0.00    +0.000 C 
ATOM      6  C   UNL     1       5.667   4.609  14.738  0.00  0.00    +0.000 C 
ENDBRANCH   3   6
ENDBRANCH   2   3
ENDBRANCH   1   2
BRANCH   1   7
ATOM      7  C   UNL     1       7.424   7.127  17.480  0.00  0.00    +0.000 C 
BRANCH   7   8
ATOM      8  C   UNL     1       7.728   6.142  18.604  0.00  0.00    +0.000 C 
BRANCH   8   9
ATOM      9  C   UNL     1       7.738   4.705  18.099  0.00  0.00    +0.000 C 
BRANCH   9  10
ATOM     10  O   UNL     1       6.592   4.019  18.584  0.00  0.00    +0.000 OA
ATOM     11  H   UNL     1       5.836   4.627  18.522  0.00  0.00    +0.000 HD
ENDBRANCH   9  10
ENDBRANCH   8   9
ENDBRANCH   7   8
ENDBRANCH   1   7
TORSDOF 7
ENDMDL
MODEL 3
REMARK VINA RESULT:      -4.0      4.429      5.742
REMARK  Name = 
REMARK  7 active torsions:
REMARK  status: ('A' for Active; 'I' for Inactive)
REMARK    1  A    between atoms: C_2  and  C_3
REMARK    2  A    between atoms: C_3  and  O_5
REMARK    3  A    between atoms: O_5  and  C_6
REMARK    4  A    between atoms: C_6  and  C_7
REMARK    5  A    between atoms: C_7  and  C_8
REMARK    6  A    between atoms: C_8  and  C_9
REMARK    7  A    between atoms: C_9  and  O_10
REMARK                            x       y       z     vdW  Elec       q    Type
REMARK                         _______ _______ _______ _____ _____    ______ ____
ROOT
ATOM      1  C   UNL     1       5.699   4.155  13.779  0.00  0.00    +0.000 C 
ENDROOT
BRANCH   1   2
ATOM      2  O   UNL     1       6.417   3.373  12.811  0.00  0.00    +0.000 OA
BRANCH   2   3
ATOM      3  C   UNL     1       5.623   2.726  11.922  0.00  0.00    +0.000 C 
ATOM      4  O   UNL     1       5.870   1.668  11.366  0.00  0.00    +0.000 OA
BRANCH   3   6
ATOM      5  C   UNL     1       3.545   3.161  10.735  0.00  0.00    +0.000 C 
ATOM      6  C   UNL     1       4.386   3.503  11.718  0.00  0.00    +0.000 C 
ENDBRANCH   3   6
ENDBRANCH   2   3
ENDBRANCH   1   2
BRANCH   1   7
ATOM      7  C   UNL     1       6.149   3.789  15.190  0.00  0.00    +0.000 C 
BRANCH   7   8
ATOM      8  C   UNL     1       6.860   4.953  15.870  0.00  0.00    +0.000 C 
BRANCH   8   9
ATOM      9  C   UNL     1       7.460   4.537  17.207  0.00  0.00    +0.000 C 
BRANCH   9  10
ATOM     10  O   UNL     1       6.439   4.025  18.052  0.00  0.00    +0.000 OA
ATOM     11  H   UNL     1       6.867   3.471  18.728  0.00  0.00    +0.000 HD
ENDBRANCH   9  10
ENDBRANCH   8   9
ENDBRANCH   7   8
ENDBRANCH   1   7
TORSDOF 7
ENDMDL
MODEL 4
REMARK VINA RESULT:      -4.0      1.685      2.838
REMARK  Name = 
REMARK  7 active torsions:
REMARK  status: ('A' for Active; 'I' for Inactive)
REMARK    1  A    between atoms: C_2  and  C_3
REMARK    2  A    between atoms: C_3  and  O_5
REMARK    3  A    between atoms: O_5  and  C_6
REMARK    4  A    between atoms: C_6  and  C_7
REMARK    5  A    between atoms: C_7  and  C_8
REMARK    6  A    between atoms: C_8  and  C_9
REMARK    7  A    between atoms: C_9  and  O_10
REMARK                            x       y       z     vdW  Elec       q    Type
REMARK                         _______ _______ _______ _____ _____    ______ ____
ROOT
ATOM      1  C   UNL     1       4.640   5.783  17.085  0.00  0.00    +0.000 C 
ENDROOT
BRANCH   1   2
ATOM      2  O   UNL     1       5.505   6.410  18.046  0.00  0.00    +0.000 OA
BRANCH   2   3
ATOM      3  C   UNL     1       6.546   5.637  18.441  0.00  0.00    +0.000 C 
ATOM      4  O   UNL     1       6.498   4.457  18.750  0.00  0.00    +0.000 OA
BRANCH   3   6
ATOM      5  C   UNL     1       7.792   7.636  17.833  0.00  0.00    +0.000 C 
ATOM      6  C   UNL     1       7.779   6.446  18.445  0.00  0.00    +0.000 C 
ENDBRANCH   3   6
ENDBRANCH   2   3
ENDBRANCH   1   2
BRANCH   1   7
ATOM      7  C   UNL     1       5.214   5.938  15.680  0.00  0.00    +0.000 C 
BRANCH   7   8
ATOM      8  C   UNL     1       5.499   4.584  15.039  0.00  0.00    +0.000 C 
BRANCH   8   9
ATOM      9  C   UNL     1       6.875   4.553  14.388  0.00  0.00    +0.000 C 
BRANCH   9  10
ATOM     10  O   UNL     1       7.698   5.562  14.956  0.00  0.00    +0.000 OA
ATOM     11  H   UNL     1       8.619   5.357  14.723  0.00  0.00    +0.000 HD
ENDBRANCH   9  10
ENDBRANCH   8   9
ENDBRANCH   7   8
ENDBRANCH   1   7
TORSDOF 7
ENDMDL
MODEL 5
REMARK VINA RESULT:      -4.0      3.148      5.635
REMARK  Name = 
REMARK  7 active torsions:
REMARK  status: ('A' for Active; 'I' for Inactive)
REMARK    1  A    between atoms: C_2  and  C_3
REMARK    2  A    between atoms: C_3  and  O_5
REMARK    3  A    between atoms: O_5  and  C_6
REMARK    4  A    between atoms: C_6  and  C_7
REMARK    5  A    between atoms: C_7  and  C_8
REMARK    6  A    between atoms: C_8  and  C_9
REMARK    7  A    between atoms: C_9  and  O_10
REMARK                            x       y       z     vdW  Elec       q    Type
REMARK                         _______ _______ _______ _____ _____    ______ ____
ROOT
ATOM      1  C   UNL     1       3.012   2.048  18.552  0.00  0.00    +0.000 C 
ENDROOT
BRANCH   1   2
ATOM      2  O   UNL     1       1.888   2.072  19.446  0.00  0.00    +0.000 OA
BRANCH   2   3
ATOM      3  C   UNL     1       2.108   2.758  20.595  0.00  0.00    +0.000 C 
ATOM      4  O   UNL     1       2.903   2.464  21.474  0.00  0.00    +0.000 OA
BRANCH   3   6
ATOM      5  C   UNL     1       1.760   5.165  20.546  0.00  0.00    +0.000 C 
ATOM      6  C   UNL     1       1.228   3.940  20.633  0.00  0.00    +0.000 C 
ENDBRANCH   3   6
ENDBRANCH   2   3
ENDBRANCH   1   2
BRANCH   1   7
ATOM      7  C   UNL     1       2.858   3.126  17.484  0.00  0.00    +0.000 C 
BRANCH   7   8
ATOM      8  C   UNL     1       4.124   3.965  17.349  0.00  0.00    +0.000 C 
BRANCH   8   9
ATOM      9  C   UNL     1       4.917   3.993  18.649  0.00  0.00    +0.000 C 
BRANCH   9  10
ATOM     10  O   UNL     1       6.307   3.915  18.365  0.00  0.00    +0.000 OA
ATOM     11  H   UNL     1       6.516   4.614  17.722  0.00  0.00    +0.000 HD
ENDBRANCH   9  10
ENDBRANCH   8   9
ENDBRANCH   7   8
ENDBRANCH   1   7
TORSDOF 7
ENDMDL
MODEL 6
REMARK VINA RESULT:      -3.9      3.565      5.902
REMARK  Name = 
REMARK  7 active torsions:
REMARK  status: ('A' for Active; 'I' for Inactive)
REMARK    1  A    between atoms: C_2  and  C_3
REMARK    2  A    between atoms: C_3  and  O_5
REMARK    3  A    between atoms: O_5  and  C_6
REMARK    4  A    between atoms: C_6  and  C_7
REMARK    5  A    between atoms: C_7  and  C_8
REMARK    6  A    between atoms: C_8  and  C_9
REMARK    7  A    between atoms: C_9  and  O_10
REMARK                            x       y       z     vdW  Elec       q    Type
REMARK                         _______ _______ _______ _____ _____    ______ ____
ROOT
ATOM      1  C   UNL     1       2.074   2.004  19.186  0.00  0.00    +0.000 C 
ENDROOT
BRANCH   1   2
ATOM      2  O   UNL     1       2.914   2.602  20.187  0.00  0.00    +0.000 OA
BRANCH   2   3
ATOM      3  C   UNL     1       2.234   3.217  21.186  0.00  0.00    +0.000 C 
ATOM      4  O   UNL     1       2.319   2.971  22.379  0.00  0.00    +0.000 OA
BRANCH   3   6
ATOM      5  C   UNL     1       1.800   5.510  20.499  0.00  0.00    +0.000 C 
ATOM      6  C   UNL     1       1.356   4.253  20.612  0.00  0.00    +0.000 C 
ENDBRANCH   3   6
ENDBRANCH   2   3
ENDBRANCH   1   2
BRANCH   1   7
ATOM      7  C   UNL     1       2.737   2.103  17.815  0.00  0.00    +0.000 C 
BRANCH   7   8
ATOM      8  C   UNL     1       2.606   3.505  17.231  0.00  0.00    +0.000 C 
BRANCH   8   9
ATOM      9  C   UNL     1       3.940   4.241  17.238  0.00  0.00    +0.000 C 
BRANCH   9  10
ATOM     10  O   UNL     1       3.718   5.634  17.407  0.00  0.00    +0.000 OA
ATOM     11  H   UNL     1       3.251   5.758  18.251  0.00  0.00    +0.000 HD
ENDBRANCH   9  10
ENDBRANCH   8   9
ENDBRANCH   7   8
ENDBRANCH   1   7
TORSDOF 7
ENDMDL
MODEL 7
REMARK VINA RESULT:      -3.8      3.028      5.471
REMARK  Name = 
REMARK  7 active torsions:
REMARK  status: ('A' for Active; 'I' for Inactive)
REMARK    1  A    between atoms: C_2  and  C_3
REMARK    2  A    between atoms: C_3  and  O_5
REMARK    3  A    between atoms: O_5  and  C_6
REMARK    4  A    between atoms: C_6  and  C_7
REMARK    5  A    between atoms: C_7  and  C_8
REMARK    6  A    between atoms: C_8  and  C_9
REMARK    7  A    between atoms: C_9  and  O_10
REMARK                            x       y       z     vdW  Elec       q    Type
REMARK                         _______ _______ _______ _____ _____    ______ ____
ROOT
ATOM      1  C   UNL     1       2.414   5.409  18.407  0.00  0.00    +0.000 C 
ENDROOT
BRANCH   1   2
ATOM      2  O   UNL     1       1.486   4.429  17.916  0.00  0.00    +0.000 OA
BRANCH   2   3
ATOM      3  C   UNL     1       1.390   3.320  18.691  0.00  0.00    +0.000 C 
ATOM      4  O   UNL     1       1.638   2.174  18.351  0.00  0.00    +0.000 OA
BRANCH   3   6
ATOM      5  C   UNL     1       1.347   3.008  21.103  0.00  0.00    +0.000 C 
ATOM      6  C   UNL     1       0.932   3.705  20.038  0.00  0.00    +0.000 C 
ENDBRANCH   3   6
ENDBRANCH   2   3
ENDBRANCH   1   2
BRANCH   1   7
ATOM      7  C   UNL     1       3.842   5.012  18.044  0.00  0.00    +0.000 C 
BRANCH   7   8
ATOM      8  C   UNL     1       4.777   5.126  19.243  0.00  0.00    +0.000 C 
BRANCH   8   9
ATOM      9  C   UNL     1       6.233   5.222  18.808  0.00  0.00    +0.000 C 
BRANCH   9  10
ATOM     10  O   UNL     1       7.065   5.381  19.950  0.00  0.00    +0.000 OA
ATOM     11  H   UNL     1       7.866   4.849  19.807  0.00  0.00    +0.000 HD
ENDBRANCH   9  10
ENDBRANCH   8   9
ENDBRANCH   7   8
ENDBRANCH   1   7
TORSDOF 7
ENDMDL
MODEL 8
REMARK VINA RESULT:      -3.8      2.239      2.838
REMARK  Name = 
REMARK  7 active torsions:
REMARK  status: ('A' for Active; 'I' for Inactive)
REMARK    1  A    between atoms: C_2  and  C_3
REMARK    2  A    between atoms: C_3  and  O_5
REMARK    3  A    between atoms: O_5  and  C_6
REMARK    4  A    between atoms: C_6  and  C_7
REMARK    5  A    between atoms: C_7  and  C_8
REMARK    6  A    between atoms: C_8  and  C_9
REMARK    7  A    between atoms: C_9  and  O_10
REMARK                            x       y       z     vdW  Elec       q    Type
REMARK                         _______ _______ _______ _____ _____    ______ ____
ROOT
ATOM      1  C   UNL     1       5.105   4.780  18.594  0.00  0.00    +0.000 C 
ENDROOT
BRANCH   1   2
ATOM      2  O   UNL     1       6.434   4.243  18.694  0.00  0.00    +0.000 OA
BRANCH   2   3
ATOM      3  C   UNL     1       7.351   4.889  17.932  0.00  0.00    +0.000 C 
ATOM      4  O   UNL     1       7.968   4.422  16.987  0.00  0.00    +0.000 OA
BRANCH   3   6
ATOM      5  C   UNL     1       7.626   7.274  17.541  0.00  0.00    +0.000 C 
ATOM      6  C   UNL     1       7.502   6.272  18.420  0.00  0.00    +0.000 C 
ENDBRANCH   3   6
ENDBRANCH   2   3
ENDBRANCH   1   2
BRANCH   1   7
ATOM      7  C   UNL     1       4.159   4.017  19.516  0.00  0.00    +0.000 C 
BRANCH   7   8
ATOM      8  C   UNL     1       2.780   4.665  19.564  0.00  0.00    +0.000 C 
BRANCH   8   9
ATOM      9  C   UNL     1       1.950   4.129  20.722  0.00  0.00    +0.000 C 
BRANCH   9  10
ATOM     10  O   UNL     1       0.605   3.939  20.301  0.00  0.00    +0.000 OA
ATOM     11  H   UNL     1       0.263   3.150  20.754  0.00  0.00    +0.000 HD
ENDBRANCH   9  10
ENDBRANCH   8   9
ENDBRANCH   7   8
ENDBRANCH   1   7
TORSDOF 7
ENDMDL
MODEL 9
REMARK VINA RESULT:      -3.8      3.320      5.963
REMARK  Name = 
REMARK  7 active torsions:
REMARK  status: ('A' for Active; 'I' for Inactive)
REMARK    1  A    between atoms: C_2  and  C_3
REMARK    2  A    between atoms: C_3  and  O_5
REMARK    3  A    between atoms: O_5  and  C_6
REMARK    4  A    between atoms: C_6  and  C_7
REMARK    5  A    between atoms: C_7  and  C_8
REMARK    6  A    between atoms: C_8  and  C_9
REMARK    7  A    between atoms: C_9  and  O_10
REMARK                            x       y       z     vdW  Elec       q    Type
REMARK                         _______ _______ _______ _____ _____    ______ ____
ROOT
ATOM      1  C   UNL     1       2.810   3.278  17.581  0.00  0.00    +0.000 C 
ENDROOT
BRANCH   1   2
ATOM      2  O   UNL     1       2.453   2.479  18.721  0.00  0.00    +0.000 OA
BRANCH   2   3
ATOM      3  C   UNL     1       1.155   2.596  19.094  0.00  0.00    +0.000 C 
ATOM      4  O   UNL     1       0.185   2.166  18.490  0.00  0.00    +0.000 OA
BRANCH   3   6
ATOM      5  C   UNL     1       1.589   2.793  21.480  0.00  0.00    +0.000 C 
ATOM      6  C   UNL     1       1.079   3.335  20.368  0.00  0.00    +0.000 C 
ENDBRANCH   3   6
ENDBRANCH   2   3
ENDBRANCH   1   2
BRANCH   1   7
ATOM      7  C   UNL     1       4.146   3.975  17.825  0.00  0.00    +0.000 C 
BRANCH   7   8
ATOM      8  C   UNL     1       5.015   3.971  16.573  0.00  0.00    +0.000 C 
BRANCH   8   9
ATOM      9  C   UNL     1       6.206   4.910  16.716  0.00  0.00    +0.000 C 
BRANCH   9  10
ATOM     10  O   UNL     1       7.324   4.193  17.222  0.00  0.00    +0.000 OA
ATOM     11  H   UNL     1       7.811   4.788  17.817  0.00  0.00    +0.000 HD
ENDBRANCH   9  10
ENDBRANCH   8   9
ENDBRANCH   7   8
ENDBRANCH   1   7
TORSDOF 7
ENDMDL
