MODEL 1
REMARK VINA RESULT:      -6.8      0.000      0.000
REMARK  Name = 
REMARK  11 active torsions:
REMARK  status: ('A' for Active; 'I' for Inactive)
REMARK    1  A    between atoms: C_1  and  C_2
REMARK    2  A    between atoms: C_2  and  C_3
REMARK    3  A    between atoms: C_3  and  C_4
REMARK    4  A    between atoms: C_7  and  S_8
REMARK    5  A    between atoms: S_8  and  C_9
REMARK    6  A    between atoms: C_9  and  C_10
REMARK    7  A    between atoms: C_15  and  C_16
REMARK    8  A    between atoms: N_19  and  C_20
REMARK    9  A    between atoms: C_20  and  C_21
REMARK   10  A    between atoms: C_21  and  O_22
REMARK   11  A    between atoms: O_22  and  C_23
REMARK                            x       y       z     vdW  Elec       q    Type
REMARK                         _______ _______ _______ _____ _____    ______ ____
ROOT
ATOM      1  C   UNL     1       7.204   5.982  18.572  0.00  0.00    +0.000 A 
ATOM      2  N   UNL     1       6.931   5.578  19.798  0.00  0.00    +0.000 NA
ATOM      3  N   UNL     1       5.951   4.627  19.744  0.00  0.00    +0.000 NA
ATOM      4  C   UNL     1       5.637   4.457  18.483  0.00  0.00    +0.000 A 
ATOM      5  N   UNL     1       6.393   5.295  17.687  0.00  0.00    +0.000 N 
ENDROOT
BRANCH   1   6
ATOM      6  C   UNL     1       8.239   7.015  18.273  0.00  0.00    +0.000 C 
BRANCH   6   8
ATOM      7  C   UNL     1       8.428   9.526  18.141  0.00  0.00    +0.000 C 
ATOM      8  C   UNL     1       7.628   8.301  17.718  0.00  0.00    +0.000 C 
ENDBRANCH   6   8
ENDBRANCH   1   6
BRANCH   4   9
ATOM      9  S   UNL     1       4.403   3.392  17.893  0.00  0.00    +0.000 S 
BRANCH   9  10
ATOM     10  C   UNL     1       3.369   3.184  19.382  0.00  0.00    +0.000 C 
BRANCH  10  11
ATOM     11  C   UNL     1       2.760   4.502  19.864  0.00  0.00    +0.000 C 
ATOM     12  O   UNL     1       2.400   4.612  21.035  0.00  0.00    +0.000 OA
ATOM     13  N   UNL     1       2.748   5.508  18.918  0.00  0.00    +0.000 N 
ATOM     14  C   UNL     1       2.305   6.800  19.130  0.00  0.00    +0.000 A 
ATOM     15  C   UNL     1       2.279   7.795  18.118  0.00  0.00    +0.000 A 
ATOM     16  C   UNL     1       1.801   8.919  18.746  0.00  0.00    +0.000 A 
ATOM     17  C   UNL     1       1.537  10.308  18.330  0.00  0.00    +0.000 C 
ATOM     18  O   UNL     1       1.543   8.622  20.044  0.00  0.00    +0.000 OA
ATOM     19  N   UNL     1       1.855   7.299  20.283  0.00  0.00    +0.000 NA
ATOM     20  H   UNL     1       3.042   5.274  17.980  0.00  0.00    +0.000 HD
ENDBRANCH  10  11
ENDBRANCH   9  10
ENDBRANCH   4   9
BRANCH   5  21
ATOM     21  C   UNL     1       6.202   5.458  16.258  0.00  0.00    +0.000 C 
BRANCH  21  22
ATOM     22  C   UNL     1       7.091   4.699  15.276  0.00  0.00    +0.000 C 
BRANCH  22  23
ATOM     23  O   UNL     1       6.637   4.909  13.943  0.00  0.00    +0.000 OA
ATOM     24  C   UNL     1       6.170   3.704  13.345  0.00  0.00    +0.000 C 
ENDBRANCH  22  23
ENDBRANCH  21  22
ENDBRANCH   5  21
TORSDOF 8
ENDMDL
MODEL 2
REMARK VINA RESULT:      -6.7      1.711      1.961
REMARK  Name = 
REMARK  11 active torsions:
REMARK  status: ('A' for Active; 'I' for Inactive)
REMARK    1  A    between atoms: C_1  and  C_2
REMARK    2  A    between atoms: C_2  and  C_3
REMARK    3  A    between atoms: C_3  and  C_4
REMARK    4  A    between atoms: C_7  and  S_8
REMARK    5  A    between atoms: S_8  and  C_9
REMARK    6  A    between atoms: C_9  and  C_10
REMARK    7  A    between atoms: C_15  and  C_16
REMARK    8  A    between atoms: N_19  and  C_20
REMARK    9  A    between atoms: C_20  and  C_21
REMARK   10  A    between atoms: C_21  and  O_22
REMARK   11  A    between atoms: O_22  and  C_23
REMARK                            x       y       z     vdW  Elec       q    Type
REMARK                         _______ _______ _______ _____ _____    ______ ____
ROOT
ATOM      1  C   UNL     1       7.060   6.406  18.071  0.00  0.00    +0.000 A 
ATOM      2  N   UNL     1       7.299   5.977  19.296  0.00  0.00    +0.000 NA
ATOM      3  N   UNL     1       6.314   5.104  19.661  0.00  0.00    +0.000 NA
ATOM      4  C   UNL     1       5.483   5.005  18.653  0.00  0.00    +0.000 A 
ATOM      5  N   UNL     1       5.897   5.814  17.613  0.00  0.00    +0.000 N 
ENDROOT
BRANCH   1   6
ATOM      6  C   UNL     1       7.952   7.370  17.363  0.00  0.00    +0.000 C 
BRANCH   6   8
ATOM      7  C   UNL     1       8.728   9.439  18.578  0.00  0.00    +0.000 C 
ATOM      8  C   UNL     1       7.632   8.821  17.719  0.00  0.00    +0.000 C 
ENDBRANCH   6   8
ENDBRANCH   1   6
BRANCH   4   9
ATOM      9  S   UNL     1       4.032   4.055  18.642  0.00  0.00    +0.000 S 
BRANCH   9  10
ATOM     10  C   UNL     1       3.106   4.803  20.024  0.00  0.00    +0.000 C 
BRANCH  10  11
ATOM     11  C   UNL     1       2.555   6.189  19.684  0.00  0.00    +0.000 C 
ATOM     12  O   UNL     1       2.505   6.550  18.509  0.00  0.00    +0.000 OA
ATOM     13  N   UNL     1       2.074   6.896  20.767  0.00  0.00    +0.000 N 
ATOM     14  C   UNL     1       1.475   8.141  20.708  0.00  0.00    +0.000 A 
ATOM     15  C   UNL     1       1.024   8.849  21.852  0.00  0.00    +0.000 A 
ATOM     16  C   UNL     1       0.482  10.008  21.354  0.00  0.00    +0.000 A 
ATOM     17  C   UNL     1      -0.184  11.182  21.947  0.00  0.00    +0.000 C 
ATOM     18  O   UNL     1       0.608  10.008  20.003  0.00  0.00    +0.000 OA
ATOM     19  N   UNL     1       1.231   8.845  19.600  0.00  0.00    +0.000 NA
ATOM     20  H   UNL     1       2.208   6.498  21.686  0.00  0.00    +0.000 HD
ENDBRANCH  10  11
ENDBRANCH   9  10
ENDBRANCH   4   9
BRANCH   5  21
ATOM     21  C   UNL     1       5.133   6.043  16.401  0.00  0.00    +0.000 C 
BRANCH  21  22
ATOM     22  C   UNL     1       5.308   5.118  15.200  0.00  0.00    +0.000 C 
BRANCH  22  23
ATOM     23  O   UNL     1       6.691   4.851  14.987  0.00  0.00    +0.000 OA
ATOM     24  C   UNL     1       6.961   4.492  13.637  0.00  0.00    +0.000 C 
ENDBRANCH  22  23
ENDBRANCH  21  22
ENDBRANCH   5  21
TORSDOF 8
ENDMDL
MODEL 3
REMARK VINA RESULT:      -6.7      3.190      7.077
REMARK  Name = 
REMARK  11 active torsions:
REMARK  status: ('A' for Active; 'I' for Inactive)
REMARK    1  A    between atoms: C_1  and  C_2
REMARK    2  A    between atoms: C_2  and  C_3
REMARK    3  A    between atoms: C_3  and  C_4
REMARK    4  A    between atoms: C_7  and  S_8
REMARK    5  A    between atoms: S_8  and  C_9
REMARK    6  A    between atoms: C_9  and  C_10
REMARK    7  A    between atoms: C_15  and  C_16
REMARK    8  A    between atoms: N_19  and  C_20
REMARK    9  A    between atoms: C_20  and  C_21
REMARK   10  A    between atoms: C_21  and  O_22
REMARK   11  A    between atoms: O_22  and  C_23
REMARK                            x       y       z     vdW  Elec       q    Type
REMARK                         _______ _______ _______ _____ _____    ______ ____
ROOT
ATOM      1  C   UNL     1       2.414   3.702  18.597  0.00  0.00    +0.000 A 
ATOM      2  N   UNL     1       2.295   4.995  18.360  0.00  0.00    +0.000 NA
ATOM      3  N   UNL     1       3.519   5.586  18.494  0.00  0.00    +0.000 NA
ATOM      4  C   UNL     1       4.377   4.647  18.810  0.00  0.00    +0.000 A 
ATOM      5  N   UNL     1       3.735   3.426  18.898  0.00  0.00    +0.000 N 
ENDROOT
BRANCH   1   6
ATOM      6  C   UNL     1       1.261   2.758  18.526  0.00  0.00    +0.000 C 
BRANCH   6   8
ATOM      7  C   UNL     1       1.120   3.015  21.031  0.00  0.00    +0.000 C 
ATOM      8  C   UNL     1       0.333   2.888  19.733  0.00  0.00    +0.000 C 
ENDBRANCH   6   8
ENDBRANCH   1   6
BRANCH   4   9
ATOM      9  S   UNL     1       6.060   4.898  19.142  0.00  0.00    +0.000 S 
BRANCH   9  10
ATOM     10  C   UNL     1       6.351   6.500  18.319  0.00  0.00    +0.000 C 
BRANCH  10  11
ATOM     11  C   UNL     1       6.882   6.342  16.894  0.00  0.00    +0.000 C 
ATOM     12  O   UNL     1       7.828   7.033  16.518  0.00  0.00    +0.000 OA
ATOM     13  N   UNL     1       6.275   5.340  16.164  0.00  0.00    +0.000 N 
ATOM     14  C   UNL     1       6.618   4.966  14.878  0.00  0.00    +0.000 A 
ATOM     15  C   UNL     1       5.944   3.951  14.150  0.00  0.00    +0.000 A 
ATOM     16  C   UNL     1       6.607   3.882  12.950  0.00  0.00    +0.000 A 
ATOM     17  C   UNL     1       6.478   3.055  11.737  0.00  0.00    +0.000 C 
ATOM     18  O   UNL     1       7.605   4.801  12.946  0.00  0.00    +0.000 OA
ATOM     19  N   UNL     1       7.610   5.479  14.147  0.00  0.00    +0.000 NA
ATOM     20  H   UNL     1       5.484   4.869  16.580  0.00  0.00    +0.000 HD
ENDBRANCH  10  11
ENDBRANCH   9  10
ENDBRANCH   4   9
BRANCH   5  21
ATOM     21  C   UNL     1       4.364   2.203  19.360  0.00  0.00    +0.000 C 
BRANCH  21  22
ATOM     22  C   UNL     1       4.348   1.848  20.844  0.00  0.00    +0.000 C 
BRANCH  22  23
ATOM     23  O   UNL     1       5.656   1.485  21.274  0.00  0.00    +0.000 OA
ATOM     24  C   UNL     1       5.640   0.332  22.109  0.00  0.00    +0.000 C 
ENDBRANCH  22  23
ENDBRANCH  21  22
ENDBRANCH   5  21
TORSDOF 8
ENDMDL
MODEL 4
REMARK VINA RESULT:      -6.7      3.570      6.727
REMARK  Name = 
REMARK  11 active torsions:
REMARK  status: ('A' for Active; 'I' for Inactive)
REMARK    1  A    between atoms: C_1  and  C_2
REMARK    2  A    between atoms: C_2  and  C_3
REMARK    3  A    between atoms: C_3  and  C_4
REMARK    4  A    between atoms: C_7  and  S_8
REMARK    5  A    between atoms: S_8  and  C_9
REMARK    6  A    between atoms: C_9  and  C_10
REMARK    7  A    between atoms: C_15  and  C_16
REMARK    8  A    between atoms: N_19  and  C_20
REMARK    9  A    between atoms: C_20  and  C_21
REMARK   10  A    between atoms: C_21  and  O_22
REMARK   11  A    between atoms: O_22  and  C_23
REMARK                            x       y       z     vdW  Elec       q    Type
REMARK                         _______ _______ _______ _____ _____    ______ ____
ROOT
ATOM      1  C   UNL     1       6.093   4.409  15.001  0.00  0.00    +0.000 A 
ATOM      2  N   UNL     1       7.232   5.047  14.808  0.00  0.00    +0.000 NA
ATOM      3  N   UNL     1       7.510   5.804  15.911  0.00  0.00    +0.000 NA
ATOM      4  C   UNL     1       6.539   5.619  16.770  0.00  0.00    +0.000 A 
ATOM      5  N   UNL     1       5.602   4.747  16.249  0.00  0.00    +0.000 N 
ENDROOT
BRANCH   1   6
ATOM      6  C   UNL     1       5.503   3.486  13.990  0.00  0.00    +0.000 C 
BRANCH   6   8
ATOM      7  C   UNL     1       5.344   3.080  11.506  0.00  0.00    +0.000 C 
ATOM      8  C   UNL     1       6.231   3.557  12.648  0.00  0.00    +0.000 C 
ENDBRANCH   6   8
ENDBRANCH   1   6
BRANCH   4   9
ATOM      9  S   UNL     1       6.400   6.403  18.311  0.00  0.00    +0.000 S 
BRANCH   9  10
ATOM     10  C   UNL     1       8.115   6.968  18.578  0.00  0.00    +0.000 C 
BRANCH  10  11
ATOM     11  C   UNL     1       8.306   8.447  18.243  0.00  0.00    +0.000 C 
ATOM     12  O   UNL     1       7.750   8.923  17.256  0.00  0.00    +0.000 OA
ATOM     13  N   UNL     1       9.052   9.152  19.167  0.00  0.00    +0.000 N 
ATOM     14  C   UNL     1       9.314  10.509  19.117  0.00  0.00    +0.000 A 
ATOM     15  C   UNL     1      10.115  11.189  20.071  0.00  0.00    +0.000 A 
ATOM     16  C   UNL     1      10.097  12.502  19.670  0.00  0.00    +0.000 A 
ATOM     17  C   UNL     1      10.678  13.754  20.187  0.00  0.00    +0.000 C 
ATOM     18  O   UNL     1       9.348  12.608  18.544  0.00  0.00    +0.000 OA
ATOM     19  N   UNL     1       8.862  11.364  18.197  0.00  0.00    +0.000 NA
ATOM     20  H   UNL     1       9.484   8.632  19.918  0.00  0.00    +0.000 HD
ENDBRANCH  10  11
ENDBRANCH   9  10
ENDBRANCH   4   9
BRANCH   5  21
ATOM     21  C   UNL     1       4.335   4.433  16.883  0.00  0.00    +0.000 C 
BRANCH  21  22
ATOM     22  C   UNL     1       4.161   3.113  17.630  0.00  0.00    +0.000 C 
BRANCH  22  23
ATOM     23  O   UNL     1       4.534   3.272  18.995  0.00  0.00    +0.000 OA
ATOM     24  C   UNL     1       3.444   3.027  19.876  0.00  0.00    +0.000 C 
ENDBRANCH  22  23
ENDBRANCH  21  22
ENDBRANCH   5  21
TORSDOF 8
ENDMDL
MODEL 5
REMARK VINA RESULT:      -6.6      2.281      6.664
REMARK  Name = 
REMARK  11 active torsions:
REMARK  status: ('A' for Active; 'I' for Inactive)
REMARK    1  A    between atoms: C_1  and  C_2
REMARK    2  A    between atoms: C_2  and  C_3
REMARK    3  A    between atoms: C_3  and  C_4
REMARK    4  A    between atoms: C_7  and  S_8
REMARK    5  A    between atoms: S_8  and  C_9
REMARK    6  A    between atoms: C_9  and  C_10
REMARK    7  A    between atoms: C_15  and  C_16
REMARK    8  A    between atoms: N_19  and  C_20
REMARK    9  A    between atoms: C_20  and  C_21
REMARK   10  A    between atoms: C_21  and  O_22
REMARK   11  A    between atoms: O_22  and  C_23
REMARK                            x       y       z     vdW  Elec       q    Type
REMARK                         _______ _______ _______ _____ _____    ______ ____
ROOT
ATOM      1  C   UNL     1       2.218   7.309  19.264  0.00  0.00    +0.000 A 
ATOM      2  N   UNL     1       2.985   7.705  18.265  0.00  0.00    +0.000 NA
ATOM      3  N   UNL     1       3.889   6.720  17.982  0.00  0.00    +0.000 NA
ATOM      4  C   UNL     1       3.663   5.729  18.809  0.00  0.00    +0.000 A 
ATOM      5  N   UNL     1       2.617   6.045  19.656  0.00  0.00    +0.000 N 
ENDROOT
BRANCH   1   6
ATOM      6  C   UNL     1       1.116   8.149  19.818  0.00  0.00    +0.000 C 
BRANCH   6   8
ATOM      7  C   UNL     1       0.523  10.572  20.186  0.00  0.00    +0.000 C 
ATOM      8  C   UNL     1       1.099   9.552  19.213  0.00  0.00    +0.000 C 
ENDBRANCH   6   8
ENDBRANCH   1   6
BRANCH   4   9
ATOM      9  S   UNL     1       4.582   4.261  18.889  0.00  0.00    +0.000 S 
BRANCH   9  10
ATOM     10  C   UNL     1       6.285   4.911  18.983  0.00  0.00    +0.000 C 
BRANCH  10  11
ATOM     11  C   UNL     1       6.840   5.310  17.615  0.00  0.00    +0.000 C 
ATOM     12  O   UNL     1       7.690   6.195  17.539  0.00  0.00    +0.000 OA
ATOM     13  N   UNL     1       6.372   4.548  16.563  0.00  0.00    +0.000 N 
ATOM     14  C   UNL     1       6.768   4.675  15.244  0.00  0.00    +0.000 A 
ATOM     15  C   UNL     1       6.235   3.892  14.187  0.00  0.00    +0.000 A 
ATOM     16  C   UNL     1       6.907   4.314  13.067  0.00  0.00    +0.000 A 
ATOM     17  C   UNL     1       6.893   3.936  11.642  0.00  0.00    +0.000 C 
ATOM     18  O   UNL     1       7.778   5.293  13.419  0.00  0.00    +0.000 OA
ATOM     19  N   UNL     1       7.688   5.520  14.777  0.00  0.00    +0.000 NA
ATOM     20  H   UNL     1       5.646   3.872  16.758  0.00  0.00    +0.000 HD
ENDBRANCH  10  11
ENDBRANCH   9  10
ENDBRANCH   4   9
BRANCH   5  21
ATOM     21  C   UNL     1       2.198   5.226  20.778  0.00  0.00    +0.000 C 
BRANCH  21  22
ATOM     22  C   UNL     1       1.061   4.222  20.610  0.00  0.00    +0.000 C 
BRANCH  22  23
ATOM     23  O   UNL     1       1.579   2.962  20.196  0.00  0.00    +0.000 OA
ATOM     24  C   UNL     1       1.076   2.571  18.924  0.00  0.00    +0.000 C 
ENDBRANCH  22  23
ENDBRANCH  21  22
ENDBRANCH   5  21
TORSDOF 8
ENDMDL
MODEL 6
REMARK VINA RESULT:      -6.6      3.145      5.126
REMARK  Name = 
REMARK  11 active torsions:
REMARK  status: ('A' for Active; 'I' for Inactive)
REMARK    1  A    between atoms: C_1  and  C_2
REMARK    2  A    between atoms: C_2  and  C_3
REMARK    3  A    between atoms: C_3  and  C_4
REMARK    4  A    between atoms: C_7  and  S_8
REMARK    5  A    between atoms: S_8  and  C_9
REMARK    6  A    between atoms: C_9  and  C_10
REMARK    7  A    between atoms: C_15  and  C_16
REMARK    8  A    between atoms: N_19  and  C_20
REMARK    9  A    between atoms: C_20  and  C_21
REMARK   10  A    between atoms: C_21  and  O_22
REMARK   11  A    between atoms: O_22  and  C_23
REMARK                            x       y       z     vdW  Elec       q    Type
REMARK                         _______ _______ _______ _____ _____    ______ ____
ROOT
ATOM      1  C   UNL     1       5.302   5.408  16.494  0.00  0.00    +0.000 A 
ATOM      2  N   UNL     1       5.400   6.635  16.019  0.00  0.00    +0.000 NA
ATOM      3  N   UNL     1       4.488   7.431  16.652  0.00  0.00    +0.000 NA
ATOM      4  C   UNL     1       3.842   6.682  17.511  0.00  0.00    +0.000 A 
ATOM      5  N   UNL     1       4.308   5.383  17.455  0.00  0.00    +0.000 N 
ENDROOT
BRANCH   1   6
ATOM      6  C   UNL     1       6.165   4.287  16.022  0.00  0.00    +0.000 C 
BRANCH   6   8
ATOM      7  C   UNL     1       5.904   3.833  13.555  0.00  0.00    +0.000 C 
ATOM      8  C   UNL     1       6.727   4.541  14.624  0.00  0.00    +0.000 C 
ENDBRANCH   6   8
ENDBRANCH   1   6
BRANCH   4   9
ATOM      9  S   UNL     1       2.541   7.216  18.526  0.00  0.00    +0.000 S 
BRANCH   9  10
ATOM     10  C   UNL     1       2.292   8.919  17.920  0.00  0.00    +0.000 C 
BRANCH  10  11
ATOM     11  C   UNL     1       1.031   9.569  18.490  0.00  0.00    +0.000 C 
ATOM     12  O   UNL     1       1.026   9.971  19.652  0.00  0.00    +0.000 OA
ATOM     13  N   UNL     1       0.003   9.720  17.580  0.00  0.00    +0.000 N 
ATOM     14  C   UNL     1      -1.211  10.329  17.838  0.00  0.00    +0.000 A 
ATOM     15  C   UNL     1      -2.255  10.433  16.882  0.00  0.00    +0.000 A 
ATOM     16  C   UNL     1      -3.254  11.118  17.529  0.00  0.00    +0.000 A 
ATOM     17  C   UNL     1      -4.596  11.598  17.153  0.00  0.00    +0.000 C 
ATOM     18  O   UNL     1      -2.849  11.397  18.793  0.00  0.00    +0.000 OA
ATOM     19  N   UNL     1      -1.575  10.903  18.987  0.00  0.00    +0.000 NA
ATOM     20  H   UNL     1       0.123   9.313  16.663  0.00  0.00    +0.000 HD
ENDBRANCH  10  11
ENDBRANCH   9  10
ENDBRANCH   4   9
BRANCH   5  21
ATOM     21  C   UNL     1       3.718   4.271  18.177  0.00  0.00    +0.000 C 
BRANCH  21  22
ATOM     22  C   UNL     1       4.506   3.573  19.282  0.00  0.00    +0.000 C 
BRANCH  22  23
ATOM     23  O   UNL     1       3.991   2.262  19.496  0.00  0.00    +0.000 OA
ATOM     24  C   UNL     1       3.418   1.716  18.313  0.00  0.00    +0.000 C 
ENDBRANCH  22  23
ENDBRANCH  21  22
ENDBRANCH   5  21
TORSDOF 8
ENDMDL
MODEL 7
REMARK VINA RESULT:      -6.4      2.764      6.809
REMARK  Name = 
REMARK  11 active torsions:
REMARK  status: ('A' for Active; 'I' for Inactive)
REMARK    1  A    between atoms: C_1  and  C_2
REMARK    2  A    between atoms: C_2  and  C_3
REMARK    3  A    between atoms: C_3  and  C_4
REMARK    4  A    between atoms: C_7  and  S_8
REMARK    5  A    between atoms: S_8  and  C_9
REMARK    6  A    between atoms: C_9  and  C_10
REMARK    7  A    between atoms: C_15  and  C_16
REMARK    8  A    between atoms: N_19  and  C_20
REMARK    9  A    between atoms: C_20  and  C_21
REMARK   10  A    between atoms: C_21  and  O_22
REMARK   11  A    between atoms: O_22  and  C_23
REMARK                            x       y       z     vdW  Elec       q    Type
REMARK                         _______ _______ _______ _____ _____    ______ ____
ROOT
ATOM      1  C   UNL     1       2.061   5.129  20.158  0.00  0.00    +0.000 A 
ATOM      2  N   UNL     1       1.781   6.336  20.613  0.00  0.00    +0.000 NA
ATOM      3  N   UNL     1       2.317   7.265  19.766  0.00  0.00    +0.000 NA
ATOM      4  C   UNL     1       2.917   6.616  18.799  0.00  0.00    +0.000 A 
ATOM      5  N   UNL     1       2.797   5.253  18.994  0.00  0.00    +0.000 N 
ENDROOT
BRANCH   1   6
ATOM      6  C   UNL     1       1.614   3.883  20.846  0.00  0.00    +0.000 C 
BRANCH   6   8
ATOM      7  C   UNL     1       0.681   2.248  19.168  0.00  0.00    +0.000 C 
ATOM      8  C   UNL     1       0.349   3.300  20.218  0.00  0.00    +0.000 C 
ENDBRANCH   6   8
ENDBRANCH   1   6
BRANCH   4   9
ATOM      9  S   UNL     1       3.800   7.347  17.498  0.00  0.00    +0.000 S 
BRANCH   9  10
ATOM     10  C   UNL     1       5.510   6.862  17.909  0.00  0.00    +0.000 C 
BRANCH  10  11
ATOM     11  C   UNL     1       6.321   6.462  16.676  0.00  0.00    +0.000 C 
ATOM     12  O   UNL     1       7.466   6.890  16.537  0.00  0.00    +0.000 OA
ATOM     13  N   UNL     1       5.692   5.558  15.844  0.00  0.00    +0.000 N 
ATOM     14  C   UNL     1       6.241   5.002  14.704  0.00  0.00    +0.000 A 
ATOM     15  C   UNL     1       5.545   4.100  13.858  0.00  0.00    +0.000 A 
ATOM     16  C   UNL     1       6.446   3.779  12.873  0.00  0.00    +0.000 A 
ATOM     17  C   UNL     1       6.426   2.896  11.693  0.00  0.00    +0.000 C 
ATOM     18  O   UNL     1       7.604   4.451  13.099  0.00  0.00    +0.000 OA
ATOM     19  N   UNL     1       7.474   5.216  14.240  0.00  0.00    +0.000 NA
ATOM     20  H   UNL     1       4.734   5.313  16.056  0.00  0.00    +0.000 HD
ENDBRANCH  10  11
ENDBRANCH   9  10
ENDBRANCH   4   9
BRANCH   5  21
ATOM     21  C   UNL     1       3.461   4.249  18.184  0.00  0.00    +0.000 C 
BRANCH  21  22
ATOM     22  C   UNL     1       4.677   3.506  18.731  0.00  0.00    +0.000 C 
BRANCH  22  23
ATOM     23  O   UNL     1       4.269   2.285  19.340  0.00  0.00    +0.000 OA
ATOM     24  C   UNL     1       3.761   1.359  18.386  0.00  0.00    +0.000 C 
ENDBRANCH  22  23
ENDBRANCH  21  22
ENDBRANCH   5  21
TORSDOF 8
ENDMDL
MODEL 8
REMARK VINA RESULT:      -6.4      3.234      6.493
REMARK  Name = 
REMARK  11 active torsions:
REMARK  status: ('A' for Active; 'I' for Inactive)
REMARK    1  A    between atoms: C_1  and  C_2
REMARK    2  A    between atoms: C_2  and  C_3
REMARK    3  A    between atoms: C_3  and  C_4
REMARK    4  A    between atoms: C_7  and  S_8
REMARK    5  A    between atoms: S_8  and  C_9
REMARK    6  A    between atoms: C_9  and  C_10
REMARK    7  A    between atoms: C_15  and  C_16
REMARK    8  A    between atoms: N_19  and  C_20
REMARK    9  A    between atoms: C_20  and  C_21
REMARK   10  A    between atoms: C_21  and  O_22
REMARK   11  A    between atoms: O_22  and  C_23
REMARK                            x       y       z     vdW  Elec       q    Type
REMARK                         _______ _______ _______ _____ _____    ______ ____
ROOT
ATOM      1  C   UNL     1       3.314   5.902  18.289  0.00  0.00    +0.000 A 
ATOM      2  N   UNL     1       3.511   7.042  17.654  0.00  0.00    +0.000 NA
ATOM      3  N   UNL     1       4.799   7.081  17.200  0.00  0.00    +0.000 NA
ATOM      4  C   UNL     1       5.377   5.961  17.560  0.00  0.00    +0.000 A 
ATOM      5  N   UNL     1       4.488   5.171  18.263  0.00  0.00    +0.000 N 
ENDROOT
BRANCH   1   6
ATOM      6  C   UNL     1       2.005   5.536  18.904  0.00  0.00    +0.000 C 
BRANCH   6   8
ATOM      7  C   UNL     1       1.661   7.257  20.715  0.00  0.00    +0.000 C 
ATOM      8  C   UNL     1       1.981   5.800  20.409  0.00  0.00    +0.000 C 
ENDBRANCH   6   8
ENDBRANCH   1   6
BRANCH   4   9
ATOM      9  S   UNL     1       7.036   5.550  17.266  0.00  0.00    +0.000 S 
BRANCH   9  10
ATOM     10  C   UNL     1       7.877   6.512  18.569  0.00  0.00    +0.000 C 
BRANCH  10  11
ATOM     11  C   UNL     1       8.191   7.944  18.134  0.00  0.00    +0.000 C 
ATOM     12  O   UNL     1       7.867   8.322  17.009  0.00  0.00    +0.000 OA
ATOM     13  N   UNL     1       8.760   8.730  19.116  0.00  0.00    +0.000 N 
ATOM     14  C   UNL     1       9.080  10.068  18.985  0.00  0.00    +0.000 A 
ATOM     15  C   UNL     1       9.695  10.831  20.011  0.00  0.00    +0.000 A 
ATOM     16  C   UNL     1       9.811  12.094  19.486  0.00  0.00    +0.000 A 
ATOM     17  C   UNL     1      10.324  13.384  19.984  0.00  0.00    +0.000 C 
ATOM     18  O   UNL     1       9.313  12.093  18.224  0.00  0.00    +0.000 OA
ATOM     19  N   UNL     1       8.859  10.829  17.911  0.00  0.00    +0.000 NA
ATOM     20  H   UNL     1       9.008   8.284  19.989  0.00  0.00    +0.000 HD
ENDBRANCH  10  11
ENDBRANCH   9  10
ENDBRANCH   4   9
BRANCH   5  21
ATOM     21  C   UNL     1       4.842   3.928  18.921  0.00  0.00    +0.000 C 
BRANCH  21  22
ATOM     22  C   UNL     1       4.041   2.659  18.641  0.00  0.00    +0.000 C 
BRANCH  22  23
ATOM     23  O   UNL     1       3.142   2.402  19.715  0.00  0.00    +0.000 OA
ATOM     24  C   UNL     1       1.897   1.889  19.254  0.00  0.00    +0.000 C 
ENDBRANCH  22  23
ENDBRANCH  21  22
ENDBRANCH   5  21
TORSDOF 8
ENDMDL
MODEL 9
REMARK VINA RESULT:      -6.4      2.521      4.120
REMARK  Name = 
REMARK  11 active torsions:
REMARK  status: ('A' for Active; 'I' for Inactive)
REMARK    1  A    between atoms: C_1  and  C_2
REMARK    2  A    between atoms: C_2  and  C_3
REMARK    3  A    between atoms: C_3  and  C_4
REMARK    4  A    between atoms: C_7  and  S_8
REMARK    5  A    between atoms: S_8  and  C_9
REMARK    6  A    between atoms: C_9  and  C_10
REMARK    7  A    between atoms: C_15  and  C_16
REMARK    8  A    between atoms: N_19  and  C_20
REMARK    9  A    between atoms: C_20  and  C_21
REMARK   10  A    between atoms: C_21  and  O_22
REMARK   11  A    between atoms: O_22  and  C_23
REMARK                            x       y       z     vdW  Elec       q    Type
REMARK                         _______ _______ _______ _____ _____    ______ ____
ROOT
ATOM      1  C   UNL     1       5.023   4.631  15.919  0.00  0.00    +0.000 A 
ATOM      2  N   UNL     1       4.404   3.514  16.251  0.00  0.00    +0.000 NA
ATOM      3  N   UNL     1       4.088   3.558  17.579  0.00  0.00    +0.000 NA
ATOM      4  C   UNL     1       4.515   4.705  18.047  0.00  0.00    +0.000 A 
ATOM      5  N   UNL     1       5.126   5.431  17.043  0.00  0.00    +0.000 N 
ENDROOT
BRANCH   1   6
ATOM      6  C   UNL     1       5.499   4.911  14.534  0.00  0.00    +0.000 C 
BRANCH   6   8
ATOM      7  C   UNL     1       6.206   3.560  12.525  0.00  0.00    +0.000 C 
ATOM      8  C   UNL     1       6.428   3.816  14.010  0.00  0.00    +0.000 C 
ENDBRANCH   6   8
ENDBRANCH   1   6
BRANCH   4   9
ATOM      9  S   UNL     1       4.401   5.217  19.700  0.00  0.00    +0.000 S 
BRANCH   9  10
ATOM     10  C   UNL     1       2.600   5.445  19.879  0.00  0.00    +0.000 C 
BRANCH  10  11
ATOM     11  C   UNL     1       2.183   6.915  19.813  0.00  0.00    +0.000 C 
ATOM     12  O   UNL     1       2.409   7.565  18.794  0.00  0.00    +0.000 OA
ATOM     13  N   UNL     1       1.491   7.365  20.920  0.00  0.00    +0.000 N 
ATOM     14  C   UNL     1       0.960   8.632  21.072  0.00  0.00    +0.000 A 
ATOM     15  C   UNL     1       0.284   9.064  22.242  0.00  0.00    +0.000 A 
ATOM     16  C   UNL     1      -0.096  10.355  21.970  0.00  0.00    +0.000 A 
ATOM     17  C   UNL     1      -0.843  11.394  22.701  0.00  0.00    +0.000 C 
ATOM     18  O   UNL     1       0.331  10.686  20.726  0.00  0.00    +0.000 OA
ATOM     19  N   UNL     1       0.993   9.612  20.166  0.00  0.00    +0.000 NA
ATOM     20  H   UNL     1       1.403   6.736  21.707  0.00  0.00    +0.000 HD
ENDBRANCH  10  11
ENDBRANCH   9  10
ENDBRANCH   4   9
BRANCH   5  21
ATOM     21  C   UNL     1       5.827   6.684  17.251  0.00  0.00    +0.000 C 
BRANCH  21  22
ATOM     22  C   UNL     1       7.353   6.720  17.220  0.00  0.00    +0.000 C 
BRANCH  22  23
ATOM     23  O   UNL     1       7.862   6.969  18.527  0.00  0.00    +0.000 OA
ATOM     24  C   UNL     1       8.032   5.766  19.269  0.00  0.00    +0.000 C 
ENDBRANCH  22  23
ENDBRANCH  21  22
ENDBRANCH   5  21
TORSDOF 8
ENDMDL
