MODEL 1
REMARK VINA RESULT:      -5.5      0.000      0.000
REMARK  Name = 
REMARK  5 active torsions:
REMARK  status: ('A' for Active; 'I' for Inactive)
REMARK    1  A    between atoms: N_1  and  CA_2
REMARK    2  A    between atoms: CA_2  and  C_3
REMARK    3  A    between atoms: CA_2  and  C_9
REMARK    4  A    between atoms: C_3  and  C_4
REMARK    5  A    between atoms: C_9  and  OXT_11
REMARK                            x       y       z     vdW  Elec       q    Type
REMARK                         _______ _______ _______ _____ _____    ______ ____
ROOT
ATOM      1  CA  UNL     1       3.916   2.709  19.550  0.00  0.00    +0.000 C 
ENDROOT
BRANCH   1   2
ATOM      2  N   UNL     1       5.122   2.031  20.124  0.00  0.00    +0.000 NA
ATOM      3  H1  UNL     1       5.315   1.201  19.560  0.00  0.00    +0.000 HD
ATOM      4  H2  UNL     1       4.902   1.674  21.061  0.00  0.00    +0.000 HD
ENDBRANCH   1   2
BRANCH   1   5
ATOM      5  C   UNL     1       3.391   1.850  18.384  0.00  0.00    +0.000 C 
ATOM      6  O   UNL     1       2.522   2.174  17.591  0.00  0.00    +0.000 OA
BRANCH   5   7
ATOM      7  OXT UNL     1       4.053   0.661  18.299  0.00  0.00    +0.000 OA
ATOM      8  HXT UNL     1       4.398   0.565  17.381  0.00  0.00    +0.000 HD
ENDBRANCH   5   7
ENDBRANCH   1   5
BRANCH   1   9
ATOM      9  C   UNL     1       4.179   4.140  19.046  0.00  0.00    +0.000 C 
BRANCH   9  10
ATOM     10  C   UNL     1       5.620   4.432  18.802  0.00  0.00    +0.000 A 
ATOM     11  N   UNL     1       6.451   5.077  19.592  0.00  0.00    +0.000 NA
ATOM     12  N   UNL     1       7.659   5.187  18.946  0.00  0.00    +0.000 NA
ATOM     13  C   UNL     1       7.541   4.612  17.774  0.00  0.00    +0.000 A 
ATOM     14  N   UNL     1       6.273   4.109  17.649  0.00  0.00    +0.000 N 
ATOM     15  H   UNL     1       5.909   3.625  16.842  0.00  0.00    +0.000 HD
ENDBRANCH   9  10
ENDBRANCH   1   9
TORSDOF 5
ENDMDL
MODEL 2
REMARK VINA RESULT:      -5.0      3.276      4.646
REMARK  Name = 
REMARK  5 active torsions:
REMARK  status: ('A' for Active; 'I' for Inactive)
REMARK    1  A    between atoms: N_1  and  CA_2
REMARK    2  A    between atoms: CA_2  and  C_3
REMARK    3  A    between atoms: CA_2  and  C_9
REMARK    4  A    between atoms: C_3  and  C_4
REMARK    5  A    between atoms: C_9  and  OXT_11
REMARK                            x       y       z     vdW  Elec       q    Type
REMARK                         _______ _______ _______ _____ _____    ______ ____
ROOT
ATOM      1  CA  UNL     1       5.819   4.640  16.100  0.00  0.00    +0.000 C 
ENDROOT
BRANCH   1   2
ATOM      2  N   UNL     1       6.035   3.215  15.691  0.00  0.00    +0.000 NA
ATOM      3  H1  UNL     1       5.797   3.133  14.701  0.00  0.00    +0.000 HD
ATOM      4  H2  UNL     1       5.364   2.613  16.180  0.00  0.00    +0.000 HD
ENDBRANCH   1   2
BRANCH   1   5
ATOM      5  C   UNL     1       6.995   5.066  17.000  0.00  0.00    +0.000 C 
ATOM      6  O   UNL     1       7.623   6.109  16.911  0.00  0.00    +0.000 OA
BRANCH   5   7
ATOM      7  OXT UNL     1       7.243   4.143  17.972  0.00  0.00    +0.000 OA
ATOM      8  HXT UNL     1       7.937   3.527  17.642  0.00  0.00    +0.000 HD
ENDBRANCH   5   7
ENDBRANCH   1   5
BRANCH   1   9
ATOM      9  C   UNL     1       4.495   4.887  16.846  0.00  0.00    +0.000 C 
BRANCH   9  10
ATOM     10  C   UNL     1       3.817   3.636  17.290  0.00  0.00    +0.000 A 
ATOM     11  N   UNL     1       2.574   3.274  17.060  0.00  0.00    +0.000 NA
ATOM     12  N   UNL     1       2.344   2.088  17.716  0.00  0.00    +0.000 NA
ATOM     13  C   UNL     1       3.448   1.752  18.336  0.00  0.00    +0.000 A 
ATOM     14  N   UNL     1       4.410   2.695  18.081  0.00  0.00    +0.000 N 
ATOM     15  H   UNL     1       5.351   2.688  18.442  0.00  0.00    +0.000 HD
ENDBRANCH   9  10
ENDBRANCH   1   9
TORSDOF 5
ENDMDL
MODEL 3
REMARK VINA RESULT:      -4.9      3.583      4.709
REMARK  Name = 
REMARK  5 active torsions:
REMARK  status: ('A' for Active; 'I' for Inactive)
REMARK    1  A    between atoms: N_1  and  CA_2
REMARK    2  A    between atoms: CA_2  and  C_3
REMARK    3  A    between atoms: CA_2  and  C_9
REMARK    4  A    between atoms: C_3  and  C_4
REMARK    5  A    between atoms: C_9  and  OXT_11
REMARK                            x       y       z     vdW  Elec       q    Type
REMARK                         _______ _______ _______ _____ _____    ______ ____
ROOT
ATOM      1  CA  UNL     1       7.667   5.506  17.980  0.00  0.00    +0.000 C 
ENDROOT
BRANCH   1   2
ATOM      2  N   UNL     1       8.124   4.123  17.634  0.00  0.00    +0.000 NA
ATOM      3  H1  UNL     1       8.829   4.199  16.899  0.00  0.00    +0.000 HD
ATOM      4  H2  UNL     1       7.348   3.601  17.210  0.00  0.00    +0.000 HD
ENDBRANCH   1   2
BRANCH   1   5
ATOM      5  C   UNL     1       6.969   5.454  19.353  0.00  0.00    +0.000 C 
ATOM      6  O   UNL     1       7.526   5.403  20.438  0.00  0.00    +0.000 OA
BRANCH   5   7
ATOM      7  OXT UNL     1       5.613   5.517  19.229  0.00  0.00    +0.000 OA
ATOM      8  HXT UNL     1       5.220   4.791  19.765  0.00  0.00    +0.000 HD
ENDBRANCH   5   7
ENDBRANCH   1   5
BRANCH   1   9
ATOM      9  C   UNL     1       6.709   6.129  16.949  0.00  0.00    +0.000 C 
BRANCH   9  10
ATOM     10  C   UNL     1       6.595   5.343  15.688  0.00  0.00    +0.000 A 
ATOM     11  N   UNL     1       7.418   5.349  14.663  0.00  0.00    +0.000 NA
ATOM     12  N   UNL     1       6.894   4.537  13.685  0.00  0.00    +0.000 NA
ATOM     13  C   UNL     1       5.760   4.054  14.131  0.00  0.00    +0.000 A 
ATOM     14  N   UNL     1       5.541   4.526  15.399  0.00  0.00    +0.000 N 
ATOM     15  H   UNL     1       4.737   4.320  15.972  0.00  0.00    +0.000 HD
ENDBRANCH   9  10
ENDBRANCH   1   9
TORSDOF 5
ENDMDL
MODEL 4
REMARK VINA RESULT:      -4.9      1.389      1.818
REMARK  Name = 
REMARK  5 active torsions:
REMARK  status: ('A' for Active; 'I' for Inactive)
REMARK    1  A    between atoms: N_1  and  CA_2
REMARK    2  A    between atoms: CA_2  and  C_3
REMARK    3  A    between atoms: CA_2  and  C_9
REMARK    4  A    between atoms: C_3  and  C_4
REMARK    5  A    between atoms: C_9  and  OXT_11
REMARK                            x       y       z     vdW  Elec       q    Type
REMARK                         _______ _______ _______ _____ _____    ______ ____
ROOT
ATOM      1  CA  UNL     1       3.920   3.191  19.083  0.00  0.00    +0.000 C 
ENDROOT
BRANCH   1   2
ATOM      2  N   UNL     1       4.874   2.139  19.557  0.00  0.00    +0.000 NA
ATOM      3  H1  UNL     1       4.514   1.230  19.259  0.00  0.00    +0.000 HD
ATOM      4  H2  UNL     1       4.869   2.107  20.582  0.00  0.00    +0.000 HD
ENDBRANCH   1   2
BRANCH   1   5
ATOM      5  C   UNL     1       2.489   2.629  19.195  0.00  0.00    +0.000 C 
ATOM      6  O   UNL     1       1.540   3.189  19.718  0.00  0.00    +0.000 OA
BRANCH   5   7
ATOM      7  OXT UNL     1       2.379   1.414  18.586  0.00  0.00    +0.000 OA
ATOM      8  HXT UNL     1       2.123   0.750  19.267  0.00  0.00    +0.000 HD
ENDBRANCH   5   7
ENDBRANCH   1   5
BRANCH   1   9
ATOM      9  C   UNL     1       4.168   3.660  17.638  0.00  0.00    +0.000 C 
BRANCH   9  10
ATOM     10  C   UNL     1       5.566   4.112  17.388  0.00  0.00    +0.000 A 
ATOM     11  N   UNL     1       6.138   4.339  16.226  0.00  0.00    +0.000 NA
ATOM     12  N   UNL     1       7.455   4.665  16.452  0.00  0.00    +0.000 NA
ATOM     13  C   UNL     1       7.661   4.627  17.745  0.00  0.00    +0.000 A 
ATOM     14  N   UNL     1       6.489   4.296  18.375  0.00  0.00    +0.000 N 
ATOM     15  H   UNL     1       6.367   4.188  19.370  0.00  0.00    +0.000 HD
ENDBRANCH   9  10
ENDBRANCH   1   9
TORSDOF 5
ENDMDL
MODEL 5
REMARK VINA RESULT:      -4.9      2.859      4.023
REMARK  Name = 
REMARK  5 active torsions:
REMARK  status: ('A' for Active; 'I' for Inactive)
REMARK    1  A    between atoms: N_1  and  CA_2
REMARK    2  A    between atoms: CA_2  and  C_3
REMARK    3  A    between atoms: CA_2  and  C_9
REMARK    4  A    between atoms: C_3  and  C_4
REMARK    5  A    between atoms: C_9  and  OXT_11
REMARK                            x       y       z     vdW  Elec       q    Type
REMARK                         _______ _______ _______ _____ _____    ______ ____
ROOT
ATOM      1  CA  UNL     1       6.959   5.346  18.248  0.00  0.00    +0.000 C 
ENDROOT
BRANCH   1   2
ATOM      2  N   UNL     1       7.802   4.168  17.871  0.00  0.00    +0.000 NA
ATOM      3  H1  UNL     1       7.189   3.461  17.460  0.00  0.00    +0.000 HD
ATOM      4  H2  UNL     1       8.183   3.732  18.719  0.00  0.00    +0.000 HD
ENDBRANCH   1   2
BRANCH   1   5
ATOM      5  C   UNL     1       5.717   4.830  18.999  0.00  0.00    +0.000 C 
ATOM      6  O   UNL     1       4.848   5.521  19.506  0.00  0.00    +0.000 OA
BRANCH   5   7
ATOM      7  OXT UNL     1       5.663   3.468  19.001  0.00  0.00    +0.000 OA
ATOM      8  HXT UNL     1       6.580   3.122  18.903  0.00  0.00    +0.000 HD
ENDBRANCH   5   7
ENDBRANCH   1   5
BRANCH   1   9
ATOM      9  C   UNL     1       6.507   6.205  17.053  0.00  0.00    +0.000 C 
BRANCH   9  10
ATOM     10  C   UNL     1       6.406   5.445  15.775  0.00  0.00    +0.000 A 
ATOM     11  N   UNL     1       5.432   4.649  15.392  0.00  0.00    +0.000 NA
ATOM     12  N   UNL     1       5.780   4.095  14.182  0.00  0.00    +0.000 NA
ATOM     13  C   UNL     1       6.960   4.560  13.854  0.00  0.00    +0.000 A 
ATOM     14  N   UNL     1       7.386   5.428  14.825  0.00  0.00    +0.000 N 
ATOM     15  H   UNL     1       8.265   5.921  14.829  0.00  0.00    +0.000 HD
ENDBRANCH   9  10
ENDBRANCH   1   9
TORSDOF 5
ENDMDL
MODEL 6
REMARK VINA RESULT:      -4.9      3.708      4.161
REMARK  Name = 
REMARK  5 active torsions:
REMARK  status: ('A' for Active; 'I' for Inactive)
REMARK    1  A    between atoms: N_1  and  CA_2
REMARK    2  A    between atoms: CA_2  and  C_3
REMARK    3  A    between atoms: CA_2  and  C_9
REMARK    4  A    between atoms: C_3  and  C_4
REMARK    5  A    between atoms: C_9  and  OXT_11
REMARK                            x       y       z     vdW  Elec       q    Type
REMARK                         _______ _______ _______ _____ _____    ______ ____
ROOT
ATOM      1  CA  UNL     1       5.580   4.590  15.451  0.00  0.00    +0.000 C 
ENDROOT
BRANCH   1   2
ATOM      2  N   UNL     1       5.812   3.310  16.192  0.00  0.00    +0.000 NA
ATOM      3  H1  UNL     1       6.821   3.153  16.240  0.00  0.00    +0.000 HD
ATOM      4  H2  UNL     1       5.443   2.525  15.644  0.00  0.00    +0.000 HD
ENDBRANCH   1   2
BRANCH   1   5
ATOM      5  C   UNL     1       6.699   4.751  14.404  0.00  0.00    +0.000 C 
ATOM      6  O   UNL     1       7.702   5.435  14.528  0.00  0.00    +0.000 OA
BRANCH   5   7
ATOM      7  OXT UNL     1       6.467   3.985  13.300  0.00  0.00    +0.000 OA
ATOM      8  HXT UNL     1       5.866   4.484  12.700  0.00  0.00    +0.000 HD
ENDBRANCH   5   7
ENDBRANCH   1   5
BRANCH   1   9
ATOM      9  C   UNL     1       5.545   5.840  16.350  0.00  0.00    +0.000 C 
BRANCH   9  10
ATOM     10  C   UNL     1       6.288   5.676  17.631  0.00  0.00    +0.000 A 
ATOM     11  N   UNL     1       5.787   5.416  18.819  0.00  0.00    +0.000 NA
ATOM     12  N   UNL     1       6.817   5.424  19.730  0.00  0.00    +0.000 NA
ATOM     13  C   UNL     1       7.924   5.692  19.082  0.00  0.00    +0.000 A 
ATOM     14  N   UNL     1       7.637   5.843  17.750  0.00  0.00    +0.000 N 
ATOM     15  H   UNL     1       8.303   6.064  17.026  0.00  0.00    +0.000 HD
ENDBRANCH   9  10
ENDBRANCH   1   9
TORSDOF 5
ENDMDL
MODEL 7
REMARK VINA RESULT:      -4.9      1.706      1.961
REMARK  Name = 
REMARK  5 active torsions:
REMARK  status: ('A' for Active; 'I' for Inactive)
REMARK    1  A    between atoms: N_1  and  CA_2
REMARK    2  A    between atoms: CA_2  and  C_3
REMARK    3  A    between atoms: CA_2  and  C_9
REMARK    4  A    between atoms: C_3  and  C_4
REMARK    5  A    between atoms: C_9  and  OXT_11
REMARK                            x       y       z     vdW  Elec       q    Type
REMARK                         _______ _______ _______ _____ _____    ______ ____
ROOT
ATOM      1  CA  UNL     1       4.016   3.526  18.637  0.00  0.00    +0.000 C 
ENDROOT
BRANCH   1   2
ATOM      2  N   UNL     1       5.419   3.363  19.135  0.00  0.00    +0.000 NA
ATOM      3  H1  UNL     1       5.392   2.761  19.960  0.00  0.00    +0.000 HD
ATOM      4  H2  UNL     1       5.771   4.265  19.472  0.00  0.00    +0.000 HD
ENDBRANCH   1   2
BRANCH   1   5
ATOM      5  C   UNL     1       3.342   2.141  18.634  0.00  0.00    +0.000 C 
ATOM      6  O   UNL     1       2.182   1.908  18.936  0.00  0.00    +0.000 OA
BRANCH   5   7
ATOM      7  OXT UNL     1       4.194   1.169  18.200  0.00  0.00    +0.000 OA
ATOM      8  HXT UNL     1       5.055   1.284  18.664  0.00  0.00    +0.000 HD
ENDBRANCH   5   7
ENDBRANCH   1   5
BRANCH   1   9
ATOM      9  C   UNL     1       3.915   4.142  17.230  0.00  0.00    +0.000 C 
BRANCH   9  10
ATOM     10  C   UNL     1       5.232   4.533  16.653  0.00  0.00    +0.000 A 
ATOM     11  N   UNL     1       5.805   5.716  16.694  0.00  0.00    +0.000 NA
ATOM     12  N   UNL     1       6.974   5.652  15.972  0.00  0.00    +0.000 NA
ATOM     13  C   UNL     1       7.089   4.435  15.502  0.00  0.00    +0.000 A 
ATOM     14  N   UNL     1       6.017   3.690  15.920  0.00  0.00    +0.000 N 
ATOM     15  H   UNL     1       5.849   2.722  15.694  0.00  0.00    +0.000 HD
ENDBRANCH   9  10
ENDBRANCH   1   9
TORSDOF 5
ENDMDL
MODEL 8
REMARK VINA RESULT:      -4.8      3.185      4.588
REMARK  Name = 
REMARK  5 active torsions:
REMARK  status: ('A' for Active; 'I' for Inactive)
REMARK    1  A    between atoms: N_1  and  CA_2
REMARK    2  A    between atoms: CA_2  and  C_3
REMARK    3  A    between atoms: CA_2  and  C_9
REMARK    4  A    between atoms: C_3  and  C_4
REMARK    5  A    between atoms: C_9  and  OXT_11
REMARK                            x       y       z     vdW  Elec       q    Type
REMARK                         _______ _______ _______ _____ _____    ______ ____
ROOT
ATOM      1  CA  UNL     1       6.533   4.536  16.932  0.00  0.00    +0.000 C 
ENDROOT
BRANCH   1   2
ATOM      2  N   UNL     1       7.514   4.304  18.040  0.00  0.00    +0.000 NA
ATOM      3  H1  UNL     1       7.245   3.445  18.523  0.00  0.00    +0.000 HD
ATOM      4  H2  UNL     1       7.422   5.047  18.741  0.00  0.00    +0.000 HD
ENDBRANCH   1   2
BRANCH   1   5
ATOM      5  C   UNL     1       6.973   5.792  16.155  0.00  0.00    +0.000 C 
ATOM      6  O   UNL     1       6.779   6.948  16.495  0.00  0.00    +0.000 OA
BRANCH   5   7
ATOM      7  OXT UNL     1       7.665   5.467  15.027  0.00  0.00    +0.000 OA
ATOM      8  HXT UNL     1       7.838   4.497  15.039  0.00  0.00    +0.000 HD
ENDBRANCH   5   7
ENDBRANCH   1   5
BRANCH   1   9
ATOM      9  C   UNL     1       5.080   4.717  17.406  0.00  0.00    +0.000 C 
BRANCH   9  10
ATOM     10  C   UNL     1       4.572   3.580  18.224  0.00  0.00    +0.000 A 
ATOM     11  N   UNL     1       3.511   2.838  17.993  0.00  0.00    +0.000 NA
ATOM     12  N   UNL     1       3.368   1.955  19.038  0.00  0.00    +0.000 NA
ATOM     13  C   UNL     1       4.341   2.178  19.886  0.00  0.00    +0.000 A 
ATOM     14  N   UNL     1       5.134   3.186  19.404  0.00  0.00    +0.000 N 
ATOM     15  H   UNL     1       5.949   3.565  19.862  0.00  0.00    +0.000 HD
ENDBRANCH   9  10
ENDBRANCH   1   9
TORSDOF 5
ENDMDL
MODEL 9
REMARK VINA RESULT:      -4.8      2.605      3.377
REMARK  Name = 
REMARK  5 active torsions:
REMARK  status: ('A' for Active; 'I' for Inactive)
REMARK    1  A    between atoms: N_1  and  CA_2
REMARK    2  A    between atoms: CA_2  and  C_3
REMARK    3  A    between atoms: CA_2  and  C_9
REMARK    4  A    between atoms: C_3  and  C_4
REMARK    5  A    between atoms: C_9  and  OXT_11
REMARK                            x       y       z     vdW  Elec       q    Type
REMARK                         _______ _______ _______ _____ _____    ______ ____
ROOT
ATOM      1  CA  UNL     1       5.175   5.386  18.750  0.00  0.00    +0.000 C 
ENDROOT
BRANCH   1   2
ATOM      2  N   UNL     1       5.885   4.080  18.565  0.00  0.00    +0.000 NA
ATOM      3  H1  UNL     1       6.784   4.140  19.046  0.00  0.00    +0.000 HD
ATOM      4  H2  UNL     1       6.118   3.953  17.574  0.00  0.00    +0.000 HD
ENDBRANCH   1   2
BRANCH   1   5
ATOM      5  C   UNL     1       3.692   5.091  19.042  0.00  0.00    +0.000 C 
ATOM      6  O   UNL     1       2.928   4.473  18.318  0.00  0.00    +0.000 OA
BRANCH   5   7
ATOM      7  OXT UNL     1       3.316   5.571  20.261  0.00  0.00    +0.000 OA
ATOM      8  HXT UNL     1       3.453   6.547  20.264  0.00  0.00    +0.000 HD
ENDBRANCH   5   7
ENDBRANCH   1   5
BRANCH   1   9
ATOM      9  C   UNL     1       5.274   6.332  17.539  0.00  0.00    +0.000 C 
BRANCH   9  10
ATOM     10  C   UNL     1       6.059   5.770  16.404  0.00  0.00    +0.000 A 
ATOM     11  N   UNL     1       7.346   5.909  16.174  0.00  0.00    +0.000 NA
ATOM     12  N   UNL     1       7.638   5.294  14.980  0.00  0.00    +0.000 NA
ATOM     13  C   UNL     1       6.524   4.795  14.503  0.00  0.00    +0.000 A 
ATOM     14  N   UNL     1       5.504   5.061  15.379  0.00  0.00    +0.000 N 
ATOM     15  H   UNL     1       4.538   4.799  15.254  0.00  0.00    +0.000 HD
ENDBRANCH   9  10
ENDBRANCH   1   9
TORSDOF 5
ENDMDL
