MODEL 1
REMARK VINA RESULT:      -8.4      0.000      0.000
REMARK  Name = 
REMARK  12 active torsions:
REMARK  status: ('A' for Active; 'I' for Inactive)
REMARK    1  A    between atoms: C_1  and  O_2
REMARK    2  A    between atoms: O_2  and  C_3
REMARK    3  A    between atoms: C_3  and  C_4
REMARK    4  A    between atoms: C_4  and  N_5
REMARK    5  A    between atoms: N_5  and  C_19
REMARK    6  A    between atoms: C_6  and  C_8
REMARK    7  A    between atoms: C_8  and  C_9
REMARK    8  A    between atoms: C_9  and  C_10
REMARK    9  A    between atoms: N_12  and  C_13
REMARK   10  A    between atoms: C_19  and  C_20
REMARK   11  A    between atoms: C_19  and  C_29
REMARK   12  A    between atoms: N_22  and  C_23
REMARK                            x       y       z     vdW  Elec       q    Type
REMARK                         _______ _______ _______ _____ _____    ______ ____
ROOT
ATOM      1  N   UNL     1       4.805   6.232  17.273  0.00  0.00    +0.000 N 
ATOM      2  C   UNL     1       5.617   5.861  18.345  0.00  0.00    +0.000 C 
ATOM      3  O   UNL     1       5.186   5.690  19.484  0.00  0.00    +0.000 OA
ENDROOT
BRANCH   1   4
ATOM      4  C   UNL     1       5.313   6.670  15.952  0.00  0.00    +0.000 C 
BRANCH   4   5
ATOM      5  C   UNL     1       5.432   5.541  14.916  0.00  0.00    +0.000 C 
BRANCH   5   7
ATOM      6  C   UNL     1       6.955   4.435  13.487  0.00  0.00    +0.000 C 
ATOM      7  O   UNL     1       6.795   5.428  14.496  0.00  0.00    +0.000 OA
ENDBRANCH   5   7
ENDBRANCH   4   5
ENDBRANCH   1   4
BRANCH   2   8
ATOM      8  C   UNL     1       7.075   5.656  18.013  0.00  0.00    +0.000 C 
BRANCH   8   9
ATOM      9  C   UNL     1       8.092   6.404  18.877  0.00  0.00    +0.000 C 
BRANCH   9  10
ATOM     10  C   UNL     1       8.255   7.790  18.270  0.00  0.00    +0.000 C 
ATOM     11  O   UNL     1       7.937   8.001  17.101  0.00  0.00    +0.000 OA
ATOM     12  N   UNL     1       8.789   8.740  19.120  0.00  0.00    +0.000 N 
ATOM     13  H   UNL     1       9.166   8.419  20.005  0.00  0.00    +0.000 HD
BRANCH  12  14
ATOM     14  C   UNL     1       9.015  10.099  18.770  0.00  0.00    +0.000 A 
ATOM     15  C   UNL     1       8.187  10.826  17.921  0.00  0.00    +0.000 A 
ATOM     16  C   UNL     1       8.497  12.143  17.582  0.00  0.00    +0.000 A 
ATOM     17  C   UNL     1       9.644  12.700  18.113  0.00  0.00    +0.000 A 
ATOM     18  N   UNL     1      10.460  12.050  18.970  0.00  0.00    +0.000 NA
ATOM     19  C   UNL     1      10.124  10.771  19.280  0.00  0.00    +0.000 A 
ENDBRANCH  12  14
ENDBRANCH   9  10
ENDBRANCH   8   9
ENDBRANCH   2   8
BRANCH   1  20
ATOM     20  C   UNL     1       3.336   6.181  17.437  0.00  0.00    +0.000 C 
BRANCH  20  21
ATOM     21  C   UNL     1       2.683   7.264  18.290  0.00  0.00    +0.000 A 
ATOM     22  C   UNL     1       2.198   8.471  17.763  0.00  0.00    +0.000 A 
ATOM     23  C   UNL     1       1.420   9.334  18.541  0.00  0.00    +0.000 A 
ATOM     24  C   UNL     1       1.128   9.015  19.864  0.00  0.00    +0.000 A 
ATOM     25  C   UNL     1       1.630   7.844  20.421  0.00  0.00    +0.000 A 
ATOM     26  C   UNL     1       2.400   6.977  19.641  0.00  0.00    +0.000 A 
ENDBRANCH  20  21
BRANCH  20  27
ATOM     27  C   UNL     1       2.833   4.723  17.646  0.00  0.00    +0.000 C 
ATOM     28  O   UNL     1       3.317   3.795  16.991  0.00  0.00    +0.000 OA
ATOM     29  N   UNL     1       1.911   4.505  18.658  0.00  0.00    +0.000 N 
ATOM     30  H   UNL     1       1.897   5.227  19.380  0.00  0.00    +0.000 HD
BRANCH  29  31
ATOM     31  C   UNL     1       1.553   3.143  19.052  0.00  0.00    +0.000 C 
ATOM     32  C   UNL     1       2.798   2.247  19.161  0.00  0.00    +0.000 C 
ATOM     33  C   UNL     1       3.576   2.459  20.459  0.00  0.00    +0.000 C 
ATOM     34  C   UNL     1       2.679   2.277  21.676  0.00  0.00    +0.000 C 
ATOM     35  C   UNL     1       1.496   3.235  21.628  0.00  0.00    +0.000 C 
ATOM     36  C   UNL     1       0.703   3.106  20.329  0.00  0.00    +0.000 C 
ENDBRANCH  29  31
ENDBRANCH  20  27
ENDBRANCH   1  20
TORSDOF 11
ENDMDL
MODEL 2
REMARK VINA RESULT:      -8.2      1.740      4.532
REMARK  Name = 
REMARK  12 active torsions:
REMARK  status: ('A' for Active; 'I' for Inactive)
REMARK    1  A    between atoms: C_1  and  O_2
REMARK    2  A    between atoms: O_2  and  C_3
REMARK    3  A    between atoms: C_3  and  C_4
REMARK    4  A    between atoms: C_4  and  N_5
REMARK    5  A    between atoms: N_5  and  C_19
REMARK    6  A    between atoms: C_6  and  C_8
REMARK    7  A    between atoms: C_8  and  C_9
REMARK    8  A    between atoms: C_9  and  C_10
REMARK    9  A    between atoms: N_12  and  C_13
REMARK   10  A    between atoms: C_19  and  C_20
REMARK   11  A    between atoms: C_19  and  C_29
REMARK   12  A    between atoms: N_22  and  C_23
REMARK                            x       y       z     vdW  Elec       q    Type
REMARK                         _______ _______ _______ _____ _____    ______ ____
ROOT
ATOM      1  N   UNL     1       6.113   5.949  16.650  0.00  0.00    +0.000 N 
ATOM      2  C   UNL     1       7.235   6.295  17.405  0.00  0.00    +0.000 C 
ATOM      3  O   UNL     1       8.035   5.465  17.833  0.00  0.00    +0.000 OA
ENDROOT
BRANCH   1   4
ATOM      4  C   UNL     1       5.012   6.882  16.316  0.00  0.00    +0.000 C 
BRANCH   4   5
ATOM      5  C   UNL     1       3.971   7.056  17.434  0.00  0.00    +0.000 C 
BRANCH   5   7
ATOM      6  C   UNL     1       2.131   8.368  18.123  0.00  0.00    +0.000 C 
ATOM      7  O   UNL     1       3.115   8.156  17.116  0.00  0.00    +0.000 OA
ENDBRANCH   5   7
ENDBRANCH   4   5
ENDBRANCH   1   4
BRANCH   2   8
ATOM      8  C   UNL     1       7.423   7.773  17.646  0.00  0.00    +0.000 C 
BRANCH   8   9
ATOM      9  C   UNL     1       8.540   8.178  18.609  0.00  0.00    +0.000 C 
BRANCH   9  10
ATOM     10  C   UNL     1       8.690   9.689  18.505  0.00  0.00    +0.000 C 
ATOM     11  O   UNL     1       8.073  10.320  17.649  0.00  0.00    +0.000 OA
ATOM     12  N   UNL     1       9.565  10.252  19.415  0.00  0.00    +0.000 N 
ATOM     13  H   UNL     1      10.142   9.624  19.963  0.00  0.00    +0.000 HD
BRANCH  12  14
ATOM     14  C   UNL     1       9.847  11.642  19.507  0.00  0.00    +0.000 A 
ATOM     15  C   UNL     1       9.185  12.510  20.371  0.00  0.00    +0.000 A 
ATOM     16  C   UNL     1       9.480  13.873  20.372  0.00  0.00    +0.000 A 
ATOM     17  C   UNL     1      10.443  14.333  19.497  0.00  0.00    +0.000 A 
ATOM     18  N   UNL     1      11.140  13.528  18.667  0.00  0.00    +0.000 NA
ATOM     19  C   UNL     1      10.828  12.207  18.695  0.00  0.00    +0.000 A 
ENDBRANCH  12  14
ENDBRANCH   9  10
ENDBRANCH   8   9
ENDBRANCH   2   8
BRANCH   1  20
ATOM     20  C   UNL     1       6.000   4.570  16.128  0.00  0.00    +0.000 C 
BRANCH  20  21
ATOM     21  C   UNL     1       6.422   4.326  14.682  0.00  0.00    +0.000 A 
ATOM     22  C   UNL     1       5.738   3.460  13.816  0.00  0.00    +0.000 A 
ATOM     23  C   UNL     1       6.030   3.432  12.449  0.00  0.00    +0.000 A 
ATOM     24  C   UNL     1       7.023   4.257  11.926  0.00  0.00    +0.000 A 
ATOM     25  C   UNL     1       7.741   5.095  12.771  0.00  0.00    +0.000 A 
ATOM     26  C   UNL     1       7.444   5.130  14.135  0.00  0.00    +0.000 A 
ENDBRANCH  20  21
BRANCH  20  27
ATOM     27  C   UNL     1       4.686   3.885  16.601  0.00  0.00    +0.000 C 
ATOM     28  O   UNL     1       3.772   3.665  15.801  0.00  0.00    +0.000 OA
ATOM     29  N   UNL     1       4.633   3.444  17.915  0.00  0.00    +0.000 N 
ATOM     30  H   UNL     1       5.546   3.298  18.348  0.00  0.00    +0.000 HD
BRANCH  29  31
ATOM     31  C   UNL     1       3.523   2.608  18.370  0.00  0.00    +0.000 C 
ATOM     32  C   UNL     1       3.516   2.472  19.902  0.00  0.00    +0.000 C 
ATOM     33  C   UNL     1       2.937   3.696  20.610  0.00  0.00    +0.000 C 
ATOM     34  C   UNL     1       1.540   4.019  20.096  0.00  0.00    +0.000 C 
ATOM     35  C   UNL     1       1.554   4.258  18.593  0.00  0.00    +0.000 C 
ATOM     36  C   UNL     1       2.169   3.087  17.829  0.00  0.00    +0.000 C 
ENDBRANCH  29  31
ENDBRANCH  20  27
ENDBRANCH   1  20
TORSDOF 11
ENDMDL
MODEL 3
REMARK VINA RESULT:      -8.1      2.445      6.374
REMARK  Name = 
REMARK  12 active torsions:
REMARK  status: ('A' for Active; 'I' for Inactive)
REMARK    1  A    between atoms: C_1  and  O_2
REMARK    2  A    between atoms: O_2  and  C_3
REMARK    3  A    between atoms: C_3  and  C_4
REMARK    4  A    between atoms: C_4  and  N_5
REMARK    5  A    between atoms: N_5  and  C_19
REMARK    6  A    between atoms: C_6  and  C_8
REMARK    7  A    between atoms: C_8  and  C_9
REMARK    8  A    between atoms: C_9  and  C_10
REMARK    9  A    between atoms: N_12  and  C_13
REMARK   10  A    between atoms: C_19  and  C_20
REMARK   11  A    between atoms: C_19  and  C_29
REMARK   12  A    between atoms: N_22  and  C_23
REMARK                            x       y       z     vdW  Elec       q    Type
REMARK                         _______ _______ _______ _____ _____    ______ ____
ROOT
ATOM      1  N   UNL     1       5.499   6.445  17.430  0.00  0.00    +0.000 N 
ATOM      2  C   UNL     1       4.110   6.570  17.453  0.00  0.00    +0.000 C 
ATOM      3  O   UNL     1       3.351   5.664  17.113  0.00  0.00    +0.000 OA
ENDROOT
BRANCH   1   4
ATOM      4  C   UNL     1       6.442   7.574  17.606  0.00  0.00    +0.000 C 
BRANCH   4   5
ATOM      5  C   UNL     1       7.815   7.168  18.168  0.00  0.00    +0.000 C 
BRANCH   5   7
ATOM      6  C   UNL     1       8.032   9.499  17.854  0.00  0.00    +0.000 C 
ATOM      7  O   UNL     1       8.555   8.344  18.503  0.00  0.00    +0.000 OA
ENDBRANCH   5   7
ENDBRANCH   4   5
ENDBRANCH   1   4
BRANCH   2   8
ATOM      8  C   UNL     1       3.586   7.895  17.951  0.00  0.00    +0.000 C 
BRANCH   8   9
ATOM      9  C   UNL     1       2.182   8.296  17.498  0.00  0.00    +0.000 C 
BRANCH   9  10
ATOM     10  C   UNL     1       1.695   9.372  18.459  0.00  0.00    +0.000 C 
ATOM     11  O   UNL     1       2.019  10.547  18.296  0.00  0.00    +0.000 OA
ATOM     12  N   UNL     1       0.905   8.914  19.496  0.00  0.00    +0.000 N 
ATOM     13  H   UNL     1       0.838   7.911  19.627  0.00  0.00    +0.000 HD
BRANCH  12  14
ATOM     14  C   UNL     1       0.331   9.742  20.498  0.00  0.00    +0.000 A 
ATOM     15  C   UNL     1      -0.613  10.730  20.238  0.00  0.00    +0.000 A 
ATOM     16  C   UNL     1      -1.097  11.539  21.266  0.00  0.00    +0.000 A 
ATOM     17  C   UNL     1      -0.613  11.331  22.543  0.00  0.00    +0.000 A 
ATOM     18  N   UNL     1       0.274  10.362  22.854  0.00  0.00    +0.000 NA
ATOM     19  C   UNL     1       0.720   9.591  21.828  0.00  0.00    +0.000 A 
ENDBRANCH  12  14
ENDBRANCH   9  10
ENDBRANCH   8   9
ENDBRANCH   2   8
BRANCH   1  20
ATOM     20  C   UNL     1       6.094   5.107  17.229  0.00  0.00    +0.000 C 
BRANCH  20  21
ATOM     21  C   UNL     1       6.212   4.594  15.797  0.00  0.00    +0.000 A 
ATOM     22  C   UNL     1       5.200   3.866  15.154  0.00  0.00    +0.000 A 
ATOM     23  C   UNL     1       5.262   3.605  13.782  0.00  0.00    +0.000 A 
ATOM     24  C   UNL     1       6.346   4.052  13.031  0.00  0.00    +0.000 A 
ATOM     25  C   UNL     1       7.381   4.742  13.653  0.00  0.00    +0.000 A 
ATOM     26  C   UNL     1       7.314   5.010  15.022  0.00  0.00    +0.000 A 
ENDBRANCH  20  21
BRANCH  20  27
ATOM     27  C   UNL     1       5.598   4.093  18.300  0.00  0.00    +0.000 C 
ATOM     28  O   UNL     1       6.094   4.085  19.431  0.00  0.00    +0.000 OA
ATOM     29  N   UNL     1       4.520   3.287  17.965  0.00  0.00    +0.000 N 
ATOM     30  H   UNL     1       3.943   3.649  17.204  0.00  0.00    +0.000 HD
BRANCH  29  31
ATOM     31  C   UNL     1       3.867   2.466  18.983  0.00  0.00    +0.000 C 
ATOM     32  C   UNL     1       3.550   3.285  20.245  0.00  0.00    +0.000 C 
ATOM     33  C   UNL     1       2.305   4.158  20.096  0.00  0.00    +0.000 C 
ATOM     34  C   UNL     1       1.098   3.330  19.681  0.00  0.00    +0.000 C 
ATOM     35  C   UNL     1       1.364   2.594  18.374  0.00  0.00    +0.000 C 
ATOM     36  C   UNL     1       2.628   1.738  18.443  0.00  0.00    +0.000 C 
ENDBRANCH  29  31
ENDBRANCH  20  27
ENDBRANCH   1  20
TORSDOF 11
ENDMDL
MODEL 4
REMARK VINA RESULT:      -8.1      2.703      6.398
REMARK  Name = 
REMARK  12 active torsions:
REMARK  status: ('A' for Active; 'I' for Inactive)
REMARK    1  A    between atoms: C_1  and  O_2
REMARK    2  A    between atoms: O_2  and  C_3
REMARK    3  A    between atoms: C_3  and  C_4
REMARK    4  A    between atoms: C_4  and  N_5
REMARK    5  A    between atoms: N_5  and  C_19
REMARK    6  A    between atoms: C_6  and  C_8
REMARK    7  A    between atoms: C_8  and  C_9
REMARK    8  A    between atoms: C_9  and  C_10
REMARK    9  A    between atoms: N_12  and  C_13
REMARK   10  A    between atoms: C_19  and  C_20
REMARK   11  A    between atoms: C_19  and  C_29
REMARK   12  A    between atoms: N_22  and  C_23
REMARK                            x       y       z     vdW  Elec       q    Type
REMARK                         _______ _______ _______ _____ _____    ______ ____
ROOT
ATOM      1  N   UNL     1       5.485   6.657  17.399  0.00  0.00    +0.000 N 
ATOM      2  C   UNL     1       4.095   6.711  17.502  0.00  0.00    +0.000 C 
ATOM      3  O   UNL     1       3.368   5.749  17.262  0.00  0.00    +0.000 OA
ENDROOT
BRANCH   1   4
ATOM      4  C   UNL     1       6.374   7.841  17.452  0.00  0.00    +0.000 C 
BRANCH   4   5
ATOM      5  C   UNL     1       7.864   7.504  17.629  0.00  0.00    +0.000 C 
BRANCH   5   7
ATOM      6  C   UNL     1       8.513   9.729  18.089  0.00  0.00    +0.000 C 
ATOM      7  O   UNL     1       8.438   8.396  18.588  0.00  0.00    +0.000 OA
ENDBRANCH   5   7
ENDBRANCH   4   5
ENDBRANCH   1   4
BRANCH   2   8
ATOM      8  C   UNL     1       3.529   8.035  17.957  0.00  0.00    +0.000 C 
BRANCH   8   9
ATOM      9  C   UNL     1       2.104   8.365  17.514  0.00  0.00    +0.000 C 
BRANCH   9  10
ATOM     10  C   UNL     1       1.448   9.125  18.658  0.00  0.00    +0.000 C 
ATOM     11  O   UNL     1       1.508   8.694  19.809  0.00  0.00    +0.000 OA
ATOM     12  N   UNL     1       0.792  10.284  18.288  0.00  0.00    +0.000 N 
ATOM     13  H   UNL     1       0.666  10.457  17.298  0.00  0.00    +0.000 HD
BRANCH  12  14
ATOM     14  C   UNL     1       0.125  11.155  19.192  0.00  0.00    +0.000 A 
ATOM     15  C   UNL     1      -1.255  11.331  19.219  0.00  0.00    +0.000 A 
ATOM     16  C   UNL     1      -1.838  12.242  20.101  0.00  0.00    +0.000 A 
ATOM     17  C   UNL     1      -1.009  12.958  20.942  0.00  0.00    +0.000 A 
ATOM     18  N   UNL     1       0.331  12.796  20.981  0.00  0.00    +0.000 NA
ATOM     19  C   UNL     1       0.863  11.899  20.110  0.00  0.00    +0.000 A 
ENDBRANCH  12  14
ENDBRANCH   9  10
ENDBRANCH   8   9
ENDBRANCH   2   8
BRANCH   1  20
ATOM     20  C   UNL     1       6.140   5.340  17.237  0.00  0.00    +0.000 C 
BRANCH  20  21
ATOM     21  C   UNL     1       6.234   4.768  15.825  0.00  0.00    +0.000 A 
ATOM     22  C   UNL     1       5.173   4.103  15.192  0.00  0.00    +0.000 A 
ATOM     23  C   UNL     1       5.232   3.788  13.831  0.00  0.00    +0.000 A 
ATOM     24  C   UNL     1       6.360   4.117  13.083  0.00  0.00    +0.000 A 
ATOM     25  C   UNL     1       7.440   4.741  13.698  0.00  0.00    +0.000 A 
ATOM     26  C   UNL     1       7.377   5.064  15.055  0.00  0.00    +0.000 A 
ENDBRANCH  20  21
BRANCH  20  27
ATOM     27  C   UNL     1       5.732   4.355  18.369  0.00  0.00    +0.000 C 
ATOM     28  O   UNL     1       6.265   4.425  19.481  0.00  0.00    +0.000 OA
ATOM     29  N   UNL     1       4.688   3.480  18.110  0.00  0.00    +0.000 N 
ATOM     30  H   UNL     1       4.068   3.776  17.354  0.00  0.00    +0.000 HD
BRANCH  29  31
ATOM     31  C   UNL     1       4.112   2.676  19.186  0.00  0.00    +0.000 C 
ATOM     32  C   UNL     1       3.378   3.556  20.211  0.00  0.00    +0.000 C 
ATOM     33  C   UNL     1       1.990   3.991  19.742  0.00  0.00    +0.000 C 
ATOM     34  C   UNL     1       1.136   2.790  19.361  0.00  0.00    +0.000 C 
ATOM     35  C   UNL     1       1.808   1.968  18.270  0.00  0.00    +0.000 C 
ATOM     36  C   UNL     1       3.222   1.542  18.659  0.00  0.00    +0.000 C 
ENDBRANCH  29  31
ENDBRANCH  20  27
ENDBRANCH   1  20
TORSDOF 11
ENDMDL
MODEL 5
REMARK VINA RESULT:      -8.1      5.114      9.643
REMARK  Name = 
REMARK  12 active torsions:
REMARK  status: ('A' for Active; 'I' for Inactive)
REMARK    1  A    between atoms: C_1  and  O_2
REMARK    2  A    between atoms: O_2  and  C_3
REMARK    3  A    between atoms: C_3  and  C_4
REMARK    4  A    between atoms: C_4  and  N_5
REMARK    5  A    between atoms: N_5  and  C_19
REMARK    6  A    between atoms: C_6  and  C_8
REMARK    7  A    between atoms: C_8  and  C_9
REMARK    8  A    between atoms: C_9  and  C_10
REMARK    9  A    between atoms: N_12  and  C_13
REMARK   10  A    between atoms: C_19  and  C_20
REMARK   11  A    between atoms: C_19  and  C_29
REMARK   12  A    between atoms: N_22  and  C_23
REMARK                            x       y       z     vdW  Elec       q    Type
REMARK                         _______ _______ _______ _____ _____    ______ ____
ROOT
ATOM      1  N   UNL     1       0.135  10.705  19.006  0.00  0.00    +0.000 N 
ATOM      2  C   UNL     1       1.334  10.435  18.344  0.00  0.00    +0.000 C 
ATOM      3  O   UNL     1       2.256  11.246  18.273  0.00  0.00    +0.000 OA
ENDROOT
BRANCH   1   4
ATOM      4  C   UNL     1      -1.077   9.857  18.919  0.00  0.00    +0.000 C 
BRANCH   4   5
ATOM      5  C   UNL     1      -2.127  10.359  17.914  0.00  0.00    +0.000 C 
BRANCH   5   7
ATOM      6  C   UNL     1      -2.950   9.857  15.757  0.00  0.00    +0.000 C 
ATOM      7  O   UNL     1      -1.811   9.861  16.611  0.00  0.00    +0.000 OA
ENDBRANCH   5   7
ENDBRANCH   4   5
ENDBRANCH   1   4
BRANCH   2   8
ATOM      8  C   UNL     1       1.442   9.059  17.734  0.00  0.00    +0.000 C 
BRANCH   8   9
ATOM      9  C   UNL     1       2.790   8.351  17.864  0.00  0.00    +0.000 C 
BRANCH   9  10
ATOM     10  C   UNL     1       2.533   7.035  18.585  0.00  0.00    +0.000 C 
ATOM     11  O   UNL     1       2.171   7.028  19.760  0.00  0.00    +0.000 OA
ATOM     12  N   UNL     1       2.757   5.901  17.827  0.00  0.00    +0.000 N 
ATOM     13  H   UNL     1       3.209   6.019  16.927  0.00  0.00    +0.000 HD
BRANCH  12  14
ATOM     14  C   UNL     1       2.566   4.571  18.291  0.00  0.00    +0.000 A 
ATOM     15  C   UNL     1       1.386   3.855  18.122  0.00  0.00    +0.000 A 
ATOM     16  C   UNL     1       1.253   2.570  18.648  0.00  0.00    +0.000 A 
ATOM     17  C   UNL     1       2.323   2.033  19.337  0.00  0.00    +0.000 A 
ATOM     18  N   UNL     1       3.503   2.672  19.495  0.00  0.00    +0.000 NA
ATOM     19  C   UNL     1       3.596   3.919  18.967  0.00  0.00    +0.000 A 
ENDBRANCH  12  14
ENDBRANCH   9  10
ENDBRANCH   8   9
ENDBRANCH   2   8
BRANCH   1  20
ATOM     20  C   UNL     1       0.047  11.905  19.867  0.00  0.00    +0.000 C 
BRANCH  20  21
ATOM     21  C   UNL     1      -0.977  11.888  20.998  0.00  0.00    +0.000 A 
ATOM     22  C   UNL     1      -0.801  11.159  22.184  0.00  0.00    +0.000 A 
ATOM     23  C   UNL     1      -1.658  11.342  23.274  0.00  0.00    +0.000 A 
ATOM     24  C   UNL     1      -2.716  12.245  23.191  0.00  0.00    +0.000 A 
ATOM     25  C   UNL     1      -2.933  12.949  22.012  0.00  0.00    +0.000 A 
ATOM     26  C   UNL     1      -2.073  12.772  20.927  0.00  0.00    +0.000 A 
ENDBRANCH  20  21
BRANCH  20  27
ATOM     27  C   UNL     1       0.155  13.216  19.036  0.00  0.00    +0.000 C 
ATOM     28  O   UNL     1      -0.602  13.415  18.081  0.00  0.00    +0.000 OA
ATOM     29  N   UNL     1       1.052  14.178  19.475  0.00  0.00    +0.000 N 
ATOM     30  H   UNL     1       1.306  14.100  20.461  0.00  0.00    +0.000 HD
BRANCH  29  31
ATOM     31  C   UNL     1       1.057  15.512  18.876  0.00  0.00    +0.000 C 
ATOM     32  C   UNL     1       0.598  16.580  19.881  0.00  0.00    +0.000 C 
ATOM     33  C   UNL     1       1.690  16.979  20.873  0.00  0.00    +0.000 C 
ATOM     34  C   UNL     1       2.950  17.433  20.150  0.00  0.00    +0.000 C 
ATOM     35  C   UNL     1       3.474  16.341  19.228  0.00  0.00    +0.000 C 
ATOM     36  C   UNL     1       2.410  15.862  18.241  0.00  0.00    +0.000 C 
ENDBRANCH  29  31
ENDBRANCH  20  27
ENDBRANCH   1  20
TORSDOF 11
ENDMDL
MODEL 6
REMARK VINA RESULT:      -8.0      5.497      9.963
REMARK  Name = 
REMARK  12 active torsions:
REMARK  status: ('A' for Active; 'I' for Inactive)
REMARK    1  A    between atoms: C_1  and  O_2
REMARK    2  A    between atoms: O_2  and  C_3
REMARK    3  A    between atoms: C_3  and  C_4
REMARK    4  A    between atoms: C_4  and  N_5
REMARK    5  A    between atoms: N_5  and  C_19
REMARK    6  A    between atoms: C_6  and  C_8
REMARK    7  A    between atoms: C_8  and  C_9
REMARK    8  A    between atoms: C_9  and  C_10
REMARK    9  A    between atoms: N_12  and  C_13
REMARK   10  A    between atoms: C_19  and  C_20
REMARK   11  A    between atoms: C_19  and  C_29
REMARK   12  A    between atoms: N_22  and  C_23
REMARK                            x       y       z     vdW  Elec       q    Type
REMARK                         _______ _______ _______ _____ _____    ______ ____
ROOT
ATOM      1  N   UNL     1       0.105  10.972  18.988  0.00  0.00    +0.000 N 
ATOM      2  C   UNL     1       1.316  10.582  18.416  0.00  0.00    +0.000 C 
ATOM      3  O   UNL     1       2.297  11.321  18.357  0.00  0.00    +0.000 OA
ENDROOT
BRANCH   1   4
ATOM      4  C   UNL     1      -1.159  10.207  18.874  0.00  0.00    +0.000 C 
BRANCH   4   5
ATOM      5  C   UNL     1      -1.948  10.481  17.583  0.00  0.00    +0.000 C 
BRANCH   5   7
ATOM      6  C   UNL     1      -4.085  11.223  16.902  0.00  0.00    +0.000 C 
ATOM      7  O   UNL     1      -3.054  11.337  17.879  0.00  0.00    +0.000 OA
ENDBRANCH   5   7
ENDBRANCH   4   5
ENDBRANCH   1   4
BRANCH   2   8
ATOM      8  C   UNL     1       1.358   9.168  17.888  0.00  0.00    +0.000 C 
BRANCH   8   9
ATOM      9  C   UNL     1       2.711   8.457  17.930  0.00  0.00    +0.000 C 
BRANCH   9  10
ATOM     10  C   UNL     1       2.488   7.119  18.622  0.00  0.00    +0.000 C 
ATOM     11  O   UNL     1       2.116   7.078  19.794  0.00  0.00    +0.000 OA
ATOM     12  N   UNL     1       2.752   6.008  17.844  0.00  0.00    +0.000 N 
ATOM     13  H   UNL     1       3.208   6.158  16.951  0.00  0.00    +0.000 HD
BRANCH  12  14
ATOM     14  C   UNL     1       2.599   4.664  18.280  0.00  0.00    +0.000 A 
ATOM     15  C   UNL     1       1.428   3.929  18.122  0.00  0.00    +0.000 A 
ATOM     16  C   UNL     1       1.333   2.629  18.620  0.00  0.00    +0.000 A 
ATOM     17  C   UNL     1       2.430   2.097  19.269  0.00  0.00    +0.000 A 
ATOM     18  N   UNL     1       3.601   2.755  19.414  0.00  0.00    +0.000 NA
ATOM     19  C   UNL     1       3.657   4.016  18.914  0.00  0.00    +0.000 A 
ENDBRANCH  12  14
ENDBRANCH   9  10
ENDBRANCH   8   9
ENDBRANCH   2   8
BRANCH   1  20
ATOM     20  C   UNL     1       0.056  12.223  19.776  0.00  0.00    +0.000 C 
BRANCH  20  21
ATOM     21  C   UNL     1      -0.827  12.238  21.021  0.00  0.00    +0.000 A 
ATOM     22  C   UNL     1      -2.053  12.918  21.087  0.00  0.00    +0.000 A 
ATOM     23  C   UNL     1      -2.922  12.729  22.166  0.00  0.00    +0.000 A 
ATOM     24  C   UNL     1      -2.575  11.870  23.205  0.00  0.00    +0.000 A 
ATOM     25  C   UNL     1      -1.348  11.215  23.181  0.00  0.00    +0.000 A 
ATOM     26  C   UNL     1      -0.483  11.398  22.099  0.00  0.00    +0.000 A 
ENDBRANCH  20  21
BRANCH  20  27
ATOM     27  C   UNL     1      -0.003  13.477  18.857  0.00  0.00    +0.000 C 
ATOM     28  O   UNL     1      -0.546  13.416  17.750  0.00  0.00    +0.000 OA
ATOM     29  N   UNL     1       0.477  14.671  19.375  0.00  0.00    +0.000 N 
ATOM     30  H   UNL     1       0.509  14.706  20.395  0.00  0.00    +0.000 HD
BRANCH  29  31
ATOM     31  C   UNL     1       0.263  15.927  18.657  0.00  0.00    +0.000 C 
ATOM     32  C   UNL     1      -0.847  16.765  19.313  0.00  0.00    +0.000 C 
ATOM     33  C   UNL     1      -0.375  17.513  20.559  0.00  0.00    +0.000 C 
ATOM     34  C   UNL     1       0.839  18.379  20.255  0.00  0.00    +0.000 C 
ATOM     35  C   UNL     1       1.983  17.540  19.701  0.00  0.00    +0.000 C 
ATOM     36  C   UNL     1       1.561  16.727  18.478  0.00  0.00    +0.000 C 
ENDBRANCH  29  31
ENDBRANCH  20  27
ENDBRANCH   1  20
TORSDOF 11
ENDMDL
MODEL 7
REMARK VINA RESULT:      -8.0      1.659      4.367
REMARK  Name = 
REMARK  12 active torsions:
REMARK  status: ('A' for Active; 'I' for Inactive)
REMARK    1  A    between atoms: C_1  and  O_2
REMARK    2  A    between atoms: O_2  and  C_3
REMARK    3  A    between atoms: C_3  and  C_4
REMARK    4  A    between atoms: C_4  and  N_5
REMARK    5  A    between atoms: N_5  and  C_19
REMARK    6  A    between atoms: C_6  and  C_8
REMARK    7  A    between atoms: C_8  and  C_9
REMARK    8  A    between atoms: C_9  and  C_10
REMARK    9  A    between atoms: N_12  and  C_13
REMARK   10  A    between atoms: C_19  and  C_20
REMARK   11  A    between atoms: C_19  and  C_29
REMARK   12  A    between atoms: N_22  and  C_23
REMARK                            x       y       z     vdW  Elec       q    Type
REMARK                         _______ _______ _______ _____ _____    ______ ____
ROOT
ATOM      1  N   UNL     1       6.195   5.731  17.142  0.00  0.00    +0.000 N 
ATOM      2  C   UNL     1       7.319   5.634  17.964  0.00  0.00    +0.000 C 
ATOM      3  O   UNL     1       7.882   4.568  18.203  0.00  0.00    +0.000 OA
ENDROOT
BRANCH   1   4
ATOM      4  C   UNL     1       5.356   6.945  17.014  0.00  0.00    +0.000 C 
BRANCH   4   5
ATOM      5  C   UNL     1       4.198   7.021  18.022  0.00  0.00    +0.000 C 
BRANCH   5   7
ATOM      6  C   UNL     1       2.177   8.193  18.373  0.00  0.00    +0.000 C 
ATOM      7  O   UNL     1       3.077   7.660  17.406  0.00  0.00    +0.000 OA
ENDBRANCH   5   7
ENDBRANCH   4   5
ENDBRANCH   1   4
BRANCH   2   8
ATOM      8  C   UNL     1       7.823   6.939  18.529  0.00  0.00    +0.000 C 
BRANCH   8   9
ATOM      9  C   UNL     1       7.855   8.136  17.579  0.00  0.00    +0.000 C 
BRANCH   9  10
ATOM     10  C   UNL     1       8.616   9.247  18.289  0.00  0.00    +0.000 C 
ATOM     11  O   UNL     1       9.050   9.077  19.427  0.00  0.00    +0.000 OA
ATOM     12  N   UNL     1       8.747  10.418  17.567  0.00  0.00    +0.000 N 
ATOM     13  H   UNL     1       8.212  10.504  16.710  0.00  0.00    +0.000 HD
BRANCH  12  14
ATOM     14  C   UNL     1       9.430  11.576  18.028  0.00  0.00    +0.000 A 
ATOM     15  C   UNL     1      10.815  11.671  18.124  0.00  0.00    +0.000 A 
ATOM     16  C   UNL     1      11.415  12.823  18.632  0.00  0.00    +0.000 A 
ATOM     17  C   UNL     1      10.598  13.861  19.034  0.00  0.00    +0.000 A 
ATOM     18  N   UNL     1       9.252  13.834  18.927  0.00  0.00    +0.000 NA
ATOM     19  C   UNL     1       8.704  12.698  18.425  0.00  0.00    +0.000 A 
ENDBRANCH  12  14
ENDBRANCH   9  10
ENDBRANCH   8   9
ENDBRANCH   2   8
BRANCH   1  20
ATOM     20  C   UNL     1       5.803   4.562  16.325  0.00  0.00    +0.000 C 
BRANCH  20  21
ATOM     21  C   UNL     1       6.207   4.563  14.853  0.00  0.00    +0.000 A 
ATOM     22  C   UNL     1       7.283   5.309  14.351  0.00  0.00    +0.000 A 
ATOM     23  C   UNL     1       7.747   5.114  13.046  0.00  0.00    +0.000 A 
ATOM     24  C   UNL     1       7.132   4.181  12.215  0.00  0.00    +0.000 A 
ATOM     25  C   UNL     1       6.038   3.457  12.678  0.00  0.00    +0.000 A 
ATOM     26  C   UNL     1       5.581   3.647  13.983  0.00  0.00    +0.000 A 
ENDBRANCH  20  21
BRANCH  20  27
ATOM     27  C   UNL     1       4.359   4.090  16.657  0.00  0.00    +0.000 C 
ATOM     28  O   UNL     1       3.531   3.925  15.755  0.00  0.00    +0.000 OA
ATOM     29  N   UNL     1       4.081   3.765  17.977  0.00  0.00    +0.000 N 
ATOM     30  H   UNL     1       4.904   3.539  18.538  0.00  0.00    +0.000 HD
BRANCH  29  31
ATOM     31  C   UNL     1       2.819   3.116  18.329  0.00  0.00    +0.000 C 
ATOM     32  C   UNL     1       3.010   2.098  19.464  0.00  0.00    +0.000 C 
ATOM     33  C   UNL     1       3.105   2.749  20.843  0.00  0.00    +0.000 C 
ATOM     34  C   UNL     1       1.897   3.634  21.118  0.00  0.00    +0.000 C 
ATOM     35  C   UNL     1       1.759   4.714  20.053  0.00  0.00    +0.000 C 
ATOM     36  C   UNL     1       1.708   4.128  18.643  0.00  0.00    +0.000 C 
ENDBRANCH  29  31
ENDBRANCH  20  27
ENDBRANCH   1  20
TORSDOF 11
ENDMDL
MODEL 8
REMARK VINA RESULT:      -8.0      5.378      9.394
REMARK  Name = 
REMARK  12 active torsions:
REMARK  status: ('A' for Active; 'I' for Inactive)
REMARK    1  A    between atoms: C_1  and  O_2
REMARK    2  A    between atoms: O_2  and  C_3
REMARK    3  A    between atoms: C_3  and  C_4
REMARK    4  A    between atoms: C_4  and  N_5
REMARK    5  A    between atoms: N_5  and  C_19
REMARK    6  A    between atoms: C_6  and  C_8
REMARK    7  A    between atoms: C_8  and  C_9
REMARK    8  A    between atoms: C_9  and  C_10
REMARK    9  A    between atoms: N_12  and  C_13
REMARK   10  A    between atoms: C_19  and  C_20
REMARK   11  A    between atoms: C_19  and  C_29
REMARK   12  A    between atoms: N_22  and  C_23
REMARK                            x       y       z     vdW  Elec       q    Type
REMARK                         _______ _______ _______ _____ _____    ______ ____
ROOT
ATOM      1  N   UNL     1      -0.165  10.720  19.856  0.00  0.00    +0.000 N 
ATOM      2  C   UNL     1       0.130   9.517  20.498  0.00  0.00    +0.000 C 
ATOM      3  O   UNL     1      -0.710   8.864  21.114  0.00  0.00    +0.000 OA
ENDROOT
BRANCH   1   4
ATOM      4  C   UNL     1       0.853  11.645  19.306  0.00  0.00    +0.000 C 
BRANCH   4   5
ATOM      5  C   UNL     1       1.574  12.493  20.367  0.00  0.00    +0.000 C 
BRANCH   5   7
ATOM      6  C   UNL     1       3.271  14.112  20.649  0.00  0.00    +0.000 C 
ATOM      7  O   UNL     1       2.442  13.425  19.717  0.00  0.00    +0.000 OA
ENDBRANCH   5   7
ENDBRANCH   4   5
ENDBRANCH   1   4
BRANCH   2   8
ATOM      8  C   UNL     1       1.558   9.045  20.367  0.00  0.00    +0.000 C 
BRANCH   8   9
ATOM      9  C   UNL     1       1.947   8.381  19.045  0.00  0.00    +0.000 C 
BRANCH   9  10
ATOM     10  C   UNL     1       2.124   6.896  19.329  0.00  0.00    +0.000 C 
ATOM     11  O   UNL     1       1.856   6.437  20.438  0.00  0.00    +0.000 OA
ATOM     12  N   UNL     1       2.613   6.154  18.271  0.00  0.00    +0.000 N 
ATOM     13  H   UNL     1       2.954   6.660  17.461  0.00  0.00    +0.000 HD
BRANCH  12  14
ATOM     14  C   UNL     1       2.842   4.752  18.308  0.00  0.00    +0.000 A 
ATOM     15  C   UNL     1       1.944   3.809  17.818  0.00  0.00    +0.000 A 
ATOM     16  C   UNL     1       2.214   2.445  17.932  0.00  0.00    +0.000 A 
ATOM     17  C   UNL     1       3.392   2.061  18.542  0.00  0.00    +0.000 A 
ATOM     18  N   UNL     1       4.313   2.937  19.000  0.00  0.00    +0.000 NA
ATOM     19  C   UNL     1       4.018   4.256  18.868  0.00  0.00    +0.000 A 
ENDBRANCH  12  14
ENDBRANCH   9  10
ENDBRANCH   8   9
ENDBRANCH   2   8
BRANCH   1  20
ATOM     20  C   UNL     1      -1.581  11.114  19.690  0.00  0.00    +0.000 C 
BRANCH  20  21
ATOM     21  C   UNL     1      -2.196  10.965  18.301  0.00  0.00    +0.000 A 
ATOM     22  C   UNL     1      -1.649  10.148  17.300  0.00  0.00    +0.000 A 
ATOM     23  C   UNL     1      -2.358   9.877  16.126  0.00  0.00    +0.000 A 
ATOM     24  C   UNL     1      -3.620  10.430  15.925  0.00  0.00    +0.000 A 
ATOM     25  C   UNL     1      -4.166  11.274  16.886  0.00  0.00    +0.000 A 
ATOM     26  C   UNL     1      -3.462  11.539  18.062  0.00  0.00    +0.000 A 
ENDBRANCH  20  21
BRANCH  20  27
ATOM     27  C   UNL     1      -1.906  12.422  20.466  0.00  0.00    +0.000 C 
ATOM     28  O   UNL     1      -1.697  13.524  19.950  0.00  0.00    +0.000 OA
ATOM     29  N   UNL     1      -2.529  12.295  21.699  0.00  0.00    +0.000 N 
ATOM     30  H   UNL     1      -3.017  11.408  21.836  0.00  0.00    +0.000 HD
BRANCH  29  31
ATOM     31  C   UNL     1      -3.053  13.473  22.387  0.00  0.00    +0.000 C 
ATOM     32  C   UNL     1      -4.450  13.851  21.866  0.00  0.00    +0.000 C 
ATOM     33  C   UNL     1      -5.561  12.973  22.440  0.00  0.00    +0.000 C 
ATOM     34  C   UNL     1      -5.539  12.982  23.963  0.00  0.00    +0.000 C 
ATOM     35  C   UNL     1      -4.191  12.509  24.491  0.00  0.00    +0.000 C 
ATOM     36  C   UNL     1      -3.031  13.318  23.914  0.00  0.00    +0.000 C 
ENDBRANCH  29  31
ENDBRANCH  20  27
ENDBRANCH   1  20
TORSDOF 11
ENDMDL
MODEL 9
REMARK VINA RESULT:      -7.9      5.338      9.945
REMARK  Name = 
REMARK  12 active torsions:
REMARK  status: ('A' for Active; 'I' for Inactive)
REMARK    1  A    between atoms: C_1  and  O_2
REMARK    2  A    between atoms: O_2  and  C_3
REMARK    3  A    between atoms: C_3  and  C_4
REMARK    4  A    between atoms: C_4  and  N_5
REMARK    5  A    between atoms: N_5  and  C_19
REMARK    6  A    between atoms: C_6  and  C_8
REMARK    7  A    between atoms: C_8  and  C_9
REMARK    8  A    between atoms: C_9  and  C_10
REMARK    9  A    between atoms: N_12  and  C_13
REMARK   10  A    between atoms: C_19  and  C_20
REMARK   11  A    between atoms: C_19  and  C_29
REMARK   12  A    between atoms: N_22  and  C_23
REMARK                            x       y       z     vdW  Elec       q    Type
REMARK                         _______ _______ _______ _____ _____    ______ ____
ROOT
ATOM      1  N   UNL     1       0.094  10.779  18.864  0.00  0.00    +0.000 N 
ATOM      2  C   UNL     1       1.339  10.465  18.318  0.00  0.00    +0.000 C 
ATOM      3  O   UNL     1       2.302  11.228  18.365  0.00  0.00    +0.000 OA
ENDROOT
BRANCH   1   4
ATOM      4  C   UNL     1      -1.142   9.997  18.629  0.00  0.00    +0.000 C 
BRANCH   4   5
ATOM      5  C   UNL     1      -1.893  10.375  17.341  0.00  0.00    +0.000 C 
BRANCH   5   7
ATOM      6  C   UNL     1      -4.056  11.255  16.979  0.00  0.00    +0.000 C 
ATOM      7  O   UNL     1      -3.297  10.188  17.541  0.00  0.00    +0.000 OA
ENDBRANCH   5   7
ENDBRANCH   4   5
ENDBRANCH   1   4
BRANCH   2   8
ATOM      8  C   UNL     1       1.442   9.102  17.678  0.00  0.00    +0.000 C 
BRANCH   8   9
ATOM      9  C   UNL     1       2.699   8.288  17.986  0.00  0.00    +0.000 C 
BRANCH   9  10
ATOM     10  C   UNL     1       2.321   7.272  19.054  0.00  0.00    +0.000 C 
ATOM     11  O   UNL     1       2.004   7.643  20.183  0.00  0.00    +0.000 OA
ATOM     12  N   UNL     1       2.387   5.952  18.653  0.00  0.00    +0.000 N 
ATOM     13  H   UNL     1       2.816   5.754  17.756  0.00  0.00    +0.000 HD
BRANCH  12  14
ATOM     14  C   UNL     1       2.064   4.841  19.479  0.00  0.00    +0.000 A 
ATOM     15  C   UNL     1       2.464   4.723  20.807  0.00  0.00    +0.000 A 
ATOM     16  C   UNL     1       2.152   3.580  21.544  0.00  0.00    +0.000 A 
ATOM     17  C   UNL     1       1.437   2.577  20.920  0.00  0.00    +0.000 A 
ATOM     18  N   UNL     1       0.993   2.659  19.648  0.00  0.00    +0.000 NA
ATOM     19  C   UNL     1       1.313   3.787  18.962  0.00  0.00    +0.000 A 
ENDBRANCH  12  14
ENDBRANCH   9  10
ENDBRANCH   8   9
ENDBRANCH   2   8
BRANCH   1  20
ATOM     20  C   UNL     1      -0.023  11.958  19.749  0.00  0.00    +0.000 C 
BRANCH  20  21
ATOM     21  C   UNL     1      -1.012  11.875  20.908  0.00  0.00    +0.000 A 
ATOM     22  C   UNL     1      -0.723  11.231  22.121  0.00  0.00    +0.000 A 
ATOM     23  C   UNL     1      -1.571  11.364  23.225  0.00  0.00    +0.000 A 
ATOM     24  C   UNL     1      -2.730  12.130  23.132  0.00  0.00    +0.000 A 
ATOM     25  C   UNL     1      -3.057  12.745  21.928  0.00  0.00    +0.000 A 
ATOM     26  C   UNL     1      -2.206  12.619  20.828  0.00  0.00    +0.000 A 
ENDBRANCH  20  21
BRANCH  20  27
ATOM     27  C   UNL     1       0.002  13.286  18.940  0.00  0.00    +0.000 C 
ATOM     28  O   UNL     1      -0.575  13.366  17.851  0.00  0.00    +0.000 OA
ATOM     29  N   UNL     1       0.600  14.386  19.537  0.00  0.00    +0.000 N 
ATOM     30  H   UNL     1       0.664  14.332  20.554  0.00  0.00    +0.000 HD
BRANCH  29  31
ATOM     31  C   UNL     1       0.476  15.713  18.933  0.00  0.00    +0.000 C 
ATOM     32  C   UNL     1      -0.161  16.715  19.910  0.00  0.00    +0.000 C 
ATOM     33  C   UNL     1       0.822  17.240  20.956  0.00  0.00    +0.000 C 
ATOM     34  C   UNL     1       2.055  17.845  20.298  0.00  0.00    +0.000 C 
ATOM     35  C   UNL     1       2.753  16.826  19.408  0.00  0.00    +0.000 C 
ATOM     36  C   UNL     1       1.808  16.225  18.369  0.00  0.00    +0.000 C 
ENDBRANCH  29  31
ENDBRANCH  20  27
ENDBRANCH   1  20
TORSDOF 11
ENDMDL
