MODEL 1
REMARK VINA RESULT:      -7.2      0.000      0.000
REMARK  Name = 
REMARK  5 active torsions:
REMARK  status: ('A' for Active; 'I' for Inactive)
REMARK    1  A    between atoms: C_1  and  N_2
REMARK    2  A    between atoms: C_6  and  C_7
REMARK    3  A    between atoms: C_7  and  N_8
REMARK    4  A    between atoms: N_8  and  C_9
REMARK    5  A    between atoms: C_23  and  C_24
REMARK                            x       y       z     vdW  Elec       q    Type
REMARK                         _______ _______ _______ _____ _____    ______ ____
ROOT
ATOM      1  C   UNL     1       1.744   9.348  18.649  0.00  0.00    +0.000 A 
ATOM      2  C   UNL     1       1.796  10.668  18.162  0.00  0.00    +0.000 A 
ATOM      3  C   UNL     1       1.071  11.694  18.823  0.00  0.00    +0.000 A 
ATOM      4  C   UNL     1      -0.099  11.220  19.438  0.00  0.00    +0.000 A 
ATOM      5  C   UNL     1      -0.021  10.028  20.149  0.00  0.00    +0.000 A 
ATOM      6  C   UNL     1       1.017   9.161  19.843  0.00  0.00    +0.000 A 
ATOM      7 CL   UNL     1       1.240   7.733  20.790  0.00  0.00    +0.000 Cl
ATOM      8  N   UNL     1      -1.353  11.818  19.165  0.00  0.00    +0.000 N 
ATOM      9  C   UNL     1      -2.182  12.167  20.225  0.00  0.00    +0.000 C 
ATOM     10  O   UNL     1      -1.854  12.026  21.394  0.00  0.00    +0.000 OA
ATOM     11  N   UNL     1      -3.370  12.763  19.826  0.00  0.00    +0.000 N 
ATOM     12  C   UNL     1      -3.847  13.743  20.718  0.00  0.00    +0.000 A 
ATOM     13  C   UNL     1      -5.131  13.829  21.196  0.00  0.00    +0.000 A 
ATOM     14  N   UNL     1      -5.459  14.678  22.225  0.00  0.00    +0.000 NA
ATOM     15  C   UNL     1      -4.434  15.416  22.772  0.00  0.00    +0.000 A 
ATOM     16  C   UNL     1      -3.158  15.375  22.255  0.00  0.00    +0.000 A 
ATOM     17  N   UNL     1      -2.919  14.588  21.178  0.00  0.00    +0.000 NA
ATOM     18  O   UNL     1      -2.039  16.032  22.809  0.00  0.00    +0.000 OA
ATOM     19  C   UNL     1      -0.913  15.521  22.083  0.00  0.00    +0.000 C 
ATOM     20  C   UNL     1       0.573  15.858  22.266  0.00  0.00    +0.000 C 
ATOM     21  C   UNL     1       1.179  15.147  21.004  0.00  0.00    +0.000 C 
ATOM     22  C   UNL     1       2.544  14.468  20.958  0.00  0.00    +0.000 C 
ATOM     23  C   UNL     1       2.597  13.473  19.724  0.00  0.00    +0.000 C 
ATOM     24  O   UNL     1       1.828  12.276  19.959  0.00  0.00    +0.000 OA
ATOM     25  H   UNL     1      -1.845  11.399  18.383  0.00  0.00    +0.000 HD
ATOM     26  H   UNL     1      -4.031  12.175  19.343  0.00  0.00    +0.000 HD
ENDROOT
BRANCH   1  27
ATOM     27  N   UNL     1       2.036   8.185  17.920  0.00  0.00    +0.000 N 
ATOM     28  H   UNL     1       1.233   7.553  17.973  0.00  0.00    +0.000 HD
BRANCH  27  29
ATOM     29  C   UNL     1       3.272   7.427  17.913  0.00  0.00    +0.000 C 
BRANCH  29  35
ATOM     30  C   UNL     1       5.624   5.440  18.843  0.00  0.00    +0.000 C 
ATOM     31  N   UNL     1       4.244   5.118  18.580  0.00  0.00    +0.000 N 
ATOM     32  C   UNL     1       3.738   3.845  18.651  0.00  0.00    +0.000 A 
ATOM     33  N   UNL     1       2.467   3.811  18.334  0.00  0.00    +0.000 NA
ATOM     34  C   UNL     1       2.139   5.107  18.049  0.00  0.00    +0.000 A 
ATOM     35  C   UNL     1       3.219   5.960  18.207  0.00  0.00    +0.000 A 
ENDBRANCH  29  35
ENDBRANCH  27  29
ENDBRANCH   1  27
BRANCH  15  36
ATOM     36  C   UNL     1      -4.748  16.198  23.919  0.00  0.00    +0.000 C 
ATOM     37  N   UNL     1      -4.977  16.828  24.872  0.00  0.00    +0.000 NA
ENDBRANCH  15  36
TORSDOF 4
ENDMDL
MODEL 2
REMARK VINA RESULT:      -7.1      2.393      3.633
REMARK  Name = 
REMARK  5 active torsions:
REMARK  status: ('A' for Active; 'I' for Inactive)
REMARK    1  A    between atoms: C_1  and  N_2
REMARK    2  A    between atoms: C_6  and  C_7
REMARK    3  A    between atoms: C_7  and  N_8
REMARK    4  A    between atoms: N_8  and  C_9
REMARK    5  A    between atoms: C_23  and  C_24
REMARK                            x       y       z     vdW  Elec       q    Type
REMARK                         _______ _______ _______ _____ _____    ______ ____
ROOT
ATOM      1  C   UNL     1       1.324   9.988  18.209  0.00  0.00    +0.000 A 
ATOM      2  C   UNL     1       0.097   9.313  18.362  0.00  0.00    +0.000 A 
ATOM      3  C   UNL     1      -1.013   9.988  18.934  0.00  0.00    +0.000 A 
ATOM      4  C   UNL     1      -0.631  10.967  19.866  0.00  0.00    +0.000 A 
ATOM      5  C   UNL     1       0.432  11.798  19.534  0.00  0.00    +0.000 A 
ATOM      6  C   UNL     1       1.326  11.350  18.573  0.00  0.00    +0.000 A 
ATOM      7 CL   UNL     1       2.584  12.400  18.025  0.00  0.00    +0.000 Cl
ATOM      8  N   UNL     1      -1.165  10.966  21.177  0.00  0.00    +0.000 N 
ATOM      9  C   UNL     1      -1.670  12.149  21.704  0.00  0.00    +0.000 C 
ATOM     10  O   UNL     1      -1.719  13.188  21.063  0.00  0.00    +0.000 OA
ATOM     11  N   UNL     1      -2.183  12.010  22.986  0.00  0.00    +0.000 N 
ATOM     12  C   UNL     1      -3.287  12.842  23.253  0.00  0.00    +0.000 A 
ATOM     13  C   UNL     1      -3.435  13.639  24.362  0.00  0.00    +0.000 A 
ATOM     14  N   UNL     1      -4.432  14.580  24.443  0.00  0.00    +0.000 NA
ATOM     15  C   UNL     1      -5.259  14.704  23.348  0.00  0.00    +0.000 A 
ATOM     16  C   UNL     1      -5.149  13.867  22.261  0.00  0.00    +0.000 A 
ATOM     17  N   UNL     1      -4.203  12.896  22.282  0.00  0.00    +0.000 NA
ATOM     18  O   UNL     1      -5.896  13.984  21.070  0.00  0.00    +0.000 OA
ATOM     19  C   UNL     1      -5.288  13.060  20.159  0.00  0.00    +0.000 C 
ATOM     20  C   UNL     1      -5.665  12.771  18.699  0.00  0.00    +0.000 C 
ATOM     21  C   UNL     1      -4.769  11.512  18.422  0.00  0.00    +0.000 C 
ATOM     22  C   UNL     1      -4.105  11.192  17.086  0.00  0.00    +0.000 C 
ATOM     23  C   UNL     1      -2.928  10.155  17.318  0.00  0.00    +0.000 C 
ATOM     24  O   UNL     1      -1.776  10.769  17.929  0.00  0.00    +0.000 OA
ATOM     25  H   UNL     1      -0.623  10.422  21.840  0.00  0.00    +0.000 HD
ATOM     26  H   UNL     1      -1.519  11.823  23.721  0.00  0.00    +0.000 HD
ENDROOT
BRANCH   1  27
ATOM     27  N   UNL     1       2.585   9.388  18.065  0.00  0.00    +0.000 N 
ATOM     28  H   UNL     1       3.255  10.101  17.766  0.00  0.00    +0.000 HD
BRANCH  27  29
ATOM     29  C   UNL     1       2.898   8.114  17.449  0.00  0.00    +0.000 C 
BRANCH  29  35
ATOM     30  C   UNL     1       4.948   5.680  16.984  0.00  0.00    +0.000 C 
ATOM     31  N   UNL     1       4.065   5.894  18.103  0.00  0.00    +0.000 N 
ATOM     32  C   UNL     1       3.945   5.016  19.150  0.00  0.00    +0.000 A 
ATOM     33  N   UNL     1       3.055   5.420  20.022  0.00  0.00    +0.000 NA
ATOM     34  C   UNL     1       2.582   6.602  19.522  0.00  0.00    +0.000 A 
ATOM     35  C   UNL     1       3.201   6.943  18.331  0.00  0.00    +0.000 A 
ENDBRANCH  29  35
ENDBRANCH  27  29
ENDBRANCH   1  27
BRANCH  15  36
ATOM     36  C   UNL     1      -6.209  15.763  23.380  0.00  0.00    +0.000 C 
ATOM     37  N   UNL     1      -7.000  16.616  23.434  0.00  0.00    +0.000 NA
ENDBRANCH  15  36
TORSDOF 4
ENDMDL
MODEL 3
REMARK VINA RESULT:      -7.0      4.982      6.647
REMARK  Name = 
REMARK  5 active torsions:
REMARK  status: ('A' for Active; 'I' for Inactive)
REMARK    1  A    between atoms: C_1  and  N_2
REMARK    2  A    between atoms: C_6  and  C_7
REMARK    3  A    between atoms: C_7  and  N_8
REMARK    4  A    between atoms: N_8  and  C_9
REMARK    5  A    between atoms: C_23  and  C_24
REMARK                            x       y       z     vdW  Elec       q    Type
REMARK                         _______ _______ _______ _____ _____    ______ ____
ROOT
ATOM      1  C   UNL     1       5.395  15.450  18.377  0.00  0.00    +0.000 A 
ATOM      2  C   UNL     1       4.225  15.370  17.599  0.00  0.00    +0.000 A 
ATOM      3  C   UNL     1       2.980  15.090  18.223  0.00  0.00    +0.000 A 
ATOM      4  C   UNL     1       3.117  14.288  19.368  0.00  0.00    +0.000 A 
ATOM      5  C   UNL     1       4.143  14.593  20.254  0.00  0.00    +0.000 A 
ATOM      6  C   UNL     1       5.218  15.322  19.770  0.00  0.00    +0.000 A 
ATOM      7 CL   UNL     1       6.452  15.846  20.861  0.00  0.00    +0.000 Cl
ATOM      8  N   UNL     1       2.377  13.089  19.504  0.00  0.00    +0.000 N 
ATOM      9  C   UNL     1       1.691  12.847  20.689  0.00  0.00    +0.000 C 
ATOM     10  O   UNL     1       1.656  13.652  21.607  0.00  0.00    +0.000 OA
ATOM     11  N   UNL     1       0.988  11.650  20.688  0.00  0.00    +0.000 N 
ATOM     12  C   UNL     1      -0.213  11.692  21.421  0.00  0.00    +0.000 A 
ATOM     13  C   UNL     1      -0.611  10.765  22.354  0.00  0.00    +0.000 A 
ATOM     14  N   UNL     1      -1.687  10.991  23.177  0.00  0.00    +0.000 NA
ATOM     15  C   UNL     1      -2.330  12.201  23.041  0.00  0.00    +0.000 A 
ATOM     16  C   UNL     1      -1.970  13.105  22.067  0.00  0.00    +0.000 A 
ATOM     17  N   UNL     1      -0.959  12.783  21.223  0.00  0.00    +0.000 NA
ATOM     18  O   UNL     1      -2.519  14.396  21.918  0.00  0.00    +0.000 OA
ATOM     19  C   UNL     1      -1.691  15.041  20.941  0.00  0.00    +0.000 C 
ATOM     20  C   UNL     1      -1.796  16.471  20.396  0.00  0.00    +0.000 C 
ATOM     21  C   UNL     1      -0.760  16.399  19.218  0.00  0.00    +0.000 C 
ATOM     22  C   UNL     1       0.140  17.549  18.777  0.00  0.00    +0.000 C 
ATOM     23  C   UNL     1       1.350  16.976  17.927  0.00  0.00    +0.000 C 
ATOM     24  O   UNL     1       2.327  16.313  18.752  0.00  0.00    +0.000 OA
ATOM     25  H   UNL     1       2.848  12.271  19.131  0.00  0.00    +0.000 HD
ATOM     26  H   UNL     1       1.536  10.804  20.689  0.00  0.00    +0.000 HD
ENDROOT
BRANCH   1  27
ATOM     27  N   UNL     1       6.711  15.304  17.909  0.00  0.00    +0.000 N 
ATOM     28  H   UNL     1       6.790  15.768  17.001  0.00  0.00    +0.000 HD
BRANCH  27  29
ATOM     29  C   UNL     1       7.538  14.114  17.940  0.00  0.00    +0.000 C 
BRANCH  29  35
ATOM     30  C   UNL     1       9.858  11.887  17.951  0.00  0.00    +0.000 C 
ATOM     31  N   UNL     1       9.968  13.283  18.291  0.00  0.00    +0.000 N 
ATOM     32  C   UNL     1      11.129  13.864  18.732  0.00  0.00    +0.000 A 
ATOM     33  N   UNL     1      10.962  15.135  19.006  0.00  0.00    +0.000 NA
ATOM     34  C   UNL     1       9.645  15.384  18.733  0.00  0.00    +0.000 A 
ATOM     35  C   UNL     1       8.991  14.256  18.266  0.00  0.00    +0.000 A 
ENDBRANCH  29  35
ENDBRANCH  27  29
ENDBRANCH   1  27
BRANCH  15  36
ATOM     36  C   UNL     1      -3.361  12.487  23.978  0.00  0.00    +0.000 C 
ATOM     37  N   UNL     1      -4.184  12.738  24.764  0.00  0.00    +0.000 NA
ENDBRANCH  15  36
TORSDOF 4
ENDMDL
MODEL 4
REMARK VINA RESULT:      -6.9      0.428      1.046
REMARK  Name = 
REMARK  5 active torsions:
REMARK  status: ('A' for Active; 'I' for Inactive)
REMARK    1  A    between atoms: C_1  and  N_2
REMARK    2  A    between atoms: C_6  and  C_7
REMARK    3  A    between atoms: C_7  and  N_8
REMARK    4  A    between atoms: N_8  and  C_9
REMARK    5  A    between atoms: C_23  and  C_24
REMARK                            x       y       z     vdW  Elec       q    Type
REMARK                         _______ _______ _______ _____ _____    ______ ____
ROOT
ATOM      1  C   UNL     1       1.720   9.123  18.744  0.00  0.00    +0.000 A 
ATOM      2  C   UNL     1       1.744  10.399  18.151  0.00  0.00    +0.000 A 
ATOM      3  C   UNL     1       1.029  11.470  18.750  0.00  0.00    +0.000 A 
ATOM      4  C   UNL     1      -0.117  11.037  19.438  0.00  0.00    +0.000 A 
ATOM      5  C   UNL     1      -0.005   9.908  20.239  0.00  0.00    +0.000 A 
ATOM      6  C   UNL     1       1.032   9.027  19.972  0.00  0.00    +0.000 A 
ATOM      7 CL   UNL     1       1.299   7.682  21.023  0.00  0.00    +0.000 Cl
ATOM      8  N   UNL     1      -1.385  11.601  19.157  0.00  0.00    +0.000 N 
ATOM      9  C   UNL     1      -2.185  12.028  20.210  0.00  0.00    +0.000 C 
ATOM     10  O   UNL     1      -1.820  11.985  21.376  0.00  0.00    +0.000 OA
ATOM     11  N   UNL     1      -3.391  12.580  19.802  0.00  0.00    +0.000 N 
ATOM     12  C   UNL     1      -3.850  13.625  20.627  0.00  0.00    +0.000 A 
ATOM     13  C   UNL     1      -5.121  13.740  21.137  0.00  0.00    +0.000 A 
ATOM     14  N   UNL     1      -5.426  14.666  22.104  0.00  0.00    +0.000 NA
ATOM     15  C   UNL     1      -4.392  15.454  22.557  0.00  0.00    +0.000 A 
ATOM     16  C   UNL     1      -3.132  15.382  22.006  0.00  0.00    +0.000 A 
ATOM     17  N   UNL     1      -2.918  14.512  20.989  0.00  0.00    +0.000 NA
ATOM     18  O   UNL     1      -2.004  16.090  22.469  0.00  0.00    +0.000 OA
ATOM     19  C   UNL     1      -0.895  15.531  21.752  0.00  0.00    +0.000 C 
ATOM     20  C   UNL     1       0.592  15.894  21.861  0.00  0.00    +0.000 C 
ATOM     21  C   UNL     1       1.166  15.088  20.642  0.00  0.00    +0.000 C 
ATOM     22  C   UNL     1       2.537  14.419  20.608  0.00  0.00    +0.000 C 
ATOM     23  C   UNL     1       2.562  13.327  19.457  0.00  0.00    +0.000 C 
ATOM     24  O   UNL     1       1.814  12.148  19.811  0.00  0.00    +0.000 OA
ATOM     25  H   UNL     1      -1.897  11.117  18.426  0.00  0.00    +0.000 HD
ATOM     26  H   UNL     1      -4.060  11.950  19.389  0.00  0.00    +0.000 HD
ENDROOT
BRANCH   1  27
ATOM     27  N   UNL     1       2.002   7.906  18.102  0.00  0.00    +0.000 N 
ATOM     28  H   UNL     1       1.431   7.171  18.525  0.00  0.00    +0.000 HD
BRANCH  27  29
ATOM     29  C   UNL     1       3.299   7.380  17.725  0.00  0.00    +0.000 C 
BRANCH  29  35
ATOM     30  C   UNL     1       1.669   4.608  17.722  0.00  0.00    +0.000 C 
ATOM     31  N   UNL     1       2.985   4.862  18.252  0.00  0.00    +0.000 N 
ATOM     32  C   UNL     1       3.734   3.914  18.901  0.00  0.00    +0.000 A 
ATOM     33  N   UNL     1       4.878   4.401  19.317  0.00  0.00    +0.000 NA
ATOM     34  C   UNL     1       4.867   5.711  18.923  0.00  0.00    +0.000 A 
ATOM     35  C   UNL     1       3.708   6.036  18.238  0.00  0.00    +0.000 A 
ENDBRANCH  29  35
ENDBRANCH  27  29
ENDBRANCH   1  27
BRANCH  15  36
ATOM     36  C   UNL     1      -4.679  16.323  23.647  0.00  0.00    +0.000 C 
ATOM     37  N   UNL     1      -4.882  17.035  24.547  0.00  0.00    +0.000 NA
ENDBRANCH  15  36
TORSDOF 4
ENDMDL
MODEL 5
REMARK VINA RESULT:      -6.8      2.299      3.619
REMARK  Name = 
REMARK  5 active torsions:
REMARK  status: ('A' for Active; 'I' for Inactive)
REMARK    1  A    between atoms: C_1  and  N_2
REMARK    2  A    between atoms: C_6  and  C_7
REMARK    3  A    between atoms: C_7  and  N_8
REMARK    4  A    between atoms: N_8  and  C_9
REMARK    5  A    between atoms: C_23  and  C_24
REMARK                            x       y       z     vdW  Elec       q    Type
REMARK                         _______ _______ _______ _____ _____    ______ ____
ROOT
ATOM      1  C   UNL     1       1.243   9.920  18.304  0.00  0.00    +0.000 A 
ATOM      2  C   UNL     1      -0.013   9.331  18.542  0.00  0.00    +0.000 A 
ATOM      3  C   UNL     1      -1.052  10.097  19.135  0.00  0.00    +0.000 A 
ATOM      4  C   UNL     1      -0.565  11.086  20.005  0.00  0.00    +0.000 A 
ATOM      5  C   UNL     1       0.530  11.835  19.589  0.00  0.00    +0.000 A 
ATOM      6  C   UNL     1       1.347  11.293  18.609  0.00  0.00    +0.000 A 
ATOM      7 CL   UNL     1       2.638  12.239  17.959  0.00  0.00    +0.000 Cl
ATOM      8  N   UNL     1      -1.034  11.172  21.338  0.00  0.00    +0.000 N 
ATOM      9  C   UNL     1      -1.439  12.404  21.837  0.00  0.00    +0.000 C 
ATOM     10  O   UNL     1      -1.456  13.418  21.155  0.00  0.00    +0.000 OA
ATOM     11  N   UNL     1      -1.896  12.350  23.146  0.00  0.00    +0.000 N 
ATOM     12  C   UNL     1      -2.933  13.260  23.428  0.00  0.00    +0.000 A 
ATOM     13  C   UNL     1      -2.978  14.109  24.507  0.00  0.00    +0.000 A 
ATOM     14  N   UNL     1      -3.911  15.113  24.593  0.00  0.00    +0.000 NA
ATOM     15  C   UNL     1      -4.780  15.246  23.533  0.00  0.00    +0.000 A 
ATOM     16  C   UNL     1      -4.775  14.360  22.479  0.00  0.00    +0.000 A 
ATOM     17  N   UNL     1      -3.891  13.333  22.498  0.00  0.00    +0.000 NA
ATOM     18  O   UNL     1      -5.571  14.476  21.320  0.00  0.00    +0.000 OA
ATOM     19  C   UNL     1      -5.065  13.480  20.422  0.00  0.00    +0.000 C 
ATOM     20  C   UNL     1      -5.530  13.158  18.995  0.00  0.00    +0.000 C 
ATOM     21  C   UNL     1      -4.727  11.834  18.731  0.00  0.00    +0.000 C 
ATOM     22  C   UNL     1      -4.150  11.419  17.381  0.00  0.00    +0.000 C 
ATOM     23  C   UNL     1      -3.028  10.320  17.603  0.00  0.00    +0.000 C 
ATOM     24  O   UNL     1      -1.813  10.884  18.134  0.00  0.00    +0.000 OA
ATOM     25  H   UNL     1      -0.495  10.622  21.999  0.00  0.00    +0.000 HD
ATOM     26  H   UNL     1      -1.211  12.150  23.856  0.00  0.00    +0.000 HD
ENDROOT
BRANCH   1  27
ATOM     27  N   UNL     1       2.457   9.237  18.128  0.00  0.00    +0.000 N 
ATOM     28  H   UNL     1       3.196   9.921  17.949  0.00  0.00    +0.000 HD
BRANCH  27  29
ATOM     29  C   UNL     1       2.694   8.029  17.362  0.00  0.00    +0.000 C 
BRANCH  29  35
ATOM     30  C   UNL     1       2.131   6.388  20.070  0.00  0.00    +0.000 C 
ATOM     31  N   UNL     1       3.242   6.248  19.164  0.00  0.00    +0.000 N 
ATOM     32  C   UNL     1       4.285   5.382  19.375  0.00  0.00    +0.000 A 
ATOM     33  N   UNL     1       5.185   5.467  18.426  0.00  0.00    +0.000 NA
ATOM     34  C   UNL     1       4.708   6.421  17.571  0.00  0.00    +0.000 A 
ATOM     35  C   UNL     1       3.485   6.924  17.987  0.00  0.00    +0.000 A 
ENDBRANCH  29  35
ENDBRANCH  27  29
ENDBRANCH   1  27
BRANCH  15  36
ATOM     36  C   UNL     1      -5.661  16.363  23.563  0.00  0.00    +0.000 C 
ATOM     37  N   UNL     1      -6.393  17.269  23.558  0.00  0.00    +0.000 NA
ENDBRANCH  15  36
TORSDOF 4
ENDMDL
MODEL 6
REMARK VINA RESULT:      -6.8      0.902      1.297
REMARK  Name = 
REMARK  5 active torsions:
REMARK  status: ('A' for Active; 'I' for Inactive)
REMARK    1  A    between atoms: C_1  and  N_2
REMARK    2  A    between atoms: C_6  and  C_7
REMARK    3  A    between atoms: C_7  and  N_8
REMARK    4  A    between atoms: N_8  and  C_9
REMARK    5  A    between atoms: C_23  and  C_24
REMARK                            x       y       z     vdW  Elec       q    Type
REMARK                         _______ _______ _______ _____ _____    ______ ____
ROOT
ATOM      1  C   UNL     1       1.811   9.281  18.670  0.00  0.00    +0.000 A 
ATOM      2  C   UNL     1       1.842  10.590  18.154  0.00  0.00    +0.000 A 
ATOM      3  C   UNL     1       1.101  11.619  18.793  0.00  0.00    +0.000 A 
ATOM      4  C   UNL     1      -0.062  11.139  19.419  0.00  0.00    +0.000 A 
ATOM      5  C   UNL     1       0.036   9.965  20.156  0.00  0.00    +0.000 A 
ATOM      6  C   UNL     1       1.088   9.108  19.869  0.00  0.00    +0.000 A 
ATOM      7 CL   UNL     1       1.335   7.705  20.846  0.00  0.00    +0.000 Cl
ATOM      8  N   UNL     1      -1.325  11.711  19.134  0.00  0.00    +0.000 N 
ATOM      9  C   UNL     1      -2.159  12.070  20.187  0.00  0.00    +0.000 C 
ATOM     10  O   UNL     1      -1.828  11.960  21.358  0.00  0.00    +0.000 OA
ATOM     11  N   UNL     1      -3.357  12.637  19.776  0.00  0.00    +0.000 N 
ATOM     12  C   UNL     1      -3.849  13.629  20.647  0.00  0.00    +0.000 A 
ATOM     13  C   UNL     1      -5.135  13.705  21.124  0.00  0.00    +0.000 A 
ATOM     14  N   UNL     1      -5.476  14.570  22.135  0.00  0.00    +0.000 NA
ATOM     15  C   UNL     1      -4.462  15.337  22.664  0.00  0.00    +0.000 A 
ATOM     16  C   UNL     1      -3.186  15.305  22.147  0.00  0.00    +0.000 A 
ATOM     17  N   UNL     1      -2.935  14.498  21.088  0.00  0.00    +0.000 NA
ATOM     18  O   UNL     1      -2.078  15.992  22.685  0.00  0.00    +0.000 OA
ATOM     19  C   UNL     1      -0.944  15.483  21.970  0.00  0.00    +0.000 C 
ATOM     20  C   UNL     1       0.536  15.849  22.144  0.00  0.00    +0.000 C 
ATOM     21  C   UNL     1       1.153  15.120  20.898  0.00  0.00    +0.000 C 
ATOM     22  C   UNL     1       2.529  14.462  20.866  0.00  0.00    +0.000 C 
ATOM     23  C   UNL     1       2.598  13.441  19.654  0.00  0.00    +0.000 C 
ATOM     24  O   UNL     1       1.848  12.238  19.915  0.00  0.00    +0.000 OA
ATOM     25  H   UNL     1      -1.811  11.267  18.362  0.00  0.00    +0.000 HD
ATOM     26  H   UNL     1      -4.009  12.028  19.307  0.00  0.00    +0.000 HD
ENDROOT
BRANCH   1  27
ATOM     27  N   UNL     1       2.122   8.106  17.966  0.00  0.00    +0.000 N 
ATOM     28  H   UNL     1       1.265   7.740  17.544  0.00  0.00    +0.000 HD
BRANCH  27  29
ATOM     29  C   UNL     1       2.980   7.017  18.389  0.00  0.00    +0.000 C 
BRANCH  29  35
ATOM     30  C   UNL     1       3.441   3.926  17.631  0.00  0.00    +0.000 C 
ATOM     31  N   UNL     1       4.121   5.080  17.100  0.00  0.00    +0.000 N 
ATOM     32  C   UNL     1       5.141   5.001  16.186  0.00  0.00    +0.000 A 
ATOM     33  N   UNL     1       5.615   6.186  15.886  0.00  0.00    +0.000 NA
ATOM     34  C   UNL     1       4.876   7.061  16.633  0.00  0.00    +0.000 A 
ATOM     35  C   UNL     1       3.918   6.411  17.394  0.00  0.00    +0.000 A 
ENDBRANCH  29  35
ENDBRANCH  27  29
ENDBRANCH   1  27
BRANCH  15  36
ATOM     36  C   UNL     1      -4.789  16.138  23.794  0.00  0.00    +0.000 C 
ATOM     37  N   UNL     1      -5.081  16.773  24.726  0.00  0.00    +0.000 NA
ENDBRANCH  15  36
TORSDOF 4
ENDMDL
MODEL 7
REMARK VINA RESULT:      -6.7      5.418      7.494
REMARK  Name = 
REMARK  5 active torsions:
REMARK  status: ('A' for Active; 'I' for Inactive)
REMARK    1  A    between atoms: C_1  and  N_2
REMARK    2  A    between atoms: C_6  and  C_7
REMARK    3  A    between atoms: C_7  and  N_8
REMARK    4  A    between atoms: N_8  and  C_9
REMARK    5  A    between atoms: C_23  and  C_24
REMARK                            x       y       z     vdW  Elec       q    Type
REMARK                         _______ _______ _______ _____ _____    ______ ____
ROOT
ATOM      1  C   UNL     1       5.556  15.659  18.683  0.00  0.00    +0.000 A 
ATOM      2  C   UNL     1       4.434  15.536  17.841  0.00  0.00    +0.000 A 
ATOM      3  C   UNL     1       3.170  15.201  18.392  0.00  0.00    +0.000 A 
ATOM      4  C   UNL     1       3.276  14.398  19.540  0.00  0.00    +0.000 A 
ATOM      5  C   UNL     1       4.237  14.739  20.484  0.00  0.00    +0.000 A 
ATOM      6  C   UNL     1       5.307  15.515  20.064  0.00  0.00    +0.000 A 
ATOM      7 CL   UNL     1       6.455  16.081  21.224  0.00  0.00    +0.000 Cl
ATOM      8  N   UNL     1       2.579  13.169  19.629  0.00  0.00    +0.000 N 
ATOM      9  C   UNL     1       1.838  12.891  20.773  0.00  0.00    +0.000 C 
ATOM     10  O   UNL     1       1.719  13.689  21.691  0.00  0.00    +0.000 OA
ATOM     11  N   UNL     1       1.187  11.667  20.728  0.00  0.00    +0.000 N 
ATOM     12  C   UNL     1      -0.054  11.654  21.392  0.00  0.00    +0.000 A 
ATOM     13  C   UNL     1      -0.465  10.707  22.298  0.00  0.00    +0.000 A 
ATOM     14  N   UNL     1      -1.593  10.883  23.060  0.00  0.00    +0.000 NA
ATOM     15  C   UNL     1      -2.277  12.067  22.894  0.00  0.00    +0.000 A 
ATOM     16  C   UNL     1      -1.901  12.991  21.945  0.00  0.00    +0.000 A 
ATOM     17  N   UNL     1      -0.832  12.716  21.158  0.00  0.00    +0.000 NA
ATOM     18  O   UNL     1      -2.494  14.259  21.771  0.00  0.00    +0.000 OA
ATOM     19  C   UNL     1      -1.639  14.943  20.845  0.00  0.00    +0.000 C 
ATOM     20  C   UNL     1      -1.773  16.372  20.300  0.00  0.00    +0.000 C 
ATOM     21  C   UNL     1      -0.670  16.349  19.182  0.00  0.00    +0.000 C 
ATOM     22  C   UNL     1       0.204  17.538  18.797  0.00  0.00    +0.000 C 
ATOM     23  C   UNL     1       1.482  17.021  18.013  0.00  0.00    +0.000 C 
ATOM     24  O   UNL     1       2.439  16.392  18.889  0.00  0.00    +0.000 OA
ATOM     25  H   UNL     1       3.104  12.373  19.280  0.00  0.00    +0.000 HD
ATOM     26  H   UNL     1       1.768  10.844  20.756  0.00  0.00    +0.000 HD
ENDROOT
BRANCH   1  27
ATOM     27  N   UNL     1       6.900  15.570  18.289  0.00  0.00    +0.000 N 
ATOM     28  H   UNL     1       7.315  14.740  18.720  0.00  0.00    +0.000 HD
BRANCH  27  29
ATOM     29  C   UNL     1       7.877  16.639  18.214  0.00  0.00    +0.000 C 
BRANCH  29  35
ATOM     30  C   UNL     1      10.313  18.585  17.429  0.00  0.00    +0.000 C 
ATOM     31  N   UNL     1      10.316  17.146  17.499  0.00  0.00    +0.000 N 
ATOM     32  C   UNL     1      11.405  16.376  17.178  0.00  0.00    +0.000 A 
ATOM     33  N   UNL     1      11.144  15.097  17.290  0.00  0.00    +0.000 NA
ATOM     34  C   UNL     1       9.840  15.037  17.700  0.00  0.00    +0.000 A 
ATOM     35  C   UNL     1       9.290  16.299  17.859  0.00  0.00    +0.000 A 
ENDBRANCH  29  35
ENDBRANCH  27  29
ENDBRANCH   1  27
BRANCH  15  36
ATOM     36  C   UNL     1      -3.370  12.304  23.773  0.00  0.00    +0.000 C 
ATOM     37  N   UNL     1      -4.284  12.478  24.474  0.00  0.00    +0.000 NA
ENDBRANCH  15  36
TORSDOF 4
ENDMDL
MODEL 8
REMARK VINA RESULT:      -6.6      1.050      1.271
REMARK  Name = 
REMARK  5 active torsions:
REMARK  status: ('A' for Active; 'I' for Inactive)
REMARK    1  A    between atoms: C_1  and  N_2
REMARK    2  A    between atoms: C_6  and  C_7
REMARK    3  A    between atoms: C_7  and  N_8
REMARK    4  A    between atoms: N_8  and  C_9
REMARK    5  A    between atoms: C_23  and  C_24
REMARK                            x       y       z     vdW  Elec       q    Type
REMARK                         _______ _______ _______ _____ _____    ______ ____
ROOT
ATOM      1  C   UNL     1       1.661   8.914  18.819  0.00  0.00    +0.000 A 
ATOM      2  C   UNL     1       1.642  10.087  18.041  0.00  0.00    +0.000 A 
ATOM      3  C   UNL     1       1.012  11.257  18.543  0.00  0.00    +0.000 A 
ATOM      4  C   UNL     1      -0.061  10.967  19.401  0.00  0.00    +0.000 A 
ATOM      5  C   UNL     1       0.117   9.965  20.347  0.00  0.00    +0.000 A 
ATOM      6  C   UNL     1       1.105   9.022  20.110  0.00  0.00    +0.000 A 
ATOM      7 CL   UNL     1       1.460   7.839  21.318  0.00  0.00    +0.000 Cl
ATOM      8  N   UNL     1      -1.342  11.524  19.170  0.00  0.00    +0.000 N 
ATOM      9  C   UNL     1      -2.019  12.128  20.224  0.00  0.00    +0.000 C 
ATOM     10  O   UNL     1      -1.532  12.245  21.339  0.00  0.00    +0.000 OA
ATOM     11  N   UNL     1      -3.252  12.652  19.864  0.00  0.00    +0.000 N 
ATOM     12  C   UNL     1      -3.604  13.821  20.565  0.00  0.00    +0.000 A 
ATOM     13  C   UNL     1      -4.811  14.050  21.180  0.00  0.00    +0.000 A 
ATOM     14  N   UNL     1      -4.996  15.118  22.023  0.00  0.00    +0.000 NA
ATOM     15  C   UNL     1      -3.907  15.931  22.244  0.00  0.00    +0.000 A 
ATOM     16  C   UNL     1      -2.715  15.738  21.584  0.00  0.00    +0.000 A 
ATOM     17  N   UNL     1      -2.623  14.721  20.692  0.00  0.00    +0.000 NA
ATOM     18  O   UNL     1      -1.532  16.470  21.818  0.00  0.00    +0.000 OA
ATOM     19  C   UNL     1      -0.515  15.776  21.082  0.00  0.00    +0.000 C 
ATOM     20  C   UNL     1       0.981  16.103  20.983  0.00  0.00    +0.000 C 
ATOM     21  C   UNL     1       1.410  15.108  19.846  0.00  0.00    +0.000 C 
ATOM     22  C   UNL     1       2.758  14.397  19.773  0.00  0.00    +0.000 C 
ATOM     23  C   UNL     1       2.643  13.148  18.802  0.00  0.00    +0.000 C 
ATOM     24  O   UNL     1       1.917  12.058  19.404  0.00  0.00    +0.000 OA
ATOM     25  H   UNL     1      -1.936  10.954  18.577  0.00  0.00    +0.000 HD
ATOM     26  H   UNL     1      -3.971  11.989  19.621  0.00  0.00    +0.000 HD
ENDROOT
BRANCH   1  27
ATOM     27  N   UNL     1       1.853   7.608  18.341  0.00  0.00    +0.000 N 
ATOM     28  H   UNL     1       0.946   7.138  18.295  0.00  0.00    +0.000 HD
BRANCH  27  29
ATOM     29  C   UNL     1       2.888   6.666  18.719  0.00  0.00    +0.000 C 
BRANCH  29  35
ATOM     30  C   UNL     1       1.222   4.432  20.324  0.00  0.00    +0.000 C 
ATOM     31  N   UNL     1       1.995   4.266  19.119  0.00  0.00    +0.000 N 
ATOM     32  C   UNL     1       2.168   3.058  18.492  0.00  0.00    +0.000 A 
ATOM     33  N   UNL     1       2.939   3.165  17.438  0.00  0.00    +0.000 NA
ATOM     34  C   UNL     1       3.277   4.489  17.380  0.00  0.00    +0.000 A 
ATOM     35  C   UNL     1       2.693   5.216  18.405  0.00  0.00    +0.000 A 
ENDBRANCH  29  35
ENDBRANCH  27  29
ENDBRANCH   1  27
BRANCH  15  36
ATOM     36  C   UNL     1      -4.063  16.960  23.214  0.00  0.00    +0.000 C 
ATOM     37  N   UNL     1      -4.197  17.780  24.032  0.00  0.00    +0.000 NA
ENDBRANCH  15  36
TORSDOF 4
ENDMDL
MODEL 9
REMARK VINA RESULT:      -6.4      1.263      1.311
REMARK  Name = 
REMARK  5 active torsions:
REMARK  status: ('A' for Active; 'I' for Inactive)
REMARK    1  A    between atoms: C_1  and  N_2
REMARK    2  A    between atoms: C_6  and  C_7
REMARK    3  A    between atoms: C_7  and  N_8
REMARK    4  A    between atoms: N_8  and  C_9
REMARK    5  A    between atoms: C_23  and  C_24
REMARK                            x       y       z     vdW  Elec       q    Type
REMARK                         _______ _______ _______ _____ _____    ______ ____
ROOT
ATOM      1  C   UNL     1       1.281   9.670  19.445  0.00  0.00    +0.000 A 
ATOM      2  C   UNL     1       1.056  10.716  18.530  0.00  0.00    +0.000 A 
ATOM      3  C   UNL     1       0.286  11.844  18.922  0.00  0.00    +0.000 A 
ATOM      4  C   UNL     1      -0.693  11.525  19.877  0.00  0.00    +0.000 A 
ATOM      5  C   UNL     1      -0.327  10.692  20.927  0.00  0.00    +0.000 A 
ATOM      6  C   UNL     1       0.776   9.872  20.746  0.00  0.00    +0.000 A 
ATOM      7 CL   UNL     1       1.355   8.920  22.067  0.00  0.00    +0.000 Cl
ATOM      8  N   UNL     1      -2.051  11.864  19.662  0.00  0.00    +0.000 N 
ATOM      9  C   UNL     1      -2.758  12.502  20.674  0.00  0.00    +0.000 C 
ATOM     10  O   UNL     1      -2.243  12.833  21.731  0.00  0.00    +0.000 OA
ATOM     11  N   UNL     1      -4.070  12.798  20.331  0.00  0.00    +0.000 N 
ATOM     12  C   UNL     1      -4.555  13.990  20.902  0.00  0.00    +0.000 A 
ATOM     13  C   UNL     1      -5.753  14.129  21.560  0.00  0.00    +0.000 A 
ATOM     14  N   UNL     1      -6.053  15.264  22.273  0.00  0.00    +0.000 NA
ATOM     15  C   UNL     1      -5.085  16.242  22.320  0.00  0.00    +0.000 A 
ATOM     16  C   UNL     1      -3.909  16.130  21.613  0.00  0.00    +0.000 A 
ATOM     17  N   UNL     1      -3.712  15.026  20.852  0.00  0.00    +0.000 NA
ATOM     18  O   UNL     1      -2.836  17.043  21.677  0.00  0.00    +0.000 OA
ATOM     19  C   UNL     1      -1.764  16.405  20.970  0.00  0.00    +0.000 C 
ATOM     20  C   UNL     1      -0.338  16.920  20.734  0.00  0.00    +0.000 C 
ATOM     21  C   UNL     1       0.178  15.851  19.705  0.00  0.00    +0.000 C 
ATOM     22  C   UNL     1       1.611  15.331  19.634  0.00  0.00    +0.000 C 
ATOM     23  C   UNL     1       1.634  13.960  18.837  0.00  0.00    +0.000 C 
ATOM     24  O   UNL     1       1.103  12.870  19.615  0.00  0.00    +0.000 OA
ATOM     25  H   UNL     1      -2.582  11.143  19.184  0.00  0.00    +0.000 HD
ATOM     26  H   UNL     1      -4.696  12.016  20.219  0.00  0.00    +0.000 HD
ENDROOT
BRANCH   1  27
ATOM     27  N   UNL     1       1.639   8.352  19.123  0.00  0.00    +0.000 N 
ATOM     28  H   UNL     1       1.797   7.833  19.990  0.00  0.00    +0.000 HD
BRANCH  27  29
ATOM     29  C   UNL     1       2.560   7.907  18.096  0.00  0.00    +0.000 C 
BRANCH  29  35
ATOM     30  C   UNL     1       4.942   6.541  16.420  0.00  0.00    +0.000 C 
ATOM     31  N   UNL     1       4.092   5.931  17.412  0.00  0.00    +0.000 N 
ATOM     32  C   UNL     1       4.162   4.604  17.754  0.00  0.00    +0.000 A 
ATOM     33  N   UNL     1       3.263   4.288  18.653  0.00  0.00    +0.000 NA
ATOM     34  C   UNL     1       2.587   5.450  18.901  0.00  0.00    +0.000 A 
ATOM     35  C   UNL     1       3.086   6.507  18.157  0.00  0.00    +0.000 A 
ENDBRANCH  29  35
ENDBRANCH  27  29
ENDBRANCH   1  27
BRANCH  15  36
ATOM     36  C   UNL     1      -5.344  17.359  23.163  0.00  0.00    +0.000 C 
ATOM     37  N   UNL     1      -5.547  18.294  23.828  0.00  0.00    +0.000 NA
ENDBRANCH  15  36
TORSDOF 4
ENDMDL
