MODEL 1
REMARK VINA RESULT:      -7.7      0.000      0.000
REMARK  Name = 
REMARK  2 active torsions:
REMARK  status: ('A' for Active; 'I' for Inactive)
REMARK    1  A    between atoms: C_4  and  C_5
REMARK    2  A    between atoms: C_14  and  O_15
REMARK                            x       y       z     vdW  Elec       q    Type
REMARK                         _______ _______ _______ _____ _____    ______ ____
ROOT
ATOM      1  O   UNL     1       2.704   3.211  17.725  0.00  0.00    +0.000 OA
ATOM      2  C   UNL     1       3.163   4.348  17.718  0.00  0.00    +0.000 C 
ATOM      3  C   UNL     1       2.606   5.444  18.589  0.00  0.00    +0.000 C 
ATOM      4  C   UNL     1       2.658   6.788  17.857  0.00  0.00    +0.000 C 
ATOM      5  C   UNL     1       4.105   7.127  17.464  0.00  0.00    +0.000 C 
ATOM      6  C   UNL     1       4.812   5.981  16.789  0.00  0.00    +0.000 A 
ATOM      7  N   UNL     1       5.947   6.296  16.107  0.00  0.00    +0.000 NA
ATOM      8  C   UNL     1       6.607   5.278  15.536  0.00  0.00    +0.000 A 
ATOM      9  C   UNL     1       6.231   3.952  15.580  0.00  0.00    +0.000 A 
ATOM     10  C   UNL     1       5.074   3.641  16.283  0.00  0.00    +0.000 A 
ATOM     11  C   UNL     1       4.360   4.667  16.909  0.00  0.00    +0.000 A 
ENDROOT
BRANCH   4  12
ATOM     12  C   UNL     1       2.034   7.895  18.689  0.00  0.00    +0.000 A 
ATOM     13  C   UNL     1       1.633   9.108  18.108  0.00  0.00    +0.000 A 
ATOM     14  C   UNL     1       1.043  10.111  18.877  0.00  0.00    +0.000 A 
ATOM     15  C   UNL     1       0.849   9.918  20.242  0.00  0.00    +0.000 A 
ATOM     16  C   UNL     1       1.253   8.725  20.837  0.00  0.00    +0.000 A 
ATOM     17  C   UNL     1       1.842   7.719  20.068  0.00  0.00    +0.000 A 
ENDBRANCH   4  12
BRANCH   8  18
ATOM     18  O   UNL     1       7.743   5.645  14.891  0.00  0.00    +0.000 OA
ATOM     19  H   UNL     1       7.766   6.593  15.113  0.00  0.00    +0.000 HD
ENDBRANCH   8  18
TORSDOF 2
ENDMDL
MODEL 2
REMARK VINA RESULT:      -7.7      0.108      1.142
REMARK  Name = 
REMARK  2 active torsions:
REMARK  status: ('A' for Active; 'I' for Inactive)
REMARK    1  A    between atoms: C_4  and  C_5
REMARK    2  A    between atoms: C_14  and  O_15
REMARK                            x       y       z     vdW  Elec       q    Type
REMARK                         _______ _______ _______ _____ _____    ______ ____
ROOT
ATOM      1  O   UNL     1       2.861   3.127  17.773  0.00  0.00    +0.000 OA
ATOM      2  C   UNL     1       3.283   4.278  17.734  0.00  0.00    +0.000 C 
ATOM      3  C   UNL     1       2.711   5.372  18.598  0.00  0.00    +0.000 C 
ATOM      4  C   UNL     1       2.703   6.703  17.840  0.00  0.00    +0.000 C 
ATOM      5  C   UNL     1       4.130   7.081  17.407  0.00  0.00    +0.000 C 
ATOM      6  C   UNL     1       4.857   5.944  16.736  0.00  0.00    +0.000 A 
ATOM      7  N   UNL     1       5.964   6.283  16.022  0.00  0.00    +0.000 NA
ATOM      8  C   UNL     1       6.644   5.275  15.454  0.00  0.00    +0.000 A 
ATOM      9  C   UNL     1       6.312   3.939  15.531  0.00  0.00    +0.000 A 
ATOM     10  C   UNL     1       5.182   3.605  16.267  0.00  0.00    +0.000 A 
ATOM     11  C   UNL     1       4.450   4.620  16.891  0.00  0.00    +0.000 A 
ENDROOT
BRANCH   4  12
ATOM     12  C   UNL     1       2.064   7.805  18.667  0.00  0.00    +0.000 A 
ATOM     13  C   UNL     1       1.856   7.655  20.048  0.00  0.00    +0.000 A 
ATOM     14  C   UNL     1       1.287   8.681  20.802  0.00  0.00    +0.000 A 
ATOM     15  C   UNL     1       0.914   9.873  20.187  0.00  0.00    +0.000 A 
ATOM     16  C   UNL     1       1.101  10.033  18.815  0.00  0.00    +0.000 A 
ATOM     17  C   UNL     1       1.672   9.007  18.059  0.00  0.00    +0.000 A 
ENDBRANCH   4  12
BRANCH   8  18
ATOM     18  O   UNL     1       7.752   5.665  14.775  0.00  0.00    +0.000 OA
ATOM     19  H   UNL     1       8.025   6.427  15.318  0.00  0.00    +0.000 HD
ENDBRANCH   8  18
TORSDOF 2
ENDMDL
MODEL 3
REMARK VINA RESULT:      -7.5      3.570      4.225
REMARK  Name = 
REMARK  2 active torsions:
REMARK  status: ('A' for Active; 'I' for Inactive)
REMARK    1  A    between atoms: C_4  and  C_5
REMARK    2  A    between atoms: C_14  and  O_15
REMARK                            x       y       z     vdW  Elec       q    Type
REMARK                         _______ _______ _______ _____ _____    ______ ____
ROOT
ATOM      1  O   UNL     1       7.385   5.928  18.564  0.00  0.00    +0.000 OA
ATOM      2  C   UNL     1       6.392   5.340  18.151  0.00  0.00    +0.000 C 
ATOM      3  C   UNL     1       5.162   5.147  19.001  0.00  0.00    +0.000 C 
ATOM      4  C   UNL     1       4.520   3.788  18.711  0.00  0.00    +0.000 C 
ATOM      5  C   UNL     1       4.140   3.682  17.224  0.00  0.00    +0.000 C 
ATOM      6  C   UNL     1       5.261   4.092  16.304  0.00  0.00    +0.000 A 
ATOM      7  N   UNL     1       5.139   3.704  15.006  0.00  0.00    +0.000 NA
ATOM      8  C   UNL     1       6.111   4.098  14.168  0.00  0.00    +0.000 A 
ATOM      9  C   UNL     1       7.211   4.852  14.514  0.00  0.00    +0.000 A 
ATOM     10  C   UNL     1       7.322   5.247  15.841  0.00  0.00    +0.000 A 
ATOM     11  C   UNL     1       6.326   4.874  16.748  0.00  0.00    +0.000 A 
ENDROOT
BRANCH   4  12
ATOM     12  C   UNL     1       3.320   3.541  19.609  0.00  0.00    +0.000 A 
ATOM     13  C   UNL     1       2.074   4.129  19.340  0.00  0.00    +0.000 A 
ATOM     14  C   UNL     1       0.972   3.880  20.159  0.00  0.00    +0.000 A 
ATOM     15  C   UNL     1       1.102   3.042  21.263  0.00  0.00    +0.000 A 
ATOM     16  C   UNL     1       2.335   2.460  21.552  0.00  0.00    +0.000 A 
ATOM     17  C   UNL     1       3.438   2.707  20.731  0.00  0.00    +0.000 A 
ENDBRANCH   4  12
BRANCH   8  18
ATOM     18  O   UNL     1       5.928   3.705  12.882  0.00  0.00    +0.000 OA
ATOM     19  H   UNL     1       6.849   3.723  12.566  0.00  0.00    +0.000 HD
ENDBRANCH   8  18
TORSDOF 2
ENDMDL
MODEL 4
REMARK VINA RESULT:      -7.5      3.586      4.356
REMARK  Name = 
REMARK  2 active torsions:
REMARK  status: ('A' for Active; 'I' for Inactive)
REMARK    1  A    between atoms: C_4  and  C_5
REMARK    2  A    between atoms: C_14  and  O_15
REMARK                            x       y       z     vdW  Elec       q    Type
REMARK                         _______ _______ _______ _____ _____    ______ ____
ROOT
ATOM      1  O   UNL     1       7.382   5.904  18.542  0.00  0.00    +0.000 OA
ATOM      2  C   UNL     1       6.387   5.319  18.129  0.00  0.00    +0.000 C 
ATOM      3  C   UNL     1       5.162   5.117  18.983  0.00  0.00    +0.000 C 
ATOM      4  C   UNL     1       4.520   3.760  18.685  0.00  0.00    +0.000 C 
ATOM      5  C   UNL     1       4.134   3.665  17.199  0.00  0.00    +0.000 C 
ATOM      6  C   UNL     1       5.250   4.083  16.277  0.00  0.00    +0.000 A 
ATOM      7  N   UNL     1       5.123   3.705  14.977  0.00  0.00    +0.000 NA
ATOM      8  C   UNL     1       6.090   4.107  14.138  0.00  0.00    +0.000 A 
ATOM      9  C   UNL     1       7.192   4.859  14.485  0.00  0.00    +0.000 A 
ATOM     10  C   UNL     1       7.308   5.244  15.815  0.00  0.00    +0.000 A 
ATOM     11  C   UNL     1       6.316   4.863  16.723  0.00  0.00    +0.000 A 
ENDROOT
BRANCH   4  12
ATOM     12  C   UNL     1       3.324   3.505  19.587  0.00  0.00    +0.000 A 
ATOM     13  C   UNL     1       3.429   2.691  20.726  0.00  0.00    +0.000 A 
ATOM     14  C   UNL     1       2.330   2.479  21.558  0.00  0.00    +0.000 A 
ATOM     15  C   UNL     1       1.107   3.075  21.263  0.00  0.00    +0.000 A 
ATOM     16  C   UNL     1       0.983   3.876  20.129  0.00  0.00    +0.000 A 
ATOM     17  C   UNL     1       2.082   4.091  19.295  0.00  0.00    +0.000 A 
ENDBRANCH   4  12
BRANCH   8  18
ATOM     18  O   UNL     1       5.903   3.723  12.850  0.00  0.00    +0.000 OA
ATOM     19  H   UNL     1       4.944   3.875  12.765  0.00  0.00    +0.000 HD
ENDBRANCH   8  18
TORSDOF 2
ENDMDL
MODEL 5
REMARK VINA RESULT:      -7.3      3.941      6.740
REMARK  Name = 
REMARK  2 active torsions:
REMARK  status: ('A' for Active; 'I' for Inactive)
REMARK    1  A    between atoms: C_4  and  C_5
REMARK    2  A    between atoms: C_14  and  O_15
REMARK                            x       y       z     vdW  Elec       q    Type
REMARK                         _______ _______ _______ _____ _____    ______ ____
ROOT
ATOM      1  O   UNL     1       5.995   4.957  19.415  0.00  0.00    +0.000 OA
ATOM      2  C   UNL     1       5.432   4.474  18.439  0.00  0.00    +0.000 C 
ATOM      3  C   UNL     1       6.137   4.282  17.121  0.00  0.00    +0.000 C 
ATOM      4  C   UNL     1       5.173   4.531  15.958  0.00  0.00    +0.000 C 
ATOM      5  C   UNL     1       3.972   3.574  16.044  0.00  0.00    +0.000 C 
ATOM      6  C   UNL     1       3.353   3.536  17.418  0.00  0.00    +0.000 A 
ATOM      7  N   UNL     1       2.103   3.003  17.494  0.00  0.00    +0.000 NA
ATOM      8  C   UNL     1       1.558   2.925  18.718  0.00  0.00    +0.000 A 
ATOM      9  C   UNL     1       2.153   3.342  19.890  0.00  0.00    +0.000 A 
ATOM     10  C   UNL     1       3.431   3.880  19.799  0.00  0.00    +0.000 A 
ATOM     11  C   UNL     1       4.047   3.966  18.548  0.00  0.00    +0.000 A 
ENDROOT
BRANCH   4  12
ATOM     12  C   UNL     1       5.881   4.414  14.619  0.00  0.00    +0.000 A 
ATOM     13  C   UNL     1       5.364   3.612  13.588  0.00  0.00    +0.000 A 
ATOM     14  C   UNL     1       6.010   3.527  12.355  0.00  0.00    +0.000 A 
ATOM     15  C   UNL     1       7.186   4.239  12.134  0.00  0.00    +0.000 A 
ATOM     16  C   UNL     1       7.719   5.029  13.151  0.00  0.00    +0.000 A 
ATOM     17  C   UNL     1       7.072   5.117  14.386  0.00  0.00    +0.000 A 
ENDBRANCH   4  12
BRANCH   8  18
ATOM     18  O   UNL     1       0.323   2.365  18.741  0.00  0.00    +0.000 OA
ATOM     19  H   UNL     1       0.494   1.599  19.318  0.00  0.00    +0.000 HD
ENDBRANCH   8  18
TORSDOF 2
ENDMDL
MODEL 6
REMARK VINA RESULT:      -7.3      3.985      6.736
REMARK  Name = 
REMARK  2 active torsions:
REMARK  status: ('A' for Active; 'I' for Inactive)
REMARK    1  A    between atoms: C_4  and  C_5
REMARK    2  A    between atoms: C_14  and  O_15
REMARK                            x       y       z     vdW  Elec       q    Type
REMARK                         _______ _______ _______ _____ _____    ______ ____
ROOT
ATOM      1  O   UNL     1       6.006   4.846  19.421  0.00  0.00    +0.000 OA
ATOM      2  C   UNL     1       5.452   4.401  18.421  0.00  0.00    +0.000 C 
ATOM      3  C   UNL     1       6.174   4.248  17.106  0.00  0.00    +0.000 C 
ATOM      4  C   UNL     1       5.228   4.546  15.940  0.00  0.00    +0.000 C 
ATOM      5  C   UNL     1       4.017   3.598  15.977  0.00  0.00    +0.000 C 
ATOM      6  C   UNL     1       3.379   3.519  17.340  0.00  0.00    +0.000 A 
ATOM      7  N   UNL     1       2.123   2.996  17.381  0.00  0.00    +0.000 NA
ATOM      8  C   UNL     1       1.560   2.883  18.594  0.00  0.00    +0.000 A 
ATOM      9  C   UNL     1       2.143   3.253  19.787  0.00  0.00    +0.000 A 
ATOM     10  C   UNL     1       3.427   3.781  19.733  0.00  0.00    +0.000 A 
ATOM     11  C   UNL     1       4.061   3.904  18.493  0.00  0.00    +0.000 A 
ENDROOT
BRANCH   4  12
ATOM     12  C   UNL     1       5.954   4.467  14.607  0.00  0.00    +0.000 A 
ATOM     13  C   UNL     1       7.127   5.200  14.370  0.00  0.00    +0.000 A 
ATOM     14  C   UNL     1       7.797   5.105  13.150  0.00  0.00    +0.000 A 
ATOM     15  C   UNL     1       7.301   4.279  12.146  0.00  0.00    +0.000 A 
ATOM     16  C   UNL     1       6.131   3.553  12.361  0.00  0.00    +0.000 A 
ATOM     17  C   UNL     1       5.460   3.646  13.582  0.00  0.00    +0.000 A 
ENDBRANCH   4  12
BRANCH   8  18
ATOM     18  O   UNL     1       0.320   2.334  18.581  0.00  0.00    +0.000 OA
ATOM     19  H   UNL     1       0.547   1.402  18.409  0.00  0.00    +0.000 HD
ENDBRANCH   8  18
TORSDOF 2
ENDMDL
MODEL 7
REMARK VINA RESULT:      -7.3      3.043      3.916
REMARK  Name = 
REMARK  2 active torsions:
REMARK  status: ('A' for Active; 'I' for Inactive)
REMARK    1  A    between atoms: C_4  and  C_5
REMARK    2  A    between atoms: C_14  and  O_15
REMARK                            x       y       z     vdW  Elec       q    Type
REMARK                         _______ _______ _______ _____ _____    ______ ____
ROOT
ATOM      1  O   UNL     1       6.712   7.286  17.034  0.00  0.00    +0.000 OA
ATOM      2  C   UNL     1       5.928   6.361  16.849  0.00  0.00    +0.000 C 
ATOM      3  C   UNL     1       4.692   6.176  17.690  0.00  0.00    +0.000 C 
ATOM      4  C   UNL     1       4.411   4.687  17.908  0.00  0.00    +0.000 C 
ATOM      5  C   UNL     1       4.226   3.974  16.558  0.00  0.00    +0.000 C 
ATOM      6  C   UNL     1       5.316   4.302  15.570  0.00  0.00    +0.000 A 
ATOM      7  N   UNL     1       5.426   3.466  14.503  0.00  0.00    +0.000 NA
ATOM      8  C   UNL     1       6.366   3.771  13.595  0.00  0.00    +0.000 A 
ATOM      9  C   UNL     1       7.223   4.849  13.659  0.00  0.00    +0.000 A 
ATOM     10  C   UNL     1       7.098   5.699  14.751  0.00  0.00    +0.000 A 
ATOM     11  C   UNL     1       6.121   5.431  15.714  0.00  0.00    +0.000 A 
ENDROOT
BRANCH   4  12
ATOM     12  C   UNL     1       3.209   4.478  18.814  0.00  0.00    +0.000 A 
ATOM     13  C   UNL     1       3.018   5.260  19.964  0.00  0.00    +0.000 A 
ATOM     14  C   UNL     1       1.901   5.075  20.779  0.00  0.00    +0.000 A 
ATOM     15  C   UNL     1       0.959   4.101  20.458  0.00  0.00    +0.000 A 
ATOM     16  C   UNL     1       1.140   3.308  19.326  0.00  0.00    +0.000 A 
ATOM     17  C   UNL     1       2.257   3.494  18.509  0.00  0.00    +0.000 A 
ENDBRANCH   4  12
BRANCH   8  18
ATOM     18  O   UNL     1       6.417   2.919  12.541  0.00  0.00    +0.000 OA
ATOM     19  H   UNL     1       7.373   2.736  12.514  0.00  0.00    +0.000 HD
ENDBRANCH   8  18
TORSDOF 2
ENDMDL
MODEL 8
REMARK VINA RESULT:      -7.2      3.896      5.805
REMARK  Name = 
REMARK  2 active torsions:
REMARK  status: ('A' for Active; 'I' for Inactive)
REMARK    1  A    between atoms: C_4  and  C_5
REMARK    2  A    between atoms: C_14  and  O_15
REMARK                            x       y       z     vdW  Elec       q    Type
REMARK                         _______ _______ _______ _____ _____    ______ ____
ROOT
ATOM      1  O   UNL     1       2.380   3.241  16.353  0.00  0.00    +0.000 OA
ATOM      2  C   UNL     1       2.888   3.749  17.347  0.00  0.00    +0.000 C 
ATOM      3  C   UNL     1       3.918   4.844  17.250  0.00  0.00    +0.000 C 
ATOM      4  C   UNL     1       4.963   4.694  18.359  0.00  0.00    +0.000 C 
ATOM      5  C   UNL     1       4.289   4.741  19.740  0.00  0.00    +0.000 C 
ATOM      6  C   UNL     1       3.090   3.834  19.837  0.00  0.00    +0.000 A 
ATOM      7  N   UNL     1       2.655   3.551  21.094  0.00  0.00    +0.000 NA
ATOM      8  C   UNL     1       1.563   2.776  21.192  0.00  0.00    +0.000 A 
ATOM      9  C   UNL     1       0.858   2.247  20.133  0.00  0.00    +0.000 A 
ATOM     10  C   UNL     1       1.308   2.547  18.853  0.00  0.00    +0.000 A 
ATOM     11  C   UNL     1       2.432   3.364  18.701  0.00  0.00    +0.000 A 
ENDROOT
BRANCH   4  12
ATOM     12  C   UNL     1       6.053   5.746  18.237  0.00  0.00    +0.000 A 
ATOM     13  C   UNL     1       7.200   5.706  19.046  0.00  0.00    +0.000 A 
ATOM     14  C   UNL     1       8.204   6.665  18.913  0.00  0.00    +0.000 A 
ATOM     15  C   UNL     1       8.075   7.681  17.970  0.00  0.00    +0.000 A 
ATOM     16  C   UNL     1       6.938   7.742  17.167  0.00  0.00    +0.000 A 
ATOM     17  C   UNL     1       5.932   6.782  17.299  0.00  0.00    +0.000 A 
ENDBRANCH   4  12
BRANCH   8  18
ATOM     18  O   UNL     1       1.159   2.546  22.466  0.00  0.00    +0.000 OA
ATOM     19  H   UNL     1       0.311   3.026  22.466  0.00  0.00    +0.000 HD
ENDBRANCH   8  18
TORSDOF 2
ENDMDL
MODEL 9
REMARK VINA RESULT:      -7.2      3.914      5.696
REMARK  Name = 
REMARK  2 active torsions:
REMARK  status: ('A' for Active; 'I' for Inactive)
REMARK    1  A    between atoms: C_4  and  C_5
REMARK    2  A    between atoms: C_14  and  O_15
REMARK                            x       y       z     vdW  Elec       q    Type
REMARK                         _______ _______ _______ _____ _____    ______ ____
ROOT
ATOM      1  O   UNL     1       2.442   3.138  16.319  0.00  0.00    +0.000 OA
ATOM      2  C   UNL     1       2.937   3.670  17.306  0.00  0.00    +0.000 C 
ATOM      3  C   UNL     1       3.956   4.775  17.197  0.00  0.00    +0.000 C 
ATOM      4  C   UNL     1       4.994   4.658  18.315  0.00  0.00    +0.000 C 
ATOM      5  C   UNL     1       4.309   4.723  19.691  0.00  0.00    +0.000 C 
ATOM      6  C   UNL     1       3.120   3.804  19.796  0.00  0.00    +0.000 A 
ATOM      7  N   UNL     1       2.679   3.540  21.055  0.00  0.00    +0.000 NA
ATOM      8  C   UNL     1       1.595   2.755  21.160  0.00  0.00    +0.000 A 
ATOM      9  C   UNL     1       0.904   2.198  20.106  0.00  0.00    +0.000 A 
ATOM     10  C   UNL     1       1.360   2.479  18.824  0.00  0.00    +0.000 A 
ATOM     11  C   UNL     1       2.476   3.305  18.664  0.00  0.00    +0.000 A 
ENDROOT
BRANCH   4  12
ATOM     12  C   UNL     1       6.073   5.719  18.181  0.00  0.00    +0.000 A 
ATOM     13  C   UNL     1       5.971   6.747  17.230  0.00  0.00    +0.000 A 
ATOM     14  C   UNL     1       6.957   7.729  17.128  0.00  0.00    +0.000 A 
ATOM     15  C   UNL     1       8.062   7.696  17.974  0.00  0.00    +0.000 A 
ATOM     16  C   UNL     1       8.184   6.676  18.916  0.00  0.00    +0.000 A 
ATOM     17  C   UNL     1       7.197   5.693  19.020  0.00  0.00    +0.000 A 
ENDBRANCH   4  12
BRANCH   8  18
ATOM     18  O   UNL     1       1.184   2.544  22.435  0.00  0.00    +0.000 OA
ATOM     19  H   UNL     1       0.559   1.810  22.294  0.00  0.00    +0.000 HD
ENDBRANCH   8  18
TORSDOF 2
ENDMDL
