MODEL 1
REMARK VINA RESULT:      -5.8      0.000      0.000
REMARK  Name = 
REMARK  4 active torsions:
REMARK  status: ('A' for Active; 'I' for Inactive)
REMARK    1  A    between atoms: N_1  and  C_2
REMARK    2  A    between atoms: C_2  and  C_3
REMARK    3  A    between atoms: C_3  and  N_4
REMARK    4  A    between atoms: C_5  and  C_7
REMARK                            x       y       z     vdW  Elec       q    Type
REMARK                         _______ _______ _______ _____ _____    ______ ____
ROOT
ATOM      1  N   UNL     1       4.872   5.274  17.434  0.00  0.00    +0.000 N 
ATOM      2  C   UNL     1       4.822   4.765  18.707  0.00  0.00    +0.000 C 
ATOM      3  O   UNL     1       5.825   4.643  19.407  0.00  0.00    +0.000 OA
ATOM      4  H   UNL     1       4.021   5.447  16.908  0.00  0.00    +0.000 HD
ENDROOT
BRANCH   2   5
ATOM      5  C   UNL     1       3.485   4.406  19.266  0.00  0.00    +0.000 A 
ATOM      6  C   UNL     1       2.858   5.408  20.031  0.00  0.00    +0.000 A 
ATOM      7  C   UNL     1       1.604   5.202  20.607  0.00  0.00    +0.000 A 
ATOM      8  C   UNL     1       0.954   3.987  20.430  0.00  0.00    +0.000 A 
ATOM      9  C   UNL     1       1.564   2.976  19.688  0.00  0.00    +0.000 A 
ATOM     10  C   UNL     1       2.830   3.173  19.111  0.00  0.00    +0.000 A 
ATOM     11 BR   UNL     1       3.561   1.663  18.215  0.00  0.00    +0.000 Br
ENDBRANCH   2   5
BRANCH   1  12
ATOM     12  C   UNL     1       6.108   5.715  16.817  0.00  0.00    +0.000 C 
BRANCH  12  13
ATOM     13  C   UNL     1       6.926   4.524  16.304  0.00  0.00    +0.000 C 
BRANCH  13  14
ATOM     14  N   UNL     1       8.009   4.163  17.228  0.00  0.00    +0.000 NA
ATOM     15  H   UNL     1       7.622   3.593  17.981  0.00  0.00    +0.000 HD
ATOM     16  H   UNL     1       8.364   5.009  17.673  0.00  0.00    +0.000 HD
ENDBRANCH  13  14
ENDBRANCH  12  13
ENDBRANCH   1  12
TORSDOF 4
ENDMDL
MODEL 2
REMARK VINA RESULT:      -5.8      1.639      1.687
REMARK  Name = 
REMARK  4 active torsions:
REMARK  status: ('A' for Active; 'I' for Inactive)
REMARK    1  A    between atoms: N_1  and  C_2
REMARK    2  A    between atoms: C_2  and  C_3
REMARK    3  A    between atoms: C_3  and  N_4
REMARK    4  A    between atoms: C_5  and  C_7
REMARK                            x       y       z     vdW  Elec       q    Type
REMARK                         _______ _______ _______ _____ _____    ______ ____
ROOT
ATOM      1  N   UNL     1       5.841   4.497  18.888  0.00  0.00    +0.000 N 
ATOM      2  C   UNL     1       4.658   5.021  18.432  0.00  0.00    +0.000 C 
ATOM      3  O   UNL     1       4.604   5.783  17.470  0.00  0.00    +0.000 OA
ATOM      4  H   UNL     1       5.852   3.802  19.628  0.00  0.00    +0.000 HD
ENDROOT
BRANCH   2   5
ATOM      5  C   UNL     1       3.396   4.595  19.106  0.00  0.00    +0.000 A 
ATOM      6  C   UNL     1       2.809   5.552  19.956  0.00  0.00    +0.000 A 
ATOM      7  C   UNL     1       1.626   5.281  20.644  0.00  0.00    +0.000 A 
ATOM      8  C   UNL     1       1.007   4.045  20.495  0.00  0.00    +0.000 A 
ATOM      9  C   UNL     1       1.581   3.079  19.669  0.00  0.00    +0.000 A 
ATOM     10  C   UNL     1       2.776   3.341  18.980  0.00  0.00    +0.000 A 
ATOM     11 BR   UNL     1       3.473   1.884  17.975  0.00  0.00    +0.000 Br
ENDBRANCH   2   5
BRANCH   1  12
ATOM     12  C   UNL     1       7.118   4.792  18.267  0.00  0.00    +0.000 C 
BRANCH  12  13
ATOM     13  C   UNL     1       7.887   5.854  19.063  0.00  0.00    +0.000 C 
BRANCH  13  14
ATOM     14  N   UNL     1       8.111   5.442  20.455  0.00  0.00    +0.000 NA
ATOM     15  H   UNL     1       7.239   5.068  20.831  0.00  0.00    +0.000 HD
ATOM     16  H   UNL     1       8.326   6.265  21.017  0.00  0.00    +0.000 HD
ENDBRANCH  13  14
ENDBRANCH  12  13
ENDBRANCH   1  12
TORSDOF 4
ENDMDL
MODEL 3
REMARK VINA RESULT:      -5.7      2.328      2.848
REMARK  Name = 
REMARK  4 active torsions:
REMARK  status: ('A' for Active; 'I' for Inactive)
REMARK    1  A    between atoms: N_1  and  C_2
REMARK    2  A    between atoms: C_2  and  C_3
REMARK    3  A    between atoms: C_3  and  N_4
REMARK    4  A    between atoms: C_5  and  C_7
REMARK                            x       y       z     vdW  Elec       q    Type
REMARK                         _______ _______ _______ _____ _____    ______ ____
ROOT
ATOM      1  N   UNL     1       6.152   4.313  18.231  0.00  0.00    +0.000 N 
ATOM      2  C   UNL     1       5.112   4.403  17.341  0.00  0.00    +0.000 C 
ATOM      3  O   UNL     1       5.258   4.831  16.199  0.00  0.00    +0.000 OA
ATOM      4  H   UNL     1       6.026   3.875  19.139  0.00  0.00    +0.000 HD
ENDROOT
BRANCH   2   5
ATOM      5  C   UNL     1       3.773   3.905  17.776  0.00  0.00    +0.000 A 
ATOM      6  C   UNL     1       3.595   2.510  17.713  0.00  0.00    +0.000 A 
ATOM      7  C   UNL     1       2.392   1.915  18.094  0.00  0.00    +0.000 A 
ATOM      8  C   UNL     1       1.342   2.707  18.545  0.00  0.00    +0.000 A 
ATOM      9  C   UNL     1       1.494   4.092  18.601  0.00  0.00    +0.000 A 
ATOM     10  C   UNL     1       2.699   4.698  18.213  0.00  0.00    +0.000 A 
ATOM     11 BR   UNL     1       2.706   6.600  18.258  0.00  0.00    +0.000 Br
ENDBRANCH   2   5
BRANCH   1  12
ATOM     12  C   UNL     1       7.506   4.707  17.893  0.00  0.00    +0.000 C 
BRANCH  12  13
ATOM     13  C   UNL     1       7.708   6.215  18.084  0.00  0.00    +0.000 C 
BRANCH  13  14
ATOM     14  N   UNL     1       7.607   6.947  16.815  0.00  0.00    +0.000 NA
ATOM     15  H   UNL     1       6.621   7.064  16.581  0.00  0.00    +0.000 HD
ATOM     16  H   UNL     1       8.005   6.378  16.069  0.00  0.00    +0.000 HD
ENDBRANCH  13  14
ENDBRANCH  12  13
ENDBRANCH   1  12
TORSDOF 4
ENDMDL
MODEL 4
REMARK VINA RESULT:      -5.7      2.505      2.976
REMARK  Name = 
REMARK  4 active torsions:
REMARK  status: ('A' for Active; 'I' for Inactive)
REMARK    1  A    between atoms: N_1  and  C_2
REMARK    2  A    between atoms: C_2  and  C_3
REMARK    3  A    between atoms: C_3  and  N_4
REMARK    4  A    between atoms: C_5  and  C_7
REMARK                            x       y       z     vdW  Elec       q    Type
REMARK                         _______ _______ _______ _____ _____    ______ ____
ROOT
ATOM      1  N   UNL     1       6.116   4.659  18.294  0.00  0.00    +0.000 N 
ATOM      2  C   UNL     1       5.236   4.306  17.302  0.00  0.00    +0.000 C 
ATOM      3  O   UNL     1       5.568   4.241  16.121  0.00  0.00    +0.000 OA
ATOM      4  H   UNL     1       5.843   4.621  19.271  0.00  0.00    +0.000 HD
ENDROOT
BRANCH   2   5
ATOM      5  C   UNL     1       3.845   3.935  17.699  0.00  0.00    +0.000 A 
ATOM      6  C   UNL     1       3.549   2.559  17.657  0.00  0.00    +0.000 A 
ATOM      7  C   UNL     1       2.287   2.079  18.006  0.00  0.00    +0.000 A 
ATOM      8  C   UNL     1       1.295   2.968  18.405  0.00  0.00    +0.000 A 
ATOM      9  C   UNL     1       1.565   4.335  18.440  0.00  0.00    +0.000 A 
ATOM     10  C   UNL     1       2.830   4.827  18.083  0.00  0.00    +0.000 A 
ATOM     11 BR   UNL     1       3.001   6.722  18.092  0.00  0.00    +0.000 Br
ENDBRANCH   2   5
BRANCH   1  12
ATOM     12  C   UNL     1       7.506   4.976  18.029  0.00  0.00    +0.000 C 
BRANCH  12  13
ATOM     13  C   UNL     1       8.051   5.977  19.055  0.00  0.00    +0.000 C 
BRANCH  13  14
ATOM     14  N   UNL     1       8.045   5.426  20.416  0.00  0.00    +0.000 NA
ATOM     15  H   UNL     1       8.983   5.511  20.809  0.00  0.00    +0.000 HD
ATOM     16  H   UNL     1       7.852   4.426  20.371  0.00  0.00    +0.000 HD
ENDBRANCH  13  14
ENDBRANCH  12  13
ENDBRANCH   1  12
TORSDOF 4
ENDMDL
MODEL 5
REMARK VINA RESULT:      -5.6      2.277      2.647
REMARK  Name = 
REMARK  4 active torsions:
REMARK  status: ('A' for Active; 'I' for Inactive)
REMARK    1  A    between atoms: N_1  and  C_2
REMARK    2  A    between atoms: C_2  and  C_3
REMARK    3  A    between atoms: C_3  and  N_4
REMARK    4  A    between atoms: C_5  and  C_7
REMARK                            x       y       z     vdW  Elec       q    Type
REMARK                         _______ _______ _______ _____ _____    ______ ____
ROOT
ATOM      1  N   UNL     1       5.705   4.470  19.036  0.00  0.00    +0.000 N 
ATOM      2  C   UNL     1       4.535   4.206  18.370  0.00  0.00    +0.000 C 
ATOM      3  O   UNL     1       4.479   4.129  17.145  0.00  0.00    +0.000 OA
ATOM      4  H   UNL     1       5.746   4.442  20.050  0.00  0.00    +0.000 HD
ENDROOT
BRANCH   2   5
ATOM      5  C   UNL     1       3.310   3.947  19.182  0.00  0.00    +0.000 A 
ATOM      6  C   UNL     1       3.024   2.591  19.435  0.00  0.00    +0.000 A 
ATOM      7  C   UNL     1       1.910   2.213  20.184  0.00  0.00    +0.000 A 
ATOM      8  C   UNL     1       1.058   3.185  20.695  0.00  0.00    +0.000 A 
ATOM      9  C   UNL     1       1.316   4.532  20.445  0.00  0.00    +0.000 A 
ATOM     10  C   UNL     1       2.431   4.921  19.685  0.00  0.00    +0.000 A 
ATOM     11 BR   UNL     1       2.582   6.788  19.355  0.00  0.00    +0.000 Br
ENDBRANCH   2   5
BRANCH   1  12
ATOM     12  C   UNL     1       6.966   4.673  18.350  0.00  0.00    +0.000 C 
BRANCH  12  13
ATOM     13  C   UNL     1       7.802   5.759  19.039  0.00  0.00    +0.000 C 
BRANCH  13  14
ATOM     14  N   UNL     1       8.092   5.423  20.439  0.00  0.00    +0.000 NA
ATOM     15  H   UNL     1       8.559   6.217  20.877  0.00  0.00    +0.000 HD
ATOM     16  H   UNL     1       8.763   4.656  20.466  0.00  0.00    +0.000 HD
ENDBRANCH  13  14
ENDBRANCH  12  13
ENDBRANCH   1  12
TORSDOF 4
ENDMDL
MODEL 6
REMARK VINA RESULT:      -5.6      1.452      1.525
REMARK  Name = 
REMARK  4 active torsions:
REMARK  status: ('A' for Active; 'I' for Inactive)
REMARK    1  A    between atoms: N_1  and  C_2
REMARK    2  A    between atoms: C_2  and  C_3
REMARK    3  A    between atoms: C_3  and  N_4
REMARK    4  A    between atoms: C_5  and  C_7
REMARK                            x       y       z     vdW  Elec       q    Type
REMARK                         _______ _______ _______ _____ _____    ______ ____
ROOT
ATOM      1  N   UNL     1       5.984   4.739  18.974  0.00  0.00    +0.000 N 
ATOM      2  C   UNL     1       4.799   4.799  18.286  0.00  0.00    +0.000 C 
ATOM      3  O   UNL     1       4.750   5.017  17.079  0.00  0.00    +0.000 OA
ATOM      4  H   UNL     1       6.005   4.471  19.954  0.00  0.00    +0.000 HD
ENDROOT
BRANCH   2   5
ATOM      5  C   UNL     1       3.537   4.530  19.039  0.00  0.00    +0.000 A 
ATOM      6  C   UNL     1       3.028   5.616  19.776  0.00  0.00    +0.000 A 
ATOM      7  C   UNL     1       1.853   5.499  20.520  0.00  0.00    +0.000 A 
ATOM      8  C   UNL     1       1.166   4.291  20.542  0.00  0.00    +0.000 A 
ATOM      9  C   UNL     1       1.662   3.199  19.830  0.00  0.00    +0.000 A 
ATOM     10  C   UNL     1       2.848   3.307  19.084  0.00  0.00    +0.000 A 
ATOM     11 BR   UNL     1       3.437   1.701  18.253  0.00  0.00    +0.000 Br
ENDBRANCH   2   5
BRANCH   1  12
ATOM     12  C   UNL     1       7.271   4.920  18.332  0.00  0.00    +0.000 C 
BRANCH  12  13
ATOM     13  C   UNL     1       7.567   6.406  18.095  0.00  0.00    +0.000 C 
BRANCH  13  14
ATOM     14  N   UNL     1       7.473   6.764  16.673  0.00  0.00    +0.000 NA
ATOM     15  H   UNL     1       7.772   5.966  16.113  0.00  0.00    +0.000 HD
ATOM     16  H   UNL     1       8.139   7.511  16.472  0.00  0.00    +0.000 HD
ENDBRANCH  13  14
ENDBRANCH  12  13
ENDBRANCH   1  12
TORSDOF 4
ENDMDL
MODEL 7
REMARK VINA RESULT:      -5.5      1.965      2.516
REMARK  Name = 
REMARK  4 active torsions:
REMARK  status: ('A' for Active; 'I' for Inactive)
REMARK    1  A    between atoms: N_1  and  C_2
REMARK    2  A    between atoms: C_2  and  C_3
REMARK    3  A    between atoms: C_3  and  N_4
REMARK    4  A    between atoms: C_5  and  C_7
REMARK                            x       y       z     vdW  Elec       q    Type
REMARK                         _______ _______ _______ _____ _____    ______ ____
ROOT
ATOM      1  N   UNL     1       5.790   4.174  17.177  0.00  0.00    +0.000 N 
ATOM      2  C   UNL     1       5.235   3.989  18.418  0.00  0.00    +0.000 C 
ATOM      3  O   UNL     1       5.866   4.176  19.455  0.00  0.00    +0.000 OA
ATOM      4  H   UNL     1       5.225   4.098  16.336  0.00  0.00    +0.000 HD
ENDROOT
BRANCH   2   5
ATOM      5  C   UNL     1       3.795   3.602  18.490  0.00  0.00    +0.000 A 
ATOM      6  C   UNL     1       3.543   2.222  18.612  0.00  0.00    +0.000 A 
ATOM      7  C   UNL     1       2.240   1.728  18.693  0.00  0.00    +0.000 A 
ATOM      8  C   UNL     1       1.164   2.606  18.653  0.00  0.00    +0.000 A 
ATOM      9  C   UNL     1       1.392   3.975  18.519  0.00  0.00    +0.000 A 
ATOM     10  C   UNL     1       2.700   4.480  18.429  0.00  0.00    +0.000 A 
ATOM     11 BR   UNL     1       2.832   6.357  18.152  0.00  0.00    +0.000 Br
ENDBRANCH   2   5
BRANCH   1  12
ATOM     12  C   UNL     1       7.160   4.611  16.991  0.00  0.00    +0.000 C 
BRANCH  12  13
ATOM     13  C   UNL     1       7.261   6.141  17.016  0.00  0.00    +0.000 C 
BRANCH  13  14
ATOM     14  N   UNL     1       6.172   6.776  16.263  0.00  0.00    +0.000 NA
ATOM     15  H   UNL     1       5.306   6.269  16.448  0.00  0.00    +0.000 HD
ATOM     16  H   UNL     1       6.349   6.669  15.265  0.00  0.00    +0.000 HD
ENDBRANCH  13  14
ENDBRANCH  12  13
ENDBRANCH   1  12
TORSDOF 4
ENDMDL
MODEL 8
REMARK VINA RESULT:      -5.5      1.645      2.107
REMARK  Name = 
REMARK  4 active torsions:
REMARK  status: ('A' for Active; 'I' for Inactive)
REMARK    1  A    between atoms: N_1  and  C_2
REMARK    2  A    between atoms: C_2  and  C_3
REMARK    3  A    between atoms: C_3  and  N_4
REMARK    4  A    between atoms: C_5  and  C_7
REMARK                            x       y       z     vdW  Elec       q    Type
REMARK                         _______ _______ _______ _____ _____    ______ ____
ROOT
ATOM      1  N   UNL     1       4.686   4.878  17.201  0.00  0.00    +0.000 N 
ATOM      2  C   UNL     1       4.610   4.778  18.568  0.00  0.00    +0.000 C 
ATOM      3  O   UNL     1       5.517   5.154  19.305  0.00  0.00    +0.000 OA
ATOM      4  H   UNL     1       3.889   4.643  16.617  0.00  0.00    +0.000 HD
ENDROOT
BRANCH   2   5
ATOM      5  C   UNL     1       3.349   4.245  19.162  0.00  0.00    +0.000 A 
ATOM      6  C   UNL     1       3.201   2.846  19.117  0.00  0.00    +0.000 A 
ATOM      7  C   UNL     1       2.070   2.219  19.641  0.00  0.00    +0.000 A 
ATOM      8  C   UNL     1       1.063   2.982  20.221  0.00  0.00    +0.000 A 
ATOM      9  C   UNL     1       1.185   4.371  20.264  0.00  0.00    +0.000 A 
ATOM     10  C   UNL     1       2.317   5.009  19.731  0.00  0.00    +0.000 A 
ATOM     11 BR   UNL     1       2.279   6.910  19.782  0.00  0.00    +0.000 Br
ENDBRANCH   2   5
BRANCH   1  12
ATOM     12  C   UNL     1       5.836   5.440  16.521  0.00  0.00    +0.000 C 
BRANCH  12  13
ATOM     13  C   UNL     1       6.874   4.357  16.203  0.00  0.00    +0.000 C 
BRANCH  13  14
ATOM     14  N   UNL     1       7.896   4.251  17.254  0.00  0.00    +0.000 NA
ATOM     15  H   UNL     1       7.661   4.898  18.007  0.00  0.00    +0.000 HD
ATOM     16  H   UNL     1       8.791   4.569  16.882  0.00  0.00    +0.000 HD
ENDBRANCH  13  14
ENDBRANCH  12  13
ENDBRANCH   1  12
TORSDOF 4
ENDMDL
MODEL 9
REMARK VINA RESULT:      -5.4      1.000      1.071
REMARK  Name = 
REMARK  4 active torsions:
REMARK  status: ('A' for Active; 'I' for Inactive)
REMARK    1  A    between atoms: N_1  and  C_2
REMARK    2  A    between atoms: C_2  and  C_3
REMARK    3  A    between atoms: C_3  and  N_4
REMARK    4  A    between atoms: C_5  and  C_7
REMARK                            x       y       z     vdW  Elec       q    Type
REMARK                         _______ _______ _______ _____ _____    ______ ____
ROOT
ATOM      1  N   UNL     1       5.373   4.204  17.347  0.00  0.00    +0.000 N 
ATOM      2  C   UNL     1       5.189   4.362  18.697  0.00  0.00    +0.000 C 
ATOM      3  O   UNL     1       6.112   4.637  19.459  0.00  0.00    +0.000 OA
ATOM      4  H   UNL     1       4.582   4.063  16.726  0.00  0.00    +0.000 HD
ENDROOT
BRANCH   2   5
ATOM      5  C   UNL     1       3.800   4.248  19.233  0.00  0.00    +0.000 A 
ATOM      6  C   UNL     1       3.285   5.411  19.836  0.00  0.00    +0.000 A 
ATOM      7  C   UNL     1       1.998   5.440  20.374  0.00  0.00    +0.000 A 
ATOM      8  C   UNL     1       1.201   4.302  20.320  0.00  0.00    +0.000 A 
ATOM      9  C   UNL     1       1.698   3.136  19.739  0.00  0.00    +0.000 A 
ATOM     10  C   UNL     1       2.995   3.097  19.203  0.00  0.00    +0.000 A 
ATOM     11 BR   UNL     1       3.552   1.404  18.538  0.00  0.00    +0.000 Br
ENDBRANCH   2   5
BRANCH   1  12
ATOM     12  C   UNL     1       6.667   4.356  16.711  0.00  0.00    +0.000 C 
BRANCH  12  13
ATOM     13  C   UNL     1       6.525   4.472  15.188  0.00  0.00    +0.000 C 
BRANCH  13  14
ATOM     14  N   UNL     1       7.546   5.354  14.608  0.00  0.00    +0.000 NA
ATOM     15  H   UNL     1       8.236   5.575  15.326  0.00  0.00    +0.000 HD
ATOM     16  H   UNL     1       7.114   6.242  14.353  0.00  0.00    +0.000 HD
ENDBRANCH  13  14
ENDBRANCH  12  13
ENDBRANCH   1  12
TORSDOF 4
ENDMDL
