MODEL 1
REMARK VINA RESULT:      -7.4      0.000      0.000
REMARK  Name = 
REMARK  4 active torsions:
REMARK  status: ('A' for Active; 'I' for Inactive)
REMARK    1  A    between atoms: C_2  and  C_3
REMARK    2  A    between atoms: C_2  and  C_14
REMARK    3  A    between atoms: C_4  and  C_5
REMARK    4  A    between atoms: C_19  and  C_20
REMARK                            x       y       z     vdW  Elec       q    Type
REMARK                         _______ _______ _______ _____ _____    ______ ____
ROOT
ATOM      1  O   UNL     1       4.601   5.814  19.665  0.00  0.00    +0.000 OA
ATOM      2  C   UNL     1       3.501   5.678  19.154  0.00  0.00    +0.000 C 
ENDROOT
BRANCH   2   3
ATOM      3  C   UNL     1       3.019   4.329  18.759  0.00  0.00    +0.000 A 
ATOM      4  C   UNL     1       3.473   3.817  17.526  0.00  0.00    +0.000 A 
ATOM      5  C   UNL     1       3.007   2.595  17.042  0.00  0.00    +0.000 A 
ATOM      6  C   UNL     1       2.069   1.879  17.771  0.00  0.00    +0.000 A 
ATOM      7  C   UNL     1       1.610   2.379  18.992  0.00  0.00    +0.000 A 
ATOM      8  C   UNL     1       2.083   3.604  19.515  0.00  0.00    +0.000 A 
BRANCH   8   9
ATOM      9  C   UNL     1       1.543   4.020  20.863  0.00  0.00    +0.000 C 
ATOM     10  F   UNL     1       2.443   4.460  21.775  0.00  0.00    +0.000 F 
ATOM     11  F   UNL     1       0.579   4.976  20.761  0.00  0.00    +0.000 F 
ATOM     12  F   UNL     1       0.926   2.963  21.479  0.00  0.00    +0.000 F 
ENDBRANCH   8   9
ENDBRANCH   2   3
BRANCH   2  13
ATOM     13  C   UNL     1       2.544   6.807  18.963  0.00  0.00    +0.000 C 
ATOM     14  C   UNL     1       2.244   7.640  19.969  0.00  0.00    +0.000 C 
BRANCH  14  15
ATOM     15  C   UNL     1       1.272   8.742  19.860  0.00  0.00    +0.000 A 
ATOM     16  C   UNL     1       0.980   9.272  18.591  0.00  0.00    +0.000 A 
ATOM     17  C   UNL     1       0.032  10.302  18.427  0.00  0.00    +0.000 A 
ATOM     18  C   UNL     1      -0.649  10.820  19.527  0.00  0.00    +0.000 A 
ATOM     19  C   UNL     1      -0.350  10.297  20.766  0.00  0.00    +0.000 A 
ATOM     20  C   UNL     1       0.579   9.290  20.933  0.00  0.00    +0.000 A 
ATOM     21  O   UNL     1       0.693   8.933  22.247  0.00  0.00    +0.000 OA
ATOM     22  C   UNL     1      -0.209   9.861  22.876  0.00  0.00    +0.000 C 
ATOM     23  O   UNL     1      -0.916  10.692  21.939  0.00  0.00    +0.000 OA
ENDBRANCH  14  15
ENDBRANCH   2  13
TORSDOF 4
ENDMDL
MODEL 2
REMARK VINA RESULT:      -7.4      3.454      4.320
REMARK  Name = 
REMARK  4 active torsions:
REMARK  status: ('A' for Active; 'I' for Inactive)
REMARK    1  A    between atoms: C_2  and  C_3
REMARK    2  A    between atoms: C_2  and  C_14
REMARK    3  A    between atoms: C_4  and  C_5
REMARK    4  A    between atoms: C_19  and  C_20
REMARK                            x       y       z     vdW  Elec       q    Type
REMARK                         _______ _______ _______ _____ _____    ______ ____
ROOT
ATOM      1  O   UNL     1       3.176   3.986  17.609  0.00  0.00    +0.000 OA
ATOM      2  C   UNL     1       3.663   5.085  17.824  0.00  0.00    +0.000 C 
ENDROOT
BRANCH   2   3
ATOM      3  C   UNL     1       5.132   5.233  17.995  0.00  0.00    +0.000 A 
ATOM      4  C   UNL     1       5.630   5.245  19.314  0.00  0.00    +0.000 A 
ATOM      5  C   UNL     1       6.984   5.460  19.567  0.00  0.00    +0.000 A 
ATOM      6  C   UNL     1       7.854   5.685  18.510  0.00  0.00    +0.000 A 
ATOM      7  C   UNL     1       7.371   5.679  17.201  0.00  0.00    +0.000 A 
ATOM      8  C   UNL     1       6.006   5.441  16.916  0.00  0.00    +0.000 A 
BRANCH   8   9
ATOM      9  C   UNL     1       5.612   5.418  15.458  0.00  0.00    +0.000 C 
ATOM     10  F   UNL     1       6.617   5.429  14.550  0.00  0.00    +0.000 F 
ATOM     11  F   UNL     1       4.814   4.357  15.155  0.00  0.00    +0.000 F 
ATOM     12  F   UNL     1       4.862   6.522  15.147  0.00  0.00    +0.000 F 
ENDBRANCH   8   9
ENDBRANCH   2   3
BRANCH   2  13
ATOM     13  C   UNL     1       2.862   6.343  17.850  0.00  0.00    +0.000 C 
ATOM     14  C   UNL     1       2.646   7.005  18.995  0.00  0.00    +0.000 C 
BRANCH  14  15
ATOM     15  C   UNL     1       1.824   8.223  19.097  0.00  0.00    +0.000 A 
ATOM     16  C   UNL     1       1.502   8.930  17.924  0.00  0.00    +0.000 A 
ATOM     17  C   UNL     1       0.690  10.081  17.960  0.00  0.00    +0.000 A 
ATOM     18  C   UNL     1       0.177  10.548  19.170  0.00  0.00    +0.000 A 
ATOM     19  C   UNL     1       0.505   9.852  20.312  0.00  0.00    +0.000 A 
ATOM     20  C   UNL     1       1.302   8.724  20.283  0.00  0.00    +0.000 A 
ATOM     21  O   UNL     1       1.475   8.206  21.535  0.00  0.00    +0.000 OA
ATOM     22  C   UNL     1       0.759   9.159  22.341  0.00  0.00    +0.000 C 
ATOM     23  O   UNL     1       0.094  10.174  21.569  0.00  0.00    +0.000 OA
ENDBRANCH  14  15
ENDBRANCH   2  13
TORSDOF 4
ENDMDL
MODEL 3
REMARK VINA RESULT:      -7.3      1.701      2.312
REMARK  Name = 
REMARK  4 active torsions:
REMARK  status: ('A' for Active; 'I' for Inactive)
REMARK    1  A    between atoms: C_2  and  C_3
REMARK    2  A    between atoms: C_2  and  C_14
REMARK    3  A    between atoms: C_4  and  C_5
REMARK    4  A    between atoms: C_19  and  C_20
REMARK                            x       y       z     vdW  Elec       q    Type
REMARK                         _______ _______ _______ _____ _____    ______ ____
ROOT
ATOM      1  O   UNL     1       2.495   4.193  21.478  0.00  0.00    +0.000 OA
ATOM      2  C   UNL     1       2.584   4.922  20.503  0.00  0.00    +0.000 C 
ENDROOT
BRANCH   2   3
ATOM      3  C   UNL     1       3.559   4.615  19.424  0.00  0.00    +0.000 A 
ATOM      4  C   UNL     1       4.767   5.343  19.419  0.00  0.00    +0.000 A 
ATOM      5  C   UNL     1       5.701   5.176  18.398  0.00  0.00    +0.000 A 
ATOM      6  C   UNL     1       5.434   4.296  17.360  0.00  0.00    +0.000 A 
ATOM      7  C   UNL     1       4.240   3.572  17.353  0.00  0.00    +0.000 A 
ATOM      8  C   UNL     1       3.286   3.707  18.388  0.00  0.00    +0.000 A 
BRANCH   8   9
ATOM      9  C   UNL     1       2.053   2.842  18.290  0.00  0.00    +0.000 C 
ATOM     10  F   UNL     1       1.765   2.062  19.360  0.00  0.00    +0.000 F 
ATOM     11  F   UNL     1       0.933   3.566  18.013  0.00  0.00    +0.000 F 
ATOM     12  F   UNL     1       2.167   1.959  17.249  0.00  0.00    +0.000 F 
ENDBRANCH   8   9
ENDBRANCH   2   3
BRANCH   2  13
ATOM     13  C   UNL     1       1.694   6.098  20.278  0.00  0.00    +0.000 C 
ATOM     14  C   UNL     1       2.197   7.334  20.147  0.00  0.00    +0.000 C 
BRANCH  14  15
ATOM     15  C   UNL     1       1.371   8.542  19.973  0.00  0.00    +0.000 A 
ATOM     16  C   UNL     1       1.256   9.111  18.692  0.00  0.00    +0.000 A 
ATOM     17  C   UNL     1       0.451  10.245  18.463  0.00  0.00    +0.000 A 
ATOM     18  C   UNL     1      -0.262  10.830  19.508  0.00  0.00    +0.000 A 
ATOM     19  C   UNL     1      -0.136  10.268  20.759  0.00  0.00    +0.000 A 
ATOM     20  C   UNL     1       0.653   9.158  20.990  0.00  0.00    +0.000 A 
ATOM     21  O   UNL     1       0.607   8.781  22.302  0.00  0.00    +0.000 OA
ATOM     22  C   UNL     1      -0.235   9.803  22.865  0.00  0.00    +0.000 C 
ATOM     23  O   UNL     1      -0.756  10.717  21.884  0.00  0.00    +0.000 OA
ENDBRANCH  14  15
ENDBRANCH   2  13
TORSDOF 4
ENDMDL
MODEL 4
REMARK VINA RESULT:      -7.3      1.800      2.472
REMARK  Name = 
REMARK  4 active torsions:
REMARK  status: ('A' for Active; 'I' for Inactive)
REMARK    1  A    between atoms: C_2  and  C_3
REMARK    2  A    between atoms: C_2  and  C_14
REMARK    3  A    between atoms: C_4  and  C_5
REMARK    4  A    between atoms: C_19  and  C_20
REMARK                            x       y       z     vdW  Elec       q    Type
REMARK                         _______ _______ _______ _____ _____    ______ ____
ROOT
ATOM      1  O   UNL     1       4.383   5.874  18.769  0.00  0.00    +0.000 OA
ATOM      2  C   UNL     1       3.211   5.849  19.110  0.00  0.00    +0.000 C 
ENDROOT
BRANCH   2   3
ATOM      3  C   UNL     1       2.640   4.633  19.744  0.00  0.00    +0.000 A 
ATOM      4  C   UNL     1       2.467   4.655  21.144  0.00  0.00    +0.000 A 
ATOM      5  C   UNL     1       2.014   3.529  21.828  0.00  0.00    +0.000 A 
ATOM      6  C   UNL     1       1.746   2.361  21.129  0.00  0.00    +0.000 A 
ATOM      7  C   UNL     1       1.917   2.326  19.744  0.00  0.00    +0.000 A 
ATOM      8  C   UNL     1       2.354   3.461  19.023  0.00  0.00    +0.000 A 
BRANCH   8   9
ATOM      9  C   UNL     1       2.462   3.313  17.524  0.00  0.00    +0.000 C 
ATOM     10  F   UNL     1       3.640   3.665  16.956  0.00  0.00    +0.000 F 
ATOM     11  F   UNL     1       2.181   2.047  17.108  0.00  0.00    +0.000 F 
ATOM     12  F   UNL     1       1.534   4.104  16.896  0.00  0.00    +0.000 F 
ENDBRANCH   8   9
ENDBRANCH   2   3
BRANCH   2  13
ATOM     13  C   UNL     1       2.303   7.027  18.997  0.00  0.00    +0.000 C 
ATOM     14  C   UNL     1       2.057   7.818  20.051  0.00  0.00    +0.000 C 
BRANCH  14  15
ATOM     15  C   UNL     1       1.134   8.965  20.020  0.00  0.00    +0.000 A 
ATOM     16  C   UNL     1       0.886   9.609  18.794  0.00  0.00    +0.000 A 
ATOM     17  C   UNL     1      -0.015  10.688  18.701  0.00  0.00    +0.000 A 
ATOM     18  C   UNL     1      -0.694  11.144  19.831  0.00  0.00    +0.000 A 
ATOM     19  C   UNL     1      -0.438  10.510  21.026  0.00  0.00    +0.000 A 
ATOM     20  C   UNL     1       0.446   9.453  21.124  0.00  0.00    +0.000 A 
ATOM     21  O   UNL     1       0.522   8.986  22.405  0.00  0.00    +0.000 OA
ATOM     22  C   UNL     1      -0.352   9.898  23.095  0.00  0.00    +0.000 C 
ATOM     23  O   UNL     1      -1.008  10.832  22.220  0.00  0.00    +0.000 OA
ENDBRANCH  14  15
ENDBRANCH   2  13
TORSDOF 4
ENDMDL
MODEL 5
REMARK VINA RESULT:      -7.3      1.889      2.562
REMARK  Name = 
REMARK  4 active torsions:
REMARK  status: ('A' for Active; 'I' for Inactive)
REMARK    1  A    between atoms: C_2  and  C_3
REMARK    2  A    between atoms: C_2  and  C_14
REMARK    3  A    between atoms: C_4  and  C_5
REMARK    4  A    between atoms: C_19  and  C_20
REMARK                            x       y       z     vdW  Elec       q    Type
REMARK                         _______ _______ _______ _____ _____    ______ ____
ROOT
ATOM      1  O   UNL     1       2.416   4.833  20.971  0.00  0.00    +0.000 OA
ATOM      2  C   UNL     1       2.815   5.546  20.062  0.00  0.00    +0.000 C 
ENDROOT
BRANCH   2   3
ATOM      3  C   UNL     1       3.860   5.054  19.128  0.00  0.00    +0.000 A 
ATOM      4  C   UNL     1       5.189   5.458  19.374  0.00  0.00    +0.000 A 
ATOM      5  C   UNL     1       6.218   5.109  18.502  0.00  0.00    +0.000 A 
ATOM      6  C   UNL     1       5.933   4.369  17.363  0.00  0.00    +0.000 A 
ATOM      7  C   UNL     1       4.621   3.966  17.108  0.00  0.00    +0.000 A 
ATOM      8  C   UNL     1       3.563   4.289  17.988  0.00  0.00    +0.000 A 
BRANCH   8   9
ATOM      9  C   UNL     1       2.195   3.762  17.626  0.00  0.00    +0.000 C 
ATOM     10  F   UNL     1       1.207   4.677  17.470  0.00  0.00    +0.000 F 
ATOM     11  F   UNL     1       2.215   3.003  16.495  0.00  0.00    +0.000 F 
ATOM     12  F   UNL     1       1.728   2.924  18.604  0.00  0.00    +0.000 F 
ENDBRANCH   8   9
ENDBRANCH   2   3
BRANCH   2  13
ATOM     13  C   UNL     1       2.247   6.895  19.773  0.00  0.00    +0.000 C 
ATOM     14  C   UNL     1       1.581   7.583  20.710  0.00  0.00    +0.000 C 
BRANCH  14  15
ATOM     15  C   UNL     1       0.955   8.896  20.475  0.00  0.00    +0.000 A 
ATOM     16  C   UNL     1       1.107   9.509  19.218  0.00  0.00    +0.000 A 
ATOM     17  C   UNL     1       0.499  10.747  18.928  0.00  0.00    +0.000 A 
ATOM     18  C   UNL     1      -0.279  11.396  19.886  0.00  0.00    +0.000 A 
ATOM     19  C   UNL     1      -0.415  10.789  21.115  0.00  0.00    +0.000 A 
ATOM     20  C   UNL     1       0.179   9.577  21.405  0.00  0.00    +0.000 A 
ATOM     21  O   UNL     1      -0.109   9.175  22.678  0.00  0.00    +0.000 OA
ATOM     22  C   UNL     1      -0.886  10.286  23.161  0.00  0.00    +0.000 C 
ATOM     23  O   UNL     1      -1.132  11.288  22.158  0.00  0.00    +0.000 OA
ENDBRANCH  14  15
ENDBRANCH   2  13
TORSDOF 4
ENDMDL
MODEL 6
REMARK VINA RESULT:      -7.3      3.051      4.035
REMARK  Name = 
REMARK  4 active torsions:
REMARK  status: ('A' for Active; 'I' for Inactive)
REMARK    1  A    between atoms: C_2  and  C_3
REMARK    2  A    between atoms: C_2  and  C_14
REMARK    3  A    between atoms: C_4  and  C_5
REMARK    4  A    between atoms: C_19  and  C_20
REMARK                            x       y       z     vdW  Elec       q    Type
REMARK                         _______ _______ _______ _____ _____    ______ ____
ROOT
ATOM      1  O   UNL     1       4.159   3.668  19.302  0.00  0.00    +0.000 OA
ATOM      2  C   UNL     1       4.405   4.702  18.702  0.00  0.00    +0.000 C 
ENDROOT
BRANCH   2   3
ATOM      3  C   UNL     1       5.264   4.679  17.489  0.00  0.00    +0.000 A 
ATOM      4  C   UNL     1       4.676   4.225  16.290  0.00  0.00    +0.000 A 
ATOM      5  C   UNL     1       5.430   4.096  15.126  0.00  0.00    +0.000 A 
ATOM      6  C   UNL     1       6.784   4.398  15.146  0.00  0.00    +0.000 A 
ATOM      7  C   UNL     1       7.377   4.846  16.328  0.00  0.00    +0.000 A 
ATOM      8  C   UNL     1       6.629   5.007  17.517  0.00  0.00    +0.000 A 
BRANCH   8   9
ATOM      9  C   UNL     1       7.373   5.536  18.720  0.00  0.00    +0.000 C 
ATOM     10  F   UNL     1       6.749   5.440  19.918  0.00  0.00    +0.000 F 
ATOM     11  F   UNL     1       8.600   4.963  18.863  0.00  0.00    +0.000 F 
ATOM     12  F   UNL     1       7.626   6.876  18.576  0.00  0.00    +0.000 F 
ENDBRANCH   8   9
ENDBRANCH   2   3
BRANCH   2  13
ATOM     13  C   UNL     1       3.818   6.022  19.074  0.00  0.00    +0.000 C 
ATOM     14  C   UNL     1       2.805   6.554  18.374  0.00  0.00    +0.000 C 
BRANCH  14  15
ATOM     15  C   UNL     1       2.214   7.873  18.659  0.00  0.00    +0.000 A 
ATOM     16  C   UNL     1       2.236   8.861  17.658  0.00  0.00    +0.000 A 
ATOM     17  C   UNL     1       1.654  10.127  17.866  0.00  0.00    +0.000 A 
ATOM     18  C   UNL     1       1.030  10.431  19.075  0.00  0.00    +0.000 A 
ATOM     19  C   UNL     1       1.021   9.457  20.049  0.00  0.00    +0.000 A 
ATOM     20  C   UNL     1       1.592   8.215  19.853  0.00  0.00    +0.000 A 
ATOM     21  O   UNL     1       1.446   7.422  20.955  0.00  0.00    +0.000 OA
ATOM     22  C   UNL     1       0.785   8.317  21.868  0.00  0.00    +0.000 C 
ATOM     23  O   UNL     1       0.462   9.591  21.283  0.00  0.00    +0.000 OA
ENDBRANCH  14  15
ENDBRANCH   2  13
TORSDOF 4
ENDMDL
MODEL 7
REMARK VINA RESULT:      -7.2      2.432      3.245
REMARK  Name = 
REMARK  4 active torsions:
REMARK  status: ('A' for Active; 'I' for Inactive)
REMARK    1  A    between atoms: C_2  and  C_3
REMARK    2  A    between atoms: C_2  and  C_14
REMARK    3  A    between atoms: C_4  and  C_5
REMARK    4  A    between atoms: C_19  and  C_20
REMARK                            x       y       z     vdW  Elec       q    Type
REMARK                         _______ _______ _______ _____ _____    ______ ____
ROOT
ATOM      1  O   UNL     1       3.666   7.538  17.446  0.00  0.00    +0.000 OA
ATOM      2  C   UNL     1       3.012   6.844  18.209  0.00  0.00    +0.000 C 
ENDROOT
BRANCH   2   3
ATOM      3  C   UNL     1       2.995   5.367  18.051  0.00  0.00    +0.000 A 
ATOM      4  C   UNL     1       1.740   4.752  17.862  0.00  0.00    +0.000 A 
ATOM      5  C   UNL     1       1.626   3.365  17.786  0.00  0.00    +0.000 A 
ATOM      6  C   UNL     1       2.758   2.573  17.917  0.00  0.00    +0.000 A 
ATOM      7  C   UNL     1       4.005   3.171  18.107  0.00  0.00    +0.000 A 
ATOM      8  C   UNL     1       4.151   4.576  18.166  0.00  0.00    +0.000 A 
BRANCH   8   9
ATOM      9  C   UNL     1       5.555   5.106  18.335  0.00  0.00    +0.000 C 
ATOM     10  F   UNL     1       6.011   5.949  17.378  0.00  0.00    +0.000 F 
ATOM     11  F   UNL     1       5.732   5.730  19.532  0.00  0.00    +0.000 F 
ATOM     12  F   UNL     1       6.459   4.076  18.337  0.00  0.00    +0.000 F 
ENDBRANCH   8   9
ENDBRANCH   2   3
BRANCH   2  13
ATOM     13  C   UNL     1       2.265   7.395  19.377  0.00  0.00    +0.000 C 
ATOM     14  C   UNL     1       1.596   8.554  19.289  0.00  0.00    +0.000 C 
BRANCH  14  15
ATOM     15  C   UNL     1       0.881   9.176  20.417  0.00  0.00    +0.000 A 
ATOM     16  C   UNL     1       1.146   8.729  21.724  0.00  0.00    +0.000 A 
ATOM     17  C   UNL     1       0.516   9.314  22.841  0.00  0.00    +0.000 A 
ATOM     18  C   UNL     1      -0.388  10.362  22.676  0.00  0.00    +0.000 A 
ATOM     19  C   UNL     1      -0.645  10.786  21.391  0.00  0.00    +0.000 A 
ATOM     20  C   UNL     1      -0.032  10.216  20.293  0.00  0.00    +0.000 A 
ATOM     21  O   UNL     1      -0.438  10.812  19.133  0.00  0.00    +0.000 OA
ATOM     22  C   UNL     1      -1.405  11.760  19.621  0.00  0.00    +0.000 C 
ATOM     23  O   UNL     1      -1.501  11.790  21.055  0.00  0.00    +0.000 OA
ENDBRANCH  14  15
ENDBRANCH   2  13
TORSDOF 4
ENDMDL
MODEL 8
REMARK VINA RESULT:      -7.2      2.045      2.690
REMARK  Name = 
REMARK  4 active torsions:
REMARK  status: ('A' for Active; 'I' for Inactive)
REMARK    1  A    between atoms: C_2  and  C_3
REMARK    2  A    between atoms: C_2  and  C_14
REMARK    3  A    between atoms: C_4  and  C_5
REMARK    4  A    between atoms: C_19  and  C_20
REMARK                            x       y       z     vdW  Elec       q    Type
REMARK                         _______ _______ _______ _____ _____    ______ ____
ROOT
ATOM      1  O   UNL     1       2.777   3.762  21.026  0.00  0.00    +0.000 OA
ATOM      2  C   UNL     1       2.947   4.669  20.227  0.00  0.00    +0.000 C 
ENDROOT
BRANCH   2   3
ATOM      3  C   UNL     1       3.963   4.538  19.150  0.00  0.00    +0.000 A 
ATOM      4  C   UNL     1       5.269   4.988  19.436  0.00  0.00    +0.000 A 
ATOM      5  C   UNL     1       6.262   4.976  18.458  0.00  0.00    +0.000 A 
ATOM      6  C   UNL     1       5.961   4.535  17.178  0.00  0.00    +0.000 A 
ATOM      7  C   UNL     1       4.671   4.090  16.883  0.00  0.00    +0.000 A 
ATOM      8  C   UNL     1       3.652   4.071  17.863  0.00  0.00    +0.000 A 
BRANCH   8   9
ATOM      9  C   UNL     1       2.309   3.530  17.434  0.00  0.00    +0.000 C 
ATOM     10  F   UNL     1       1.274   4.403  17.413  0.00  0.00    +0.000 F 
ATOM     11  F   UNL     1       2.356   2.939  16.208  0.00  0.00    +0.000 F 
ATOM     12  F   UNL     1       1.897   2.538  18.286  0.00  0.00    +0.000 F 
ENDBRANCH   8   9
ENDBRANCH   2   3
BRANCH   2  13
ATOM     13  C   UNL     1       2.121   5.911  20.211  0.00  0.00    +0.000 C 
ATOM     14  C   UNL     1       2.478   6.973  19.476  0.00  0.00    +0.000 C 
BRANCH  14  15
ATOM     15  C   UNL     1       1.735   8.245  19.455  0.00  0.00    +0.000 A 
ATOM     16  C   UNL     1       1.547   8.907  18.228  0.00  0.00    +0.000 A 
ATOM     17  C   UNL     1       0.813  10.107  18.147  0.00  0.00    +0.000 A 
ATOM     18  C   UNL     1       0.245  10.669  19.289  0.00  0.00    +0.000 A 
ATOM     19  C   UNL     1       0.441  10.015  20.486  0.00  0.00    +0.000 A 
ATOM     20  C   UNL     1       1.161   8.840  20.572  0.00  0.00    +0.000 A 
ATOM     21  O   UNL     1       1.207   8.379  21.857  0.00  0.00    +0.000 OA
ATOM     22  C   UNL     1       0.500   9.417  22.559  0.00  0.00    +0.000 C 
ATOM     23  O   UNL     1      -0.037  10.430  21.690  0.00  0.00    +0.000 OA
ENDBRANCH  14  15
ENDBRANCH   2  13
TORSDOF 4
ENDMDL
MODEL 9
REMARK VINA RESULT:      -7.1      2.091      2.603
REMARK  Name = 
REMARK  4 active torsions:
REMARK  status: ('A' for Active; 'I' for Inactive)
REMARK    1  A    between atoms: C_2  and  C_3
REMARK    2  A    between atoms: C_2  and  C_14
REMARK    3  A    between atoms: C_4  and  C_5
REMARK    4  A    between atoms: C_19  and  C_20
REMARK                            x       y       z     vdW  Elec       q    Type
REMARK                         _______ _______ _______ _____ _____    ______ ____
ROOT
ATOM      1  O   UNL     1       4.251   5.823  20.027  0.00  0.00    +0.000 OA
ATOM      2  C   UNL     1       3.144   5.866  19.513  0.00  0.00    +0.000 C 
ENDROOT
BRANCH   2   3
ATOM      3  C   UNL     1       2.452   4.612  19.119  0.00  0.00    +0.000 A 
ATOM      4  C   UNL     1       1.369   4.193  19.919  0.00  0.00    +0.000 A 
ATOM      5  C   UNL     1       0.716   2.987  19.669  0.00  0.00    +0.000 A 
ATOM      6  C   UNL     1       1.146   2.175  18.629  0.00  0.00    +0.000 A 
ATOM      7  C   UNL     1       2.219   2.579  17.832  0.00  0.00    +0.000 A 
ATOM      8  C   UNL     1       2.885   3.807  18.052  0.00  0.00    +0.000 A 
BRANCH   8   9
ATOM      9  C   UNL     1       4.004   4.152  17.099  0.00  0.00    +0.000 C 
ATOM     10  F   UNL     1       4.065   5.433  16.663  0.00  0.00    +0.000 F 
ATOM     11  F   UNL     1       5.229   3.846  17.608  0.00  0.00    +0.000 F 
ATOM     12  F   UNL     1       3.904   3.408  15.952  0.00  0.00    +0.000 F 
ENDBRANCH   8   9
ENDBRANCH   2   3
BRANCH   2  13
ATOM     13  C   UNL     1       2.382   7.134  19.318  0.00  0.00    +0.000 C 
ATOM     14  C   UNL     1       1.833   7.780  20.356  0.00  0.00    +0.000 C 
BRANCH  14  15
ATOM     15  C   UNL     1       1.028   9.007  20.227  0.00  0.00    +0.000 A 
ATOM     16  C   UNL     1       0.963   9.652  18.979  0.00  0.00    +0.000 A 
ATOM     17  C   UNL     1       0.180  10.809  18.791  0.00  0.00    +0.000 A 
ATOM     18  C   UNL     1      -0.561  11.342  19.846  0.00  0.00    +0.000 A 
ATOM     19  C   UNL     1      -0.483  10.705  21.064  0.00  0.00    +0.000 A 
ATOM     20  C   UNL     1       0.284   9.573  21.255  0.00  0.00    +0.000 A 
ATOM     21  O   UNL     1       0.190   9.120  22.540  0.00  0.00    +0.000 OA
ATOM     22  C   UNL     1      -0.658  10.118  23.135  0.00  0.00    +0.000 C 
ATOM     23  O   UNL     1      -1.135  11.096  22.193  0.00  0.00    +0.000 OA
ENDBRANCH  14  15
ENDBRANCH   2  13
TORSDOF 4
ENDMDL
