MODEL 1
REMARK VINA RESULT:      -9.1      0.000      0.000
REMARK  Name = 
REMARK  7 active torsions:
REMARK  status: ('A' for Active; 'I' for Inactive)
REMARK    1  A    between atoms: C_1  and  O_2
REMARK    2  A    between atoms: O_2  and  C_3
REMARK    3  A    between atoms: C_6  and  C_7
REMARK    4  A    between atoms: C_7  and  C_8
REMARK    5  A    between atoms: C_11  and  O_12
REMARK    6  A    between atoms: O_12  and  C_13
REMARK    7  A    between atoms: N_19  and  C_20
REMARK                            x       y       z     vdW  Elec       q    Type
REMARK                         _______ _______ _______ _____ _____    ______ ____
ROOT
ATOM      1  C   UNL     1       5.777   5.245  17.421  0.00  0.00    +0.000 C 
ATOM      2  N   UNL     1       5.904   4.139  18.335  0.00  0.00    +0.000 N 
ATOM      3  C   UNL     1       4.751   3.831  19.000  0.00  0.00    +0.000 C 
ATOM      4  O   UNL     1       4.738   2.929  19.822  0.00  0.00    +0.000 OA
ATOM      5  N   UNL     1       3.756   4.660  18.596  0.00  0.00    +0.000 N 
ATOM      6  C   UNL     1       4.273   5.572  17.705  0.00  0.00    +0.000 C 
ATOM      7  O   UNL     1       3.636   6.502  17.216  0.00  0.00    +0.000 OA
ATOM      8  H   UNL     1       6.760   3.657  18.560  0.00  0.00    +0.000 HD
ENDROOT
BRANCH   1  12
ATOM      9  C   UNL     1       6.388   3.947  13.291  0.00  0.00    +0.000 A 
ATOM     10  C   UNL     1       5.217   3.610  13.964  0.00  0.00    +0.000 A 
ATOM     11  C   UNL     1       5.000   4.043  15.276  0.00  0.00    +0.000 A 
ATOM     12  C   UNL     1       5.973   4.797  15.961  0.00  0.00    +0.000 A 
ATOM     13  C   UNL     1       7.174   5.072  15.282  0.00  0.00    +0.000 A 
ATOM     14  C   UNL     1       7.374   4.666  13.959  0.00  0.00    +0.000 A 
BRANCH   9  16
ATOM     15  C   UNL     1       5.550   2.471  11.659  0.00  0.00    +0.000 C 
ATOM     16  O   UNL     1       6.493   3.478  12.012  0.00  0.00    +0.000 OA
ENDBRANCH   9  16
ENDBRANCH   1  12
BRANCH   1  17
ATOM     17  C   UNL     1       6.767   6.343  17.829  0.00  0.00    +0.000 A 
ATOM     18  C   UNL     1       7.728   6.169  18.834  0.00  0.00    +0.000 A 
ATOM     19  C   UNL     1       8.557   7.225  19.224  0.00  0.00    +0.000 A 
ATOM     20  C   UNL     1       8.469   8.471  18.606  0.00  0.00    +0.000 A 
ATOM     21  C   UNL     1       7.552   8.653  17.576  0.00  0.00    +0.000 A 
ATOM     22  C   UNL     1       6.720   7.599  17.187  0.00  0.00    +0.000 A 
BRANCH  20  23
ATOM     23  O   UNL     1       9.293   9.431  19.121  0.00  0.00    +0.000 OA
ATOM     24  C   UNL     1       9.245  10.703  18.491  0.00  0.00    +0.000 C 
ENDBRANCH  20  23
ENDBRANCH   1  17
BRANCH   5  25
ATOM     25  C   UNL     1       2.342   4.683  19.003  0.00  0.00    +0.000 C 
ATOM     26  C   UNL     1       1.552   3.450  18.554  0.00  0.00    +0.000 C 
ATOM     27  C   UNL     1       1.796   2.214  19.409  0.00  0.00    +0.000 C 
ATOM     28  C   UNL     1       1.714   2.485  20.912  0.00  0.00    +0.000 C 
ATOM     29  C   UNL     1       2.368   3.778  21.398  0.00  0.00    +0.000 C 
ATOM     30  C   UNL     1       2.114   4.973  20.489  0.00  0.00    +0.000 C 
ENDBRANCH   5  25
TORSDOF 5
ENDMDL
MODEL 2
REMARK VINA RESULT:      -8.9      0.175      1.273
REMARK  Name = 
REMARK  7 active torsions:
REMARK  status: ('A' for Active; 'I' for Inactive)
REMARK    1  A    between atoms: C_1  and  O_2
REMARK    2  A    between atoms: O_2  and  C_3
REMARK    3  A    between atoms: C_6  and  C_7
REMARK    4  A    between atoms: C_7  and  C_8
REMARK    5  A    between atoms: C_11  and  O_12
REMARK    6  A    between atoms: O_12  and  C_13
REMARK    7  A    between atoms: N_19  and  C_20
REMARK                            x       y       z     vdW  Elec       q    Type
REMARK                         _______ _______ _______ _____ _____    ______ ____
ROOT
ATOM      1  C   UNL     1       5.691   5.194  17.478  0.00  0.00    +0.000 C 
ATOM      2  N   UNL     1       5.833   4.108  18.415  0.00  0.00    +0.000 N 
ATOM      3  C   UNL     1       4.676   3.772  19.058  0.00  0.00    +0.000 C 
ATOM      4  O   UNL     1       4.674   2.884  19.895  0.00  0.00    +0.000 OA
ATOM      5  N   UNL     1       3.663   4.560  18.616  0.00  0.00    +0.000 N 
ATOM      6  C   UNL     1       4.171   5.473  17.722  0.00  0.00    +0.000 C 
ATOM      7  O   UNL     1       3.514   6.372  17.201  0.00  0.00    +0.000 OA
ATOM      8  H   UNL     1       6.700   3.660  18.669  0.00  0.00    +0.000 HD
ENDROOT
BRANCH   1  12
ATOM      9  C   UNL     1       6.334   3.901  13.352  0.00  0.00    +0.000 A 
ATOM     10  C   UNL     1       7.328   4.603  14.028  0.00  0.00    +0.000 A 
ATOM     11  C   UNL     1       7.143   4.998  15.356  0.00  0.00    +0.000 A 
ATOM     12  C   UNL     1       5.937   4.728  16.031  0.00  0.00    +0.000 A 
ATOM     13  C   UNL     1       4.924   4.072  15.309  0.00  0.00    +0.000 A 
ATOM     14  C   UNL     1       5.124   3.650  13.991  0.00  0.00    +0.000 A 
BRANCH   9  16
ATOM     15  C   UNL     1       5.918   2.423  11.567  0.00  0.00    +0.000 C 
ATOM     16  O   UNL     1       6.623   3.557  12.061  0.00  0.00    +0.000 OA
ENDBRANCH   9  16
ENDBRANCH   1  12
BRANCH   1  17
ATOM     17  C   UNL     1       6.633   6.332  17.890  0.00  0.00    +0.000 A 
ATOM     18  C   UNL     1       6.591   7.605  17.307  0.00  0.00    +0.000 A 
ATOM     19  C   UNL     1       7.522   8.587  17.661  0.00  0.00    +0.000 A 
ATOM     20  C   UNL     1       8.499   8.334  18.622  0.00  0.00    +0.000 A 
ATOM     21  C   UNL     1       8.532   7.091  19.244  0.00  0.00    +0.000 A 
ATOM     22  C   UNL     1       7.604   6.107  18.890  0.00  0.00    +0.000 A 
BRANCH  20  23
ATOM     23  O   UNL     1       9.382   9.356  18.831  0.00  0.00    +0.000 OA
ATOM     24  C   UNL     1       9.022  10.617  18.286  0.00  0.00    +0.000 C 
ENDBRANCH  20  23
ENDBRANCH   1  17
BRANCH   5  25
ATOM     25  C   UNL     1       2.241   4.541  18.990  0.00  0.00    +0.000 C 
ATOM     26  C   UNL     1       1.527   3.233  18.631  0.00  0.00    +0.000 C 
ATOM     27  C   UNL     1       1.812   2.089  19.594  0.00  0.00    +0.000 C 
ATOM     28  C   UNL     1       1.678   2.481  21.066  0.00  0.00    +0.000 C 
ATOM     29  C   UNL     1       2.252   3.845  21.454  0.00  0.00    +0.000 C 
ATOM     30  C   UNL     1       1.960   4.942  20.440  0.00  0.00    +0.000 C 
ENDBRANCH   5  25
TORSDOF 5
ENDMDL
MODEL 3
REMARK VINA RESULT:      -8.1      0.909      5.518
REMARK  Name = 
REMARK  7 active torsions:
REMARK  status: ('A' for Active; 'I' for Inactive)
REMARK    1  A    between atoms: C_1  and  O_2
REMARK    2  A    between atoms: O_2  and  C_3
REMARK    3  A    between atoms: C_6  and  C_7
REMARK    4  A    between atoms: C_7  and  C_8
REMARK    5  A    between atoms: C_11  and  O_12
REMARK    6  A    between atoms: O_12  and  C_13
REMARK    7  A    between atoms: N_19  and  C_20
REMARK                            x       y       z     vdW  Elec       q    Type
REMARK                         _______ _______ _______ _____ _____    ______ ____
ROOT
ATOM      1  C   UNL     1       5.515   5.557  17.154  0.00  0.00    +0.000 C 
ATOM      2  N   UNL     1       4.175   6.087  17.176  0.00  0.00    +0.000 N 
ATOM      3  C   UNL     1       3.353   5.486  18.086  0.00  0.00    +0.000 C 
ATOM      4  O   UNL     1       2.187   5.830  18.181  0.00  0.00    +0.000 OA
ATOM      5  N   UNL     1       4.042   4.534  18.764  0.00  0.00    +0.000 N 
ATOM      6  C   UNL     1       5.315   4.456  18.248  0.00  0.00    +0.000 C 
ATOM      7  O   UNL     1       6.158   3.636  18.603  0.00  0.00    +0.000 OA
ATOM      8  H   UNL     1       3.807   6.779  16.543  0.00  0.00    +0.000 HD
ENDROOT
BRANCH   1  12
ATOM      9  C   UNL     1       8.393   8.570  18.476  0.00  0.00    +0.000 A 
ATOM     10  C   UNL     1       8.455   7.275  18.981  0.00  0.00    +0.000 A 
ATOM     11  C   UNL     1       7.556   6.297  18.545  0.00  0.00    +0.000 A 
ATOM     12  C   UNL     1       6.545   6.604  17.614  0.00  0.00    +0.000 A 
ATOM     13  C   UNL     1       6.463   7.935  17.164  0.00  0.00    +0.000 A 
ATOM     14  C   UNL     1       7.384   8.902  17.577  0.00  0.00    +0.000 A 
BRANCH   9  16
ATOM     15  C   UNL     1       9.281  10.750  18.399  0.00  0.00    +0.000 C 
ATOM     16  O   UNL     1       9.323   9.444  18.965  0.00  0.00    +0.000 OA
ENDBRANCH   9  16
ENDBRANCH   1  12
BRANCH   1  17
ATOM     17  C   UNL     1       5.816   5.025  15.748  0.00  0.00    +0.000 A 
ATOM     18  C   UNL     1       4.870   4.341  14.971  0.00  0.00    +0.000 A 
ATOM     19  C   UNL     1       5.215   3.808  13.726  0.00  0.00    +0.000 A 
ATOM     20  C   UNL     1       6.501   3.964  13.211  0.00  0.00    +0.000 A 
ATOM     21  C   UNL     1       7.443   4.676  13.945  0.00  0.00    +0.000 A 
ATOM     22  C   UNL     1       7.100   5.208  15.192  0.00  0.00    +0.000 A 
BRANCH  20  23
ATOM     23  O   UNL     1       6.722   3.343  12.014  0.00  0.00    +0.000 OA
ATOM     24  C   UNL     1       5.774   2.357  11.633  0.00  0.00    +0.000 C 
ENDBRANCH  20  23
ENDBRANCH   1  17
BRANCH   5  25
ATOM     25  C   UNL     1       3.588   3.659  19.856  0.00  0.00    +0.000 C 
ATOM     26  C   UNL     1       2.580   4.324  20.798  0.00  0.00    +0.000 C 
ATOM     27  C   UNL     1       1.164   4.390  20.241  0.00  0.00    +0.000 C 
ATOM     28  C   UNL     1       0.677   3.067  19.650  0.00  0.00    +0.000 C 
ATOM     29  C   UNL     1       1.693   2.290  18.813  0.00  0.00    +0.000 C 
ATOM     30  C   UNL     1       3.096   2.282  19.404  0.00  0.00    +0.000 C 
ENDBRANCH   5  25
TORSDOF 5
ENDMDL
MODEL 4
REMARK VINA RESULT:      -8.0      0.892      5.475
REMARK  Name = 
REMARK  7 active torsions:
REMARK  status: ('A' for Active; 'I' for Inactive)
REMARK    1  A    between atoms: C_1  and  O_2
REMARK    2  A    between atoms: O_2  and  C_3
REMARK    3  A    between atoms: C_6  and  C_7
REMARK    4  A    between atoms: C_7  and  C_8
REMARK    5  A    between atoms: C_11  and  O_12
REMARK    6  A    between atoms: O_12  and  C_13
REMARK    7  A    between atoms: N_19  and  C_20
REMARK                            x       y       z     vdW  Elec       q    Type
REMARK                         _______ _______ _______ _____ _____    ______ ____
ROOT
ATOM      1  C   UNL     1       5.532   5.555  17.279  0.00  0.00    +0.000 C 
ATOM      2  N   UNL     1       4.195   6.087  17.230  0.00  0.00    +0.000 N 
ATOM      3  C   UNL     1       3.338   5.526  18.132  0.00  0.00    +0.000 C 
ATOM      4  O   UNL     1       2.169   5.875  18.170  0.00  0.00    +0.000 OA
ATOM      5  N   UNL     1       3.998   4.601  18.875  0.00  0.00    +0.000 N 
ATOM      6  C   UNL     1       5.288   4.500  18.410  0.00  0.00    +0.000 C 
ATOM      7  O   UNL     1       6.116   3.694  18.830  0.00  0.00    +0.000 OA
ATOM      8  H   UNL     1       3.852   6.754  16.556  0.00  0.00    +0.000 HD
ENDROOT
BRANCH   1  12
ATOM      9  C   UNL     1       8.465   8.535  18.556  0.00  0.00    +0.000 A 
ATOM     10  C   UNL     1       7.501   8.865  17.607  0.00  0.00    +0.000 A 
ATOM     11  C   UNL     1       6.542   7.926  17.212  0.00  0.00    +0.000 A 
ATOM     12  C   UNL     1       6.548   6.619  17.734  0.00  0.00    +0.000 A 
ATOM     13  C   UNL     1       7.569   6.291  18.644  0.00  0.00    +0.000 A 
ATOM     14  C   UNL     1       8.507   7.240  19.062  0.00  0.00    +0.000 A 
BRANCH   9  16
ATOM     15  C   UNL     1       9.071  10.794  18.282  0.00  0.00    +0.000 C 
ATOM     16  O   UNL     1       9.348   9.529  18.874  0.00  0.00    +0.000 OA
ENDBRANCH   9  16
ENDBRANCH   1  12
BRANCH   1  17
ATOM     17  C   UNL     1       5.883   4.965  15.908  0.00  0.00    +0.000 A 
ATOM     18  C   UNL     1       7.093   5.229  15.251  0.00  0.00    +0.000 A 
ATOM     19  C   UNL     1       7.335   4.730  13.968  0.00  0.00    +0.000 A 
ATOM     20  C   UNL     1       6.392   3.936  13.318  0.00  0.00    +0.000 A 
ATOM     21  C   UNL     1       5.203   3.627  13.969  0.00  0.00    +0.000 A 
ATOM     22  C   UNL     1       4.957   4.126  15.252  0.00  0.00    +0.000 A 
BRANCH  20  23
ATOM     23  O   UNL     1       6.727   3.565  12.046  0.00  0.00    +0.000 OA
ATOM     24  C   UNL     1       6.034   2.444  11.516  0.00  0.00    +0.000 C 
ENDBRANCH  20  23
ENDBRANCH   1  17
BRANCH   5  25
ATOM     25  C   UNL     1       3.501   3.773  19.984  0.00  0.00    +0.000 C 
ATOM     26  C   UNL     1       2.452   4.474  20.853  0.00  0.00    +0.000 C 
ATOM     27  C   UNL     1       1.061   4.509  20.235  0.00  0.00    +0.000 C 
ATOM     28  C   UNL     1       0.602   3.158  19.683  0.00  0.00    +0.000 C 
ATOM     29  C   UNL     1       1.655   2.351  18.924  0.00  0.00    +0.000 C 
ATOM     30  C   UNL     1       3.032   2.375  19.573  0.00  0.00    +0.000 C 
ENDBRANCH   5  25
TORSDOF 5
ENDMDL
MODEL 5
REMARK VINA RESULT:      -7.5      7.091     10.298
REMARK  Name = 
REMARK  7 active torsions:
REMARK  status: ('A' for Active; 'I' for Inactive)
REMARK    1  A    between atoms: C_1  and  O_2
REMARK    2  A    between atoms: O_2  and  C_3
REMARK    3  A    between atoms: C_6  and  C_7
REMARK    4  A    between atoms: C_7  and  C_8
REMARK    5  A    between atoms: C_11  and  O_12
REMARK    6  A    between atoms: O_12  and  C_13
REMARK    7  A    between atoms: N_19  and  C_20
REMARK                            x       y       z     vdW  Elec       q    Type
REMARK                         _______ _______ _______ _____ _____    ______ ____
ROOT
ATOM      1  C   UNL     1       0.559  11.128  19.058  0.00  0.00    +0.000 C 
ATOM      2  N   UNL     1       1.289  11.928  18.107  0.00  0.00    +0.000 N 
ATOM      3  C   UNL     1       1.917  13.010  18.655  0.00  0.00    +0.000 C 
ATOM      4  O   UNL     1       2.546  13.778  17.946  0.00  0.00    +0.000 OA
ATOM      5  N   UNL     1       1.699  13.034  19.994  0.00  0.00    +0.000 N 
ATOM      6  C   UNL     1       0.859  11.997  20.325  0.00  0.00    +0.000 C 
ATOM      7  O   UNL     1       0.416  11.796  21.453  0.00  0.00    +0.000 OA
ATOM      8  H   UNL     1       1.298  11.791  17.109  0.00  0.00    +0.000 HD
ENDROOT
BRANCH   1  12
ATOM      9  C   UNL     1       2.352   7.160  19.448  0.00  0.00    +0.000 A 
ATOM     10  C   UNL     1       1.656   7.721  20.515  0.00  0.00    +0.000 A 
ATOM     11  C   UNL     1       1.056   8.978  20.392  0.00  0.00    +0.000 A 
ATOM     12  C   UNL     1       1.171   9.722  19.202  0.00  0.00    +0.000 A 
ATOM     13  C   UNL     1       1.931   9.162  18.159  0.00  0.00    +0.000 A 
ATOM     14  C   UNL     1       2.501   7.891  18.274  0.00  0.00    +0.000 A 
BRANCH   9  16
ATOM     15  C   UNL     1       2.123   5.078  20.524  0.00  0.00    +0.000 C 
ATOM     16  O   UNL     1       2.891   5.925  19.675  0.00  0.00    +0.000 OA
ENDBRANCH   9  16
ENDBRANCH   1  12
BRANCH   1  17
ATOM     17  C   UNL     1      -0.915  11.080  18.639  0.00  0.00    +0.000 A 
ATOM     18  C   UNL     1      -1.871  11.993  19.106  0.00  0.00    +0.000 A 
ATOM     19  C   UNL     1      -3.218  11.862  18.756  0.00  0.00    +0.000 A 
ATOM     20  C   UNL     1      -3.643  10.836  17.914  0.00  0.00    +0.000 A 
ATOM     21  C   UNL     1      -2.704   9.945  17.405  0.00  0.00    +0.000 A 
ATOM     22  C   UNL     1      -1.357  10.073  17.755  0.00  0.00    +0.000 A 
BRANCH  20  23
ATOM     23  O   UNL     1      -4.991  10.784  17.700  0.00  0.00    +0.000 OA
ATOM     24  C   UNL     1      -5.623  12.016  17.380  0.00  0.00    +0.000 C 
ENDBRANCH  20  23
ENDBRANCH   1  17
BRANCH   5  25
ATOM     25  C   UNL     1       2.201  13.983  21.000  0.00  0.00    +0.000 C 
ATOM     26  C   UNL     1       3.730  14.084  21.041  0.00  0.00    +0.000 C 
ATOM     27  C   UNL     1       4.323  14.931  19.923  0.00  0.00    +0.000 C 
ATOM     28  C   UNL     1       3.620  16.276  19.735  0.00  0.00    +0.000 C 
ATOM     29  C   UNL     1       2.094  16.255  19.825  0.00  0.00    +0.000 C 
ATOM     30  C   UNL     1       1.558  15.371  20.942  0.00  0.00    +0.000 C 
ENDBRANCH   5  25
TORSDOF 5
ENDMDL
MODEL 6
REMARK VINA RESULT:      -7.4      7.087     10.308
REMARK  Name = 
REMARK  7 active torsions:
REMARK  status: ('A' for Active; 'I' for Inactive)
REMARK    1  A    between atoms: C_1  and  O_2
REMARK    2  A    between atoms: O_2  and  C_3
REMARK    3  A    between atoms: C_6  and  C_7
REMARK    4  A    between atoms: C_7  and  C_8
REMARK    5  A    between atoms: C_11  and  O_12
REMARK    6  A    between atoms: O_12  and  C_13
REMARK    7  A    between atoms: N_19  and  C_20
REMARK                            x       y       z     vdW  Elec       q    Type
REMARK                         _______ _______ _______ _____ _____    ______ ____
ROOT
ATOM      1  C   UNL     1       0.545  11.018  19.133  0.00  0.00    +0.000 C 
ATOM      2  N   UNL     1       1.275  11.801  18.169  0.00  0.00    +0.000 N 
ATOM      3  C   UNL     1       1.888  12.902  18.695  0.00  0.00    +0.000 C 
ATOM      4  O   UNL     1       2.516  13.659  17.972  0.00  0.00    +0.000 OA
ATOM      5  N   UNL     1       1.658  12.958  20.031  0.00  0.00    +0.000 N 
ATOM      6  C   UNL     1       0.825  11.921  20.381  0.00  0.00    +0.000 C 
ATOM      7  O   UNL     1       0.375  11.744  21.510  0.00  0.00    +0.000 OA
ATOM      8  H   UNL     1       1.294  11.639  17.175  0.00  0.00    +0.000 HD
ENDROOT
BRANCH   1  12
ATOM      9  C   UNL     1       2.257   7.032  19.673  0.00  0.00    +0.000 A 
ATOM     10  C   UNL     1       2.432   7.711  18.470  0.00  0.00    +0.000 A 
ATOM     11  C   UNL     1       1.911   8.997  18.297  0.00  0.00    +0.000 A 
ATOM     12  C   UNL     1       1.168   9.622  19.317  0.00  0.00    +0.000 A 
ATOM     13  C   UNL     1       0.953   8.892  20.500  0.00  0.00    +0.000 A 
ATOM     14  C   UNL     1       1.503   7.620  20.683  0.00  0.00    +0.000 A 
BRANCH   9  16
ATOM     15  C   UNL     1       2.263   4.929  20.733  0.00  0.00    +0.000 C 
ATOM     16  O   UNL     1       2.814   5.785  19.737  0.00  0.00    +0.000 OA
ENDBRANCH   9  16
ENDBRANCH   1  12
BRANCH   1  17
ATOM     17  C   UNL     1      -0.925  10.945  18.704  0.00  0.00    +0.000 A 
ATOM     18  C   UNL     1      -1.403  10.013  17.773  0.00  0.00    +0.000 A 
ATOM     19  C   UNL     1      -2.737  10.036  17.355  0.00  0.00    +0.000 A 
ATOM     20  C   UNL     1      -3.634  10.969  17.872  0.00  0.00    +0.000 A 
ATOM     21  C   UNL     1      -3.191  11.876  18.829  0.00  0.00    +0.000 A 
ATOM     22  C   UNL     1      -1.857  11.856  19.246  0.00  0.00    +0.000 A 
BRANCH  20  23
ATOM     23  O   UNL     1      -4.890  10.922  17.336  0.00  0.00    +0.000 OA
ATOM     24  C   UNL     1      -5.746  12.012  17.647  0.00  0.00    +0.000 C 
ENDBRANCH  20  23
ENDBRANCH   1  17
BRANCH   5  25
ATOM     25  C   UNL     1       2.143  13.936  21.017  0.00  0.00    +0.000 C 
ATOM     26  C   UNL     1       3.663  14.130  20.996  0.00  0.00    +0.000 C 
ATOM     27  C   UNL     1       4.158  15.009  19.856  0.00  0.00    +0.000 C 
ATOM     28  C   UNL     1       3.368  16.309  19.699  0.00  0.00    +0.000 C 
ATOM     29  C   UNL     1       1.851  16.196  19.850  0.00  0.00    +0.000 C 
ATOM     30  C   UNL     1       1.415  15.283  20.987  0.00  0.00    +0.000 C 
ENDBRANCH   5  25
TORSDOF 5
ENDMDL
MODEL 7
REMARK VINA RESULT:      -7.3      0.661      1.483
REMARK  Name = 
REMARK  7 active torsions:
REMARK  status: ('A' for Active; 'I' for Inactive)
REMARK    1  A    between atoms: C_1  and  O_2
REMARK    2  A    between atoms: O_2  and  C_3
REMARK    3  A    between atoms: C_6  and  C_7
REMARK    4  A    between atoms: C_7  and  C_8
REMARK    5  A    between atoms: C_11  and  O_12
REMARK    6  A    between atoms: O_12  and  C_13
REMARK    7  A    between atoms: N_19  and  C_20
REMARK                            x       y       z     vdW  Elec       q    Type
REMARK                         _______ _______ _______ _____ _____    ______ ____
ROOT
ATOM      1  C   UNL     1       5.947   5.190  17.203  0.00  0.00    +0.000 C 
ATOM      2  N   UNL     1       6.068   4.077  18.110  0.00  0.00    +0.000 N 
ATOM      3  C   UNL     1       4.893   3.709  18.701  0.00  0.00    +0.000 C 
ATOM      4  O   UNL     1       4.872   2.795  19.509  0.00  0.00    +0.000 OA
ATOM      5  N   UNL     1       3.888   4.500  18.248  0.00  0.00    +0.000 N 
ATOM      6  C   UNL     1       4.415   5.446  17.401  0.00  0.00    +0.000 C 
ATOM      7  O   UNL     1       3.768   6.354  16.886  0.00  0.00    +0.000 OA
ATOM      8  H   UNL     1       6.930   3.630  18.380  0.00  0.00    +0.000 HD
ENDROOT
BRANCH   1  12
ATOM      9  C   UNL     1       6.746   4.030  13.065  0.00  0.00    +0.000 A 
ATOM     10  C   UNL     1       7.663   4.812  13.761  0.00  0.00    +0.000 A 
ATOM     11  C   UNL     1       7.429   5.166  15.093  0.00  0.00    +0.000 A 
ATOM     12  C   UNL     1       6.248   4.773  15.752  0.00  0.00    +0.000 A 
ATOM     13  C   UNL     1       5.308   4.036  15.009  0.00  0.00    +0.000 A 
ATOM     14  C   UNL     1       5.560   3.655  13.687  0.00  0.00    +0.000 A 
BRANCH   9  16
ATOM     15  C   UNL     1       6.784   2.404  11.362  0.00  0.00    +0.000 C 
ATOM     16  O   UNL     1       7.077   3.736  11.772  0.00  0.00    +0.000 OA
ENDBRANCH   9  16
ENDBRANCH   1  12
BRANCH   1  17
ATOM     17  C   UNL     1       6.861   6.324  17.683  0.00  0.00    +0.000 A 
ATOM     18  C   UNL     1       7.785   6.170  18.725  0.00  0.00    +0.000 A 
ATOM     19  C   UNL     1       8.542   7.255  19.179  0.00  0.00    +0.000 A 
ATOM     20  C   UNL     1       8.416   8.512  18.589  0.00  0.00    +0.000 A 
ATOM     21  C   UNL     1       7.537   8.677  17.525  0.00  0.00    +0.000 A 
ATOM     22  C   UNL     1       6.777   7.593  17.072  0.00  0.00    +0.000 A 
BRANCH  20  23
ATOM     23  O   UNL     1       9.167   9.497  19.166  0.00  0.00    +0.000 OA
ATOM     24  C   UNL     1       9.407  10.650  18.371  0.00  0.00    +0.000 C 
ENDBRANCH  20  23
ENDBRANCH   1  17
BRANCH   5  25
ATOM     25  C   UNL     1       2.453   4.455  18.570  0.00  0.00    +0.000 C 
ATOM     26  C   UNL     1       2.132   3.653  19.836  0.00  0.00    +0.000 C 
ATOM     27  C   UNL     1       2.416   4.401  21.131  0.00  0.00    +0.000 C 
ATOM     28  C   UNL     1       1.863   5.827  21.147  0.00  0.00    +0.000 C 
ATOM     29  C   UNL     1       2.033   6.629  19.856  0.00  0.00    +0.000 C 
ATOM     30  C   UNL     1       1.764   5.821  18.594  0.00  0.00    +0.000 C 
ENDBRANCH   5  25
TORSDOF 5
ENDMDL
MODEL 8
REMARK VINA RESULT:      -7.3      0.554      1.394
REMARK  Name = 
REMARK  7 active torsions:
REMARK  status: ('A' for Active; 'I' for Inactive)
REMARK    1  A    between atoms: C_1  and  O_2
REMARK    2  A    between atoms: O_2  and  C_3
REMARK    3  A    between atoms: C_6  and  C_7
REMARK    4  A    between atoms: C_7  and  C_8
REMARK    5  A    between atoms: C_11  and  O_12
REMARK    6  A    between atoms: O_12  and  C_13
REMARK    7  A    between atoms: N_19  and  C_20
REMARK                            x       y       z     vdW  Elec       q    Type
REMARK                         _______ _______ _______ _____ _____    ______ ____
ROOT
ATOM      1  C   UNL     1       5.838   5.030  17.272  0.00  0.00    +0.000 C 
ATOM      2  N   UNL     1       6.050   3.899  18.138  0.00  0.00    +0.000 N 
ATOM      3  C   UNL     1       4.918   3.450  18.755  0.00  0.00    +0.000 C 
ATOM      4  O   UNL     1       4.974   2.512  19.535  0.00  0.00    +0.000 OA
ATOM      5  N   UNL     1       3.856   4.196  18.360  0.00  0.00    +0.000 N 
ATOM      6  C   UNL     1       4.302   5.195  17.527  0.00  0.00    +0.000 C 
ATOM      7  O   UNL     1       3.588   6.080  17.061  0.00  0.00    +0.000 OA
ATOM      8  H   UNL     1       6.944   3.493  18.366  0.00  0.00    +0.000 HD
ENDROOT
BRANCH   1  12
ATOM      9  C   UNL     1       6.673   3.994  13.107  0.00  0.00    +0.000 A 
ATOM     10  C   UNL     1       5.510   3.539  13.721  0.00  0.00    +0.000 A 
ATOM     11  C   UNL     1       5.220   3.887  15.044  0.00  0.00    +0.000 A 
ATOM     12  C   UNL     1       6.112   4.673  15.799  0.00  0.00    +0.000 A 
ATOM     13  C   UNL     1       7.310   5.069  15.177  0.00  0.00    +0.000 A 
ATOM     14  C   UNL     1       7.581   4.748  13.844  0.00  0.00    +0.000 A 
BRANCH   9  16
ATOM     15  C   UNL     1       6.141   2.427  11.432  0.00  0.00    +0.000 C 
ATOM     16  O   UNL     1       6.853   3.600  11.811  0.00  0.00    +0.000 OA
ENDBRANCH   9  16
ENDBRANCH   1  12
BRANCH   1  17
ATOM     17  C   UNL     1       6.704   6.198  17.757  0.00  0.00    +0.000 A 
ATOM     18  C   UNL     1       6.638   7.482  17.197  0.00  0.00    +0.000 A 
ATOM     19  C   UNL     1       7.503   8.495  17.621  0.00  0.00    +0.000 A 
ATOM     20  C   UNL     1       8.436   8.263  18.630  0.00  0.00    +0.000 A 
ATOM     21  C   UNL     1       8.490   7.010  19.229  0.00  0.00    +0.000 A 
ATOM     22  C   UNL     1       7.627   5.994  18.805  0.00  0.00    +0.000 A 
BRANCH  20  23
ATOM     23  O   UNL     1       9.260   9.318  18.907  0.00  0.00    +0.000 OA
ATOM     24  C   UNL     1       8.943  10.546  18.269  0.00  0.00    +0.000 C 
ENDBRANCH  20  23
ENDBRANCH   1  17
BRANCH   5  25
ATOM     25  C   UNL     1       2.438   4.061  18.727  0.00  0.00    +0.000 C 
ATOM     26  C   UNL     1       2.207   3.245  20.004  0.00  0.00    +0.000 C 
ATOM     27  C   UNL     1       2.484   4.015  21.288  0.00  0.00    +0.000 C 
ATOM     28  C   UNL     1       1.843   5.403  21.319  0.00  0.00    +0.000 C 
ATOM     29  C   UNL     1       1.922   6.209  20.022  0.00  0.00    +0.000 C 
ATOM     30  C   UNL     1       1.665   5.382  18.770  0.00  0.00    +0.000 C 
ENDBRANCH   5  25
TORSDOF 5
ENDMDL
MODEL 9
REMARK VINA RESULT:      -7.2      7.538      9.840
REMARK  Name = 
REMARK  7 active torsions:
REMARK  status: ('A' for Active; 'I' for Inactive)
REMARK    1  A    between atoms: C_1  and  O_2
REMARK    2  A    between atoms: O_2  and  C_3
REMARK    3  A    between atoms: C_6  and  C_7
REMARK    4  A    between atoms: C_7  and  C_8
REMARK    5  A    between atoms: C_11  and  O_12
REMARK    6  A    between atoms: O_12  and  C_13
REMARK    7  A    between atoms: N_19  and  C_20
REMARK                            x       y       z     vdW  Elec       q    Type
REMARK                         _______ _______ _______ _____ _____    ______ ____
ROOT
ATOM      1  C   UNL     1       0.113  10.718  19.506  0.00  0.00    +0.000 C 
ATOM      2  N   UNL     1      -0.341  10.771  20.872  0.00  0.00    +0.000 N 
ATOM      3  C   UNL     1      -0.001  11.920  21.527  0.00  0.00    +0.000 C 
ATOM      4  O   UNL     1      -0.306  12.073  22.699  0.00  0.00    +0.000 OA
ATOM      5  N   UNL     1       0.676  12.742  20.685  0.00  0.00    +0.000 N 
ATOM      6  C   UNL     1       0.846  12.100  19.482  0.00  0.00    +0.000 C 
ATOM      7  O   UNL     1       1.486  12.556  18.537  0.00  0.00    +0.000 OA
ATOM      8  H   UNL     1      -0.797  10.023  21.370  0.00  0.00    +0.000 HD
ENDROOT
BRANCH   1  12
ATOM      9  C   UNL     1      -3.231  10.754  16.690  0.00  0.00    +0.000 A 
ATOM     10  C   UNL     1      -2.208   9.821  16.548  0.00  0.00    +0.000 A 
ATOM     11  C   UNL     1      -1.148   9.784  17.459  0.00  0.00    +0.000 A 
ATOM     12  C   UNL     1      -1.069  10.708  18.518  0.00  0.00    +0.000 A 
ATOM     13  C   UNL     1      -2.082  11.681  18.605  0.00  0.00    +0.000 A 
ATOM     14  C   UNL     1      -3.158  11.695  17.712  0.00  0.00    +0.000 A 
BRANCH   9  16
ATOM     15  C   UNL     1      -3.818  10.192  14.480  0.00  0.00    +0.000 C 
ATOM     16  O   UNL     1      -4.221  10.697  15.749  0.00  0.00    +0.000 OA
ENDBRANCH   9  16
ENDBRANCH   1  12
BRANCH   1  17
ATOM     17  C   UNL     1       1.024   9.497  19.332  0.00  0.00    +0.000 A 
ATOM     18  C   UNL     1       1.710   9.220  18.141  0.00  0.00    +0.000 A 
ATOM     19  C   UNL     1       2.468   8.053  18.006  0.00  0.00    +0.000 A 
ATOM     20  C   UNL     1       2.584   7.147  19.058  0.00  0.00    +0.000 A 
ATOM     21  C   UNL     1       1.946   7.424  20.263  0.00  0.00    +0.000 A 
ATOM     22  C   UNL     1       1.185   8.589  20.400  0.00  0.00    +0.000 A 
BRANCH  20  23
ATOM     23  O   UNL     1       3.303   6.021  18.774  0.00  0.00    +0.000 OA
ATOM     24  C   UNL     1       4.408   6.186  17.898  0.00  0.00    +0.000 C 
ENDBRANCH  20  23
ENDBRANCH   1  17
BRANCH   5  25
ATOM     25  C   UNL     1       1.206  14.092  20.932  0.00  0.00    +0.000 C 
ATOM     26  C   UNL     1       1.205  14.990  19.690  0.00  0.00    +0.000 C 
ATOM     27  C   UNL     1      -0.160  15.571  19.348  0.00  0.00    +0.000 C 
ATOM     28  C   UNL     1      -0.884  16.179  20.550  0.00  0.00    +0.000 C 
ATOM     29  C   UNL     1      -0.797  15.391  21.857  0.00  0.00    +0.000 C 
ATOM     30  C   UNL     1       0.583  14.811  22.131  0.00  0.00    +0.000 C 
ENDBRANCH   5  25
TORSDOF 5
ENDMDL
