MODEL 1
REMARK VINA RESULT:      -8.6      0.000      0.000
REMARK  Name = 
REMARK  5 active torsions:
REMARK  status: ('A' for Active; 'I' for Inactive)
REMARK    1  A    between atoms: C_1  and  O_2
REMARK    2  A    between atoms: O_2  and  C_3
REMARK    3  A    between atoms: C_6  and  N_7
REMARK    4  A    between atoms: C_10  and  C_11
REMARK    5  A    between atoms: C_20  and  C_21
REMARK                            x       y       z     vdW  Elec       q    Type
REMARK                         _______ _______ _______ _____ _____    ______ ____
ROOT
ATOM      1  N   UNL     1       2.253   6.630  19.672  0.00  0.00    +0.000 N 
ATOM      2  C   UNL     1       3.222   6.146  18.829  0.00  0.00    +0.000 A 
ATOM      3  C   UNL     1       3.499   4.876  19.245  0.00  0.00    +0.000 A 
ATOM      4  C   UNL     1       4.465   4.006  18.721  0.00  0.00    +0.000 A 
ATOM      5  N   UNL     1       4.374   2.762  19.280  0.00  0.00    +0.000 NA
ATOM      6  N   UNL     1       3.389   2.404  20.307  0.00  0.00    +0.000 NA
ATOM      7  C   UNL     1       2.460   3.271  20.824  0.00  0.00    +0.000 A 
ATOM      8  C   UNL     1       1.476   2.791  21.831  0.00  0.00    +0.000 C 
ATOM      9  C   UNL     1       2.530   4.569  20.266  0.00  0.00    +0.000 A 
ATOM     10  N   UNL     1       1.794   5.671  20.522  0.00  0.00    +0.000 NA
ENDROOT
BRANCH   4  11
ATOM     11  C   UNL     1       5.442   4.298  17.673  0.00  0.00    +0.000 A 
ATOM     12  C   UNL     1       6.642   4.989  17.939  0.00  0.00    +0.000 A 
ATOM     13  C   UNL     1       7.505   5.388  16.915  0.00  0.00    +0.000 A 
ATOM     14  C   UNL     1       7.215   5.051  15.599  0.00  0.00    +0.000 A 
ATOM     15  C   UNL     1       6.076   4.299  15.320  0.00  0.00    +0.000 A 
ATOM     16 BR   UNL     1       5.707   3.799  13.534  0.00  0.00    +0.000 Br
ATOM     17  C   UNL     1       5.198   3.924  16.341  0.00  0.00    +0.000 A 
ENDBRANCH   4  11
BRANCH   1  21
ATOM     18  C   UNL     1       0.757  10.588  19.754  0.00  0.00    +0.000 A 
ATOM     19  C   UNL     1       0.738   9.808  20.909  0.00  0.00    +0.000 A 
ATOM     20  C   UNL     1       1.240   8.507  20.892  0.00  0.00    +0.000 A 
ATOM     21  C   UNL     1       1.759   7.965  19.706  0.00  0.00    +0.000 A 
ATOM     22  C   UNL     1       1.760   8.743  18.541  0.00  0.00    +0.000 A 
ATOM     23  C   UNL     1       1.257  10.050  18.568  0.00  0.00    +0.000 A 
BRANCH  18  25
ATOM     24  C   UNL     1      -0.560  12.304  18.812  0.00  0.00    +0.000 C 
ATOM     25  O   UNL     1       0.229  11.841  19.900  0.00  0.00    +0.000 OA
ENDBRANCH  18  25
ENDBRANCH   1  21
TORSDOF 3
ENDMDL
MODEL 2
REMARK VINA RESULT:      -8.6      0.322      1.017
REMARK  Name = 
REMARK  5 active torsions:
REMARK  status: ('A' for Active; 'I' for Inactive)
REMARK    1  A    between atoms: C_1  and  O_2
REMARK    2  A    between atoms: O_2  and  C_3
REMARK    3  A    between atoms: C_6  and  N_7
REMARK    4  A    between atoms: C_10  and  C_11
REMARK    5  A    between atoms: C_20  and  C_21
REMARK                            x       y       z     vdW  Elec       q    Type
REMARK                         _______ _______ _______ _____ _____    ______ ____
ROOT
ATOM      1  N   UNL     1       2.174   6.646  19.931  0.00  0.00    +0.000 N 
ATOM      2  C   UNL     1       3.175   6.225  19.091  0.00  0.00    +0.000 A 
ATOM      3  C   UNL     1       3.463   4.939  19.446  0.00  0.00    +0.000 A 
ATOM      4  C   UNL     1       4.460   4.115  18.904  0.00  0.00    +0.000 A 
ATOM      5  N   UNL     1       4.376   2.841  19.392  0.00  0.00    +0.000 NA
ATOM      6  N   UNL     1       3.371   2.412  20.371  0.00  0.00    +0.000 NA
ATOM      7  C   UNL     1       2.412   3.234  20.907  0.00  0.00    +0.000 A 
ATOM      8  C   UNL     1       1.411   2.684  21.860  0.00  0.00    +0.000 C 
ATOM      9  C   UNL     1       2.474   4.561  20.422  0.00  0.00    +0.000 A 
ATOM     10  N   UNL     1       1.711   5.635  20.716  0.00  0.00    +0.000 NA
ENDROOT
BRANCH   4  11
ATOM     11  C   UNL     1       5.458   4.480  17.900  0.00  0.00    +0.000 A 
ATOM     12  C   UNL     1       6.566   5.297  18.208  0.00  0.00    +0.000 A 
ATOM     13  C   UNL     1       7.440   5.757  17.220  0.00  0.00    +0.000 A 
ATOM     14  C   UNL     1       7.259   5.360  15.900  0.00  0.00    +0.000 A 
ATOM     15  C   UNL     1       6.218   4.488  15.585  0.00  0.00    +0.000 A 
ATOM     16 BR   UNL     1       6.002   3.910  13.798  0.00  0.00    +0.000 Br
ATOM     17  C   UNL     1       5.328   4.050  16.569  0.00  0.00    +0.000 A 
ENDBRANCH   4  11
BRANCH   1  21
ATOM     18  C   UNL     1       0.662  10.588  20.222  0.00  0.00    +0.000 A 
ATOM     19  C   UNL     1       1.170  10.121  19.012  0.00  0.00    +0.000 A 
ATOM     20  C   UNL     1       1.659   8.819  18.905  0.00  0.00    +0.000 A 
ATOM     21  C   UNL     1       1.655   7.969  20.022  0.00  0.00    +0.000 A 
ATOM     22  C   UNL     1       1.163   8.446  21.243  0.00  0.00    +0.000 A 
ATOM     23  C   UNL     1       0.671   9.755  21.340  0.00  0.00    +0.000 A 
BRANCH  18  25
ATOM     24  C   UNL     1      -0.506  12.259  19.034  0.00  0.00    +0.000 C 
ATOM     25  O   UNL     1       0.221  11.883  20.197  0.00  0.00    +0.000 OA
ENDBRANCH  18  25
ENDBRANCH   1  21
TORSDOF 3
ENDMDL
MODEL 3
REMARK VINA RESULT:      -8.2      1.586      1.903
REMARK  Name = 
REMARK  5 active torsions:
REMARK  status: ('A' for Active; 'I' for Inactive)
REMARK    1  A    between atoms: C_1  and  O_2
REMARK    2  A    between atoms: O_2  and  C_3
REMARK    3  A    between atoms: C_6  and  N_7
REMARK    4  A    between atoms: C_10  and  C_11
REMARK    5  A    between atoms: C_20  and  C_21
REMARK                            x       y       z     vdW  Elec       q    Type
REMARK                         _______ _______ _______ _____ _____    ______ ____
ROOT
ATOM      1  N   UNL     1       1.984   6.783  20.262  0.00  0.00    +0.000 N 
ATOM      2  C   UNL     1       2.953   6.468  19.343  0.00  0.00    +0.000 A 
ATOM      3  C   UNL     1       3.258   5.152  19.536  0.00  0.00    +0.000 A 
ATOM      4  C   UNL     1       4.236   4.403  18.867  0.00  0.00    +0.000 A 
ATOM      5  N   UNL     1       4.173   3.080  19.207  0.00  0.00    +0.000 NA
ATOM      6  N   UNL     1       3.206   2.534  20.165  0.00  0.00    +0.000 NA
ATOM      7  C   UNL     1       2.265   3.283  20.828  0.00  0.00    +0.000 A 
ATOM      8  C   UNL     1       1.301   2.619  21.745  0.00  0.00    +0.000 C 
ATOM      9  C   UNL     1       2.306   4.657  20.498  0.00  0.00    +0.000 A 
ATOM     10  N   UNL     1       1.552   5.685  20.941  0.00  0.00    +0.000 NA
ENDROOT
BRANCH   4  11
ATOM     11  C   UNL     1       5.196   4.888  17.877  0.00  0.00    +0.000 A 
ATOM     12  C   UNL     1       5.449   4.195  16.675  0.00  0.00    +0.000 A 
ATOM     13  C   UNL     1       6.463   4.585  15.798  0.00  0.00    +0.000 A 
ATOM     14  C   UNL     1       7.215   5.720  16.076  0.00  0.00    +0.000 A 
ATOM     15  C   UNL     1       6.930   6.467  17.217  0.00  0.00    +0.000 A 
ATOM     16 BR   UNL     1       7.921   8.039  17.569  0.00  0.00    +0.000 Br
ATOM     17  C   UNL     1       5.933   6.061  18.108  0.00  0.00    +0.000 A 
ENDBRANCH   4  11
BRANCH   1  21
ATOM     18  C   UNL     1       0.413  10.638  21.027  0.00  0.00    +0.000 A 
ATOM     19  C   UNL     1       0.559   9.722  22.068  0.00  0.00    +0.000 A 
ATOM     20  C   UNL     1       1.087   8.454  21.825  0.00  0.00    +0.000 A 
ATOM     21  C   UNL     1       1.465   8.083  20.525  0.00  0.00    +0.000 A 
ATOM     22  C   UNL     1       1.299   8.996  19.477  0.00  0.00    +0.000 A 
ATOM     23  C   UNL     1       0.771  10.269  19.731  0.00  0.00    +0.000 A 
BRANCH  18  25
ATOM     24  C   UNL     1      -0.941  11.817  22.558  0.00  0.00    +0.000 C 
ATOM     25  O   UNL     1      -0.123  11.841  21.394  0.00  0.00    +0.000 OA
ENDBRANCH  18  25
ENDBRANCH   1  21
TORSDOF 3
ENDMDL
MODEL 4
REMARK VINA RESULT:      -7.2      3.737      7.248
REMARK  Name = 
REMARK  5 active torsions:
REMARK  status: ('A' for Active; 'I' for Inactive)
REMARK    1  A    between atoms: C_1  and  O_2
REMARK    2  A    between atoms: O_2  and  C_3
REMARK    3  A    between atoms: C_6  and  N_7
REMARK    4  A    between atoms: C_10  and  C_11
REMARK    5  A    between atoms: C_20  and  C_21
REMARK                            x       y       z     vdW  Elec       q    Type
REMARK                         _______ _______ _______ _____ _____    ______ ____
ROOT
ATOM      1  N   UNL     1       4.510   5.046  17.506  0.00  0.00    +0.000 N 
ATOM      2  C   UNL     1       3.833   6.167  17.918  0.00  0.00    +0.000 A 
ATOM      3  C   UNL     1       3.081   5.793  18.993  0.00  0.00    +0.000 A 
ATOM      4  C   UNL     1       2.180   6.590  19.714  0.00  0.00    +0.000 A 
ATOM      5  N   UNL     1       1.708   5.938  20.818  0.00  0.00    +0.000 NA
ATOM      6  N   UNL     1       2.096   4.570  21.181  0.00  0.00    +0.000 NA
ATOM      7  C   UNL     1       2.966   3.794  20.456  0.00  0.00    +0.000 A 
ATOM      8  C   UNL     1       3.327   2.435  20.939  0.00  0.00    +0.000 C 
ATOM      9  C   UNL     1       3.471   4.441  19.305  0.00  0.00    +0.000 A 
ATOM     10  N   UNL     1       4.332   4.002  18.363  0.00  0.00    +0.000 NA
ENDROOT
BRANCH   4  11
ATOM     11  C   UNL     1       1.789   7.967  19.419  0.00  0.00    +0.000 A 
ATOM     12  C   UNL     1       2.060   8.574  18.175  0.00  0.00    +0.000 A 
ATOM     13  C   UNL     1       1.810   9.929  17.946  0.00  0.00    +0.000 A 
ATOM     14  C   UNL     1       1.225  10.700  18.943  0.00  0.00    +0.000 A 
ATOM     15  C   UNL     1       0.874  10.103  20.152  0.00  0.00    +0.000 A 
ATOM     16 BR   UNL     1       0.033  11.142  21.490  0.00  0.00    +0.000 Br
ATOM     17  C   UNL     1       1.149   8.754  20.391  0.00  0.00    +0.000 A 
ENDBRANCH   4  11
BRANCH   1  21
ATOM     18  C   UNL     1       6.888   4.669  14.026  0.00  0.00    +0.000 A 
ATOM     19  C   UNL     1       5.581   4.186  14.036  0.00  0.00    +0.000 A 
ATOM     20  C   UNL     1       4.787   4.318  15.175  0.00  0.00    +0.000 A 
ATOM     21  C   UNL     1       5.303   4.927  16.330  0.00  0.00    +0.000 A 
ATOM     22  C   UNL     1       6.623   5.394  16.325  0.00  0.00    +0.000 A 
ATOM     23  C   UNL     1       7.412   5.261  15.174  0.00  0.00    +0.000 A 
BRANCH  18  25
ATOM     24  C   UNL     1       6.903   3.649  11.899  0.00  0.00    +0.000 C 
ATOM     25  O   UNL     1       7.562   4.472  12.852  0.00  0.00    +0.000 OA
ENDBRANCH  18  25
ENDBRANCH   1  21
TORSDOF 3
ENDMDL
MODEL 5
REMARK VINA RESULT:      -6.8      6.428      9.860
REMARK  Name = 
REMARK  5 active torsions:
REMARK  status: ('A' for Active; 'I' for Inactive)
REMARK    1  A    between atoms: C_1  and  O_2
REMARK    2  A    between atoms: O_2  and  C_3
REMARK    3  A    between atoms: C_6  and  N_7
REMARK    4  A    between atoms: C_10  and  C_11
REMARK    5  A    between atoms: C_20  and  C_21
REMARK                            x       y       z     vdW  Elec       q    Type
REMARK                         _______ _______ _______ _____ _____    ______ ____
ROOT
ATOM      1  N   UNL     1      -1.583  10.546  19.053  0.00  0.00    +0.000 N 
ATOM      2  C   UNL     1      -1.808  11.374  20.124  0.00  0.00    +0.000 A 
ATOM      3  C   UNL     1      -1.060  10.888  21.156  0.00  0.00    +0.000 A 
ATOM      4  C   UNL     1      -1.012  11.374  22.470  0.00  0.00    +0.000 A 
ATOM      5  N   UNL     1      -0.049  10.740  23.204  0.00  0.00    +0.000 NA
ATOM      6  N   UNL     1       0.809   9.677  22.670  0.00  0.00    +0.000 NA
ATOM      7  C   UNL     1       0.739   9.197  21.386  0.00  0.00    +0.000 A 
ATOM      8  C   UNL     1       1.690   8.146  20.933  0.00  0.00    +0.000 C 
ATOM      9  C   UNL     1      -0.250   9.833  20.600  0.00  0.00    +0.000 A 
ATOM     10  N   UNL     1      -0.609   9.631  19.315  0.00  0.00    +0.000 NA
ENDROOT
BRANCH   4  11
ATOM     11  C   UNL     1      -1.815  12.454  23.041  0.00  0.00    +0.000 A 
ATOM     12  C   UNL     1      -1.242  13.674  23.457  0.00  0.00    +0.000 A 
ATOM     13  C   UNL     1      -1.986  14.647  24.128  0.00  0.00    +0.000 A 
ATOM     14  C   UNL     1      -3.344  14.447  24.347  0.00  0.00    +0.000 A 
ATOM     15  C   UNL     1      -3.949  13.285  23.873  0.00  0.00    +0.000 A 
ATOM     16 BR   UNL     1      -5.806  13.035  24.128  0.00  0.00    +0.000 Br
ATOM     17  C   UNL     1      -3.199  12.299  23.226  0.00  0.00    +0.000 A 
ENDBRANCH   4  11
BRANCH   1  21
ATOM     18  C   UNL     1      -3.592  10.692  15.331  0.00  0.00    +0.000 A 
ATOM     19  C   UNL     1      -2.475   9.874  15.492  0.00  0.00    +0.000 A 
ATOM     20  C   UNL     1      -1.815   9.812  16.719  0.00  0.00    +0.000 A 
ATOM     21  C   UNL     1      -2.263  10.584  17.803  0.00  0.00    +0.000 A 
ATOM     22  C   UNL     1      -3.374  11.420  17.634  0.00  0.00    +0.000 A 
ATOM     23  C   UNL     1      -4.033  11.473  16.399  0.00  0.00    +0.000 A 
BRANCH  18  25
ATOM     24  C   UNL     1      -3.539   9.767  13.161  0.00  0.00    +0.000 C 
ATOM     25  O   UNL     1      -4.143  10.669  14.080  0.00  0.00    +0.000 OA
ENDBRANCH  18  25
ENDBRANCH   1  21
TORSDOF 3
ENDMDL
MODEL 6
REMARK VINA RESULT:      -6.7      6.417      9.868
REMARK  Name = 
REMARK  5 active torsions:
REMARK  status: ('A' for Active; 'I' for Inactive)
REMARK    1  A    between atoms: C_1  and  O_2
REMARK    2  A    between atoms: O_2  and  C_3
REMARK    3  A    between atoms: C_6  and  N_7
REMARK    4  A    between atoms: C_10  and  C_11
REMARK    5  A    between atoms: C_20  and  C_21
REMARK                            x       y       z     vdW  Elec       q    Type
REMARK                         _______ _______ _______ _____ _____    ______ ____
ROOT
ATOM      1  N   UNL     1      -1.597  10.566  19.190  0.00  0.00    +0.000 N 
ATOM      2  C   UNL     1      -1.805  11.390  20.267  0.00  0.00    +0.000 A 
ATOM      3  C   UNL     1      -1.068  10.878  21.295  0.00  0.00    +0.000 A 
ATOM      4  C   UNL     1      -1.011  11.353  22.613  0.00  0.00    +0.000 A 
ATOM      5  N   UNL     1      -0.062  10.692  23.342  0.00  0.00    +0.000 NA
ATOM      6  N   UNL     1       0.773   9.614  22.799  0.00  0.00    +0.000 NA
ATOM      7  C   UNL     1       0.693   9.147  21.511  0.00  0.00    +0.000 A 
ATOM      8  C   UNL     1       1.620   8.079  21.050  0.00  0.00    +0.000 C 
ATOM      9  C   UNL     1      -0.282   9.811  20.731  0.00  0.00    +0.000 A 
ATOM     10  N   UNL     1      -0.644   9.628  19.444  0.00  0.00    +0.000 NA
ENDROOT
BRANCH   4  11
ATOM     11  C   UNL     1      -1.789  12.446  23.193  0.00  0.00    +0.000 A 
ATOM     12  C   UNL     1      -3.136  12.284  23.580  0.00  0.00    +0.000 A 
ATOM     13  C   UNL     1      -3.916  13.362  24.004  0.00  0.00    +0.000 A 
ATOM     14  C   UNL     1      -3.347  14.626  24.106  0.00  0.00    +0.000 A 
ATOM     15  C   UNL     1      -1.997  14.795  23.806  0.00  0.00    +0.000 A 
ATOM     16 BR   UNL     1      -1.211  16.505  23.993  0.00  0.00    +0.000 Br
ATOM     17  C   UNL     1      -1.224  13.721  23.357  0.00  0.00    +0.000 A 
ENDBRANCH   4  11
BRANCH   1  21
ATOM     18  C   UNL     1      -3.603  10.788  15.469  0.00  0.00    +0.000 A 
ATOM     19  C   UNL     1      -2.471   9.987  15.607  0.00  0.00    +0.000 A 
ATOM     20  C   UNL     1      -1.812   9.900  16.834  0.00  0.00    +0.000 A 
ATOM     21  C   UNL     1      -2.277  10.629  17.939  0.00  0.00    +0.000 A 
ATOM     22  C   UNL     1      -3.403  11.449  17.794  0.00  0.00    +0.000 A 
ATOM     23  C   UNL     1      -4.060  11.528  16.559  0.00  0.00    +0.000 A 
BRANCH  18  25
ATOM     24  C   UNL     1      -3.613   9.841  13.309  0.00  0.00    +0.000 C 
ATOM     25  O   UNL     1      -4.151  10.794  14.216  0.00  0.00    +0.000 OA
ENDBRANCH  18  25
ENDBRANCH   1  21
TORSDOF 3
ENDMDL
MODEL 7
REMARK VINA RESULT:      -6.7      4.482      6.781
REMARK  Name = 
REMARK  5 active torsions:
REMARK  status: ('A' for Active; 'I' for Inactive)
REMARK    1  A    between atoms: C_1  and  O_2
REMARK    2  A    between atoms: O_2  and  C_3
REMARK    3  A    between atoms: C_6  and  N_7
REMARK    4  A    between atoms: C_10  and  C_11
REMARK    5  A    between atoms: C_20  and  C_21
REMARK                            x       y       z     vdW  Elec       q    Type
REMARK                         _______ _______ _______ _____ _____    ______ ____
ROOT
ATOM      1  N   UNL     1       7.187   7.589  17.477  0.00  0.00    +0.000 N 
ATOM      2  C   UNL     1       6.097   7.029  18.097  0.00  0.00    +0.000 A 
ATOM      3  C   UNL     1       5.645   6.043  17.270  0.00  0.00    +0.000 A 
ATOM      4  C   UNL     1       4.516   5.233  17.457  0.00  0.00    +0.000 A 
ATOM      5  N   UNL     1       4.439   4.253  16.507  0.00  0.00    +0.000 NA
ATOM      6  N   UNL     1       5.418   4.093  15.426  0.00  0.00    +0.000 NA
ATOM      7  C   UNL     1       6.510   4.905  15.244  0.00  0.00    +0.000 A 
ATOM      8  C   UNL     1       7.467   4.624  14.140  0.00  0.00    +0.000 C 
ATOM      9  C   UNL     1       6.616   5.931  16.211  0.00  0.00    +0.000 A 
ATOM     10  N   UNL     1       7.538   6.906  16.353  0.00  0.00    +0.000 NA
ENDROOT
BRANCH   4  11
ATOM     11  C   UNL     1       3.533   5.325  18.535  0.00  0.00    +0.000 A 
ATOM     12  C   UNL     1       2.865   6.529  18.840  0.00  0.00    +0.000 A 
ATOM     13  C   UNL     1       2.032   6.648  19.955  0.00  0.00    +0.000 A 
ATOM     14  C   UNL     1       1.800   5.541  20.763  0.00  0.00    +0.000 A 
ATOM     15  C   UNL     1       2.385   4.320  20.435  0.00  0.00    +0.000 A 
ATOM     16 BR   UNL     1       2.030   2.803  21.507  0.00  0.00    +0.000 Br
ATOM     17  C   UNL     1       3.240   4.208  19.335  0.00  0.00    +0.000 A 
ENDBRANCH   4  11
BRANCH   1  21
ATOM     18  C   UNL     1       9.257  11.048  18.765  0.00  0.00    +0.000 A 
ATOM     19  C   UNL     1       9.470   9.827  19.402  0.00  0.00    +0.000 A 
ATOM     20  C   UNL     1       8.801   8.681  18.975  0.00  0.00    +0.000 A 
ATOM     21  C   UNL     1       7.894   8.748  17.906  0.00  0.00    +0.000 A 
ATOM     22  C   UNL     1       7.665   9.980  17.279  0.00  0.00    +0.000 A 
ATOM     23  C   UNL     1       8.345  11.126  17.713  0.00  0.00    +0.000 A 
BRANCH  18  25
ATOM     24  C   UNL     1      10.722  11.805  20.452  0.00  0.00    +0.000 C 
ATOM     25  O   UNL     1       9.967  12.096  19.283  0.00  0.00    +0.000 OA
ENDBRANCH  18  25
ENDBRANCH   1  21
TORSDOF 3
ENDMDL
MODEL 8
REMARK VINA RESULT:      -6.6      5.231     10.219
REMARK  Name = 
REMARK  5 active torsions:
REMARK  status: ('A' for Active; 'I' for Inactive)
REMARK    1  A    between atoms: C_1  and  O_2
REMARK    2  A    between atoms: O_2  and  C_3
REMARK    3  A    between atoms: C_6  and  N_7
REMARK    4  A    between atoms: C_10  and  C_11
REMARK    5  A    between atoms: C_20  and  C_21
REMARK                            x       y       z     vdW  Elec       q    Type
REMARK                         _______ _______ _______ _____ _____    ______ ____
ROOT
ATOM      1  N   UNL     1       0.968  10.630  19.283  0.00  0.00    +0.000 N 
ATOM      2  C   UNL     1      -0.273  11.069  19.672  0.00  0.00    +0.000 A 
ATOM      3  C   UNL     1      -0.229  12.433  19.641  0.00  0.00    +0.000 A 
ATOM      4  C   UNL     1      -1.248  13.321  20.013  0.00  0.00    +0.000 A 
ATOM      5  N   UNL     1      -0.917  14.614  19.720  0.00  0.00    +0.000 NA
ATOM      6  N   UNL     1       0.356  15.006  19.104  0.00  0.00    +0.000 NA
ATOM      7  C   UNL     1       1.353  14.127  18.762  0.00  0.00    +0.000 A 
ATOM      8  C   UNL     1       2.588  14.627  18.100  0.00  0.00    +0.000 C 
ATOM      9  C   UNL     1       1.041  12.779  19.055  0.00  0.00    +0.000 A 
ATOM     10  N   UNL     1       1.762  11.654  18.866  0.00  0.00    +0.000 NA
ENDROOT
BRANCH   4  11
ATOM     11  C   UNL     1      -2.547  12.982  20.593  0.00  0.00    +0.000 A 
ATOM     12  C   UNL     1      -3.679  12.722  19.793  0.00  0.00    +0.000 A 
ATOM     13  C   UNL     1      -4.947  12.535  20.348  0.00  0.00    +0.000 A 
ATOM     14  C   UNL     1      -5.102  12.546  21.729  0.00  0.00    +0.000 A 
ATOM     15  C   UNL     1      -3.985  12.721  22.542  0.00  0.00    +0.000 A 
ATOM     16 BR   UNL     1      -4.189  12.687  24.422  0.00  0.00    +0.000 Br
ATOM     17  C   UNL     1      -2.721  12.935  21.986  0.00  0.00    +0.000 A 
ENDBRANCH   4  11
BRANCH   1  21
ATOM     18  C   UNL     1       2.367   6.636  19.350  0.00  0.00    +0.000 A 
ATOM     19  C   UNL     1       1.789   7.194  20.488  0.00  0.00    +0.000 A 
ATOM     20  C   UNL     1       1.315   8.506  20.470  0.00  0.00    +0.000 A 
ATOM     21  C   UNL     1       1.427   9.282  19.305  0.00  0.00    +0.000 A 
ATOM     22  C   UNL     1       2.026   8.727  18.168  0.00  0.00    +0.000 A 
ATOM     23  C   UNL     1       2.497   7.407  18.195  0.00  0.00    +0.000 A 
BRANCH  18  25
ATOM     24  C   UNL     1       4.196   5.146  19.336  0.00  0.00    +0.000 C 
ATOM     25  O   UNL     1       2.798   5.347  19.500  0.00  0.00    +0.000 OA
ENDBRANCH  18  25
ENDBRANCH   1  21
TORSDOF 3
ENDMDL
MODEL 9
REMARK VINA RESULT:      -6.6      4.828      9.480
REMARK  Name = 
REMARK  5 active torsions:
REMARK  status: ('A' for Active; 'I' for Inactive)
REMARK    1  A    between atoms: C_1  and  O_2
REMARK    2  A    between atoms: O_2  and  C_3
REMARK    3  A    between atoms: C_6  and  N_7
REMARK    4  A    between atoms: C_10  and  C_11
REMARK    5  A    between atoms: C_20  and  C_21
REMARK                            x       y       z     vdW  Elec       q    Type
REMARK                         _______ _______ _______ _____ _____    ______ ____
ROOT
ATOM      1  N   UNL     1       1.378   9.746  18.805  0.00  0.00    +0.000 N 
ATOM      2  C   UNL     1       0.090  10.102  18.489  0.00  0.00    +0.000 A 
ATOM      3  C   UNL     1       0.033  11.463  18.568  0.00  0.00    +0.000 A 
ATOM      4  C   UNL     1      -1.095  12.275  18.385  0.00  0.00    +0.000 A 
ATOM      5  N   UNL     1      -0.764  13.601  18.392  0.00  0.00    +0.000 NA
ATOM      6  N   UNL     1       0.605  14.095  18.582  0.00  0.00    +0.000 NA
ATOM      7  C   UNL     1       1.698  13.289  18.780  0.00  0.00    +0.000 A 
ATOM      8  C   UNL     1       3.051  13.892  18.916  0.00  0.00    +0.000 C 
ATOM      9  C   UNL     1       1.387  11.909  18.778  0.00  0.00    +0.000 A 
ATOM     10  N   UNL     1       2.186  10.833  18.942  0.00  0.00    +0.000 NA
ENDROOT
BRANCH   4  11
ATOM     11  C   UNL     1      -2.470  11.837  18.152  0.00  0.00    +0.000 A 
ATOM     12  C   UNL     1      -2.868  11.224  16.946  0.00  0.00    +0.000 A 
ATOM     13  C   UNL     1      -4.206  10.933  16.674  0.00  0.00    +0.000 A 
ATOM     14  C   UNL     1      -5.178  11.197  17.632  0.00  0.00    +0.000 A 
ATOM     15  C   UNL     1      -4.798  11.728  18.862  0.00  0.00    +0.000 A 
ATOM     16 BR   UNL     1      -6.114  12.041  20.184  0.00  0.00    +0.000 Br
ATOM     17  C   UNL     1      -3.462  12.044  19.125  0.00  0.00    +0.000 A 
ENDBRANCH   4  11
BRANCH   1  21
ATOM     18  C   UNL     1       2.781   5.792  19.358  0.00  0.00    +0.000 A 
ATOM     19  C   UNL     1       2.976   6.440  18.140  0.00  0.00    +0.000 A 
ATOM     20  C   UNL     1       2.527   7.747  17.954  0.00  0.00    +0.000 A 
ATOM     21  C   UNL     1       1.861   8.420  18.991  0.00  0.00    +0.000 A 
ATOM     22  C   UNL     1       1.648   7.761  20.208  0.00  0.00    +0.000 A 
ATOM     23  C   UNL     1       2.106   6.448  20.386  0.00  0.00    +0.000 A 
BRANCH  18  25
ATOM     24  C   UNL     1       4.601   4.343  18.967  0.00  0.00    +0.000 C 
ATOM     25  O   UNL     1       3.260   4.512  19.409  0.00  0.00    +0.000 OA
ENDBRANCH  18  25
ENDBRANCH   1  21
TORSDOF 3
ENDMDL
