MODEL 1
REMARK VINA RESULT:      -7.9      0.000      0.000
REMARK  Name = 
REMARK  7 active torsions:
REMARK  status: ('A' for Active; 'I' for Inactive)
REMARK    1  A    between atoms: C_1  and  C_2
REMARK    2  A    between atoms: C_2  and  C_3
REMARK    3  A    between atoms: C_2  and  C_4
REMARK    4  A    between atoms: C_2  and  N_6
REMARK    5  A    between atoms: C_4  and  O_5
REMARK    6  A    between atoms: C_7  and  C_9
REMARK    7  A    between atoms: N_11  and  C_12
REMARK                            x       y       z     vdW  Elec       q    Type
REMARK                         _______ _______ _______ _____ _____    ______ ____
ROOT
ATOM      1  C   UNL     1       2.399   6.887  19.546  0.00  0.00    +0.000 A 
ATOM      2  N   UNL     1       3.430   7.006  18.664  0.00  0.00    +0.000 NA
ATOM      3  N   UNL     1       3.849   5.704  18.428  0.00  0.00    +0.000 N 
ATOM      4  C   UNL     1       3.150   4.843  19.213  0.00  0.00    +0.000 A 
ATOM      5  C   UNL     1       2.229   5.548  19.925  0.00  0.00    +0.000 A 
ATOM      6  C   UNL     1       1.501   4.753  20.944  0.00  0.00    +0.000 C 
ATOM      7  C   UNL     1       2.224   3.393  20.867  0.00  0.00    +0.000 C 
ATOM      8  C   UNL     1       2.030   2.506  19.682  0.00  0.00    +0.000 C 
ATOM      9  C   UNL     1       3.236   3.414  19.698  0.00  0.00    +0.000 C 
ENDROOT
BRANCH   3  10
ATOM     10  C   UNL     1       4.830   5.388  17.457  0.00  0.00    +0.000 A 
ATOM     11  C   UNL     1       6.026   6.117  17.396  0.00  0.00    +0.000 A 
ATOM     12  C   UNL     1       6.990   5.790  16.434  0.00  0.00    +0.000 A 
ATOM     13  C   UNL     1       6.747   4.763  15.526  0.00  0.00    +0.000 A 
ATOM     14  F   UNL     1       7.665   4.470  14.595  0.00  0.00    +0.000 F 
ATOM     15  C   UNL     1       5.563   4.048  15.558  0.00  0.00    +0.000 A 
ATOM     16  C   UNL     1       4.611   4.362  16.528  0.00  0.00    +0.000 A 
ATOM     17  F   UNL     1       3.452   3.690  16.473  0.00  0.00    +0.000 F 
ENDBRANCH   3  10
BRANCH   1  19
ATOM     18  N   UNL     1       1.504   9.128  19.286  0.00  0.00    +0.000 N 
ATOM     19  C   UNL     1       1.599   8.006  20.081  0.00  0.00    +0.000 C 
ATOM     20  O   UNL     1       1.042   7.921  21.174  0.00  0.00    +0.000 OA
ATOM     21  H   UNL     1       1.992   9.084  18.396  0.00  0.00    +0.000 HD
BRANCH  18  23
ATOM     22  C   UNL     1       0.831  10.556  21.169  0.00  0.00    +0.000 C 
ATOM     23  C   UNL     1       0.703  10.317  19.653  0.00  0.00    +0.000 C 
ATOM     24  C   UNL     1      -0.793  10.081  19.352  0.00  0.00    +0.000 C 
BRANCH  23  25
ATOM     25  C   UNL     1       1.208  11.587  18.905  0.00  0.00    +0.000 C 
BRANCH  25  26
ATOM     26  O   UNL     1       2.065  11.272  17.807  0.00  0.00    +0.000 OA
ATOM     27  H   UNL     1       2.934  11.663  18.004  0.00  0.00    +0.000 HD
ENDBRANCH  25  26
ENDBRANCH  23  25
ENDBRANCH  18  23
ENDBRANCH   1  19
TORSDOF 5
ENDMDL
MODEL 2
REMARK VINA RESULT:      -7.9      1.519      1.962
REMARK  Name = 
REMARK  7 active torsions:
REMARK  status: ('A' for Active; 'I' for Inactive)
REMARK    1  A    between atoms: C_1  and  C_2
REMARK    2  A    between atoms: C_2  and  C_3
REMARK    3  A    between atoms: C_2  and  C_4
REMARK    4  A    between atoms: C_2  and  N_6
REMARK    5  A    between atoms: C_4  and  O_5
REMARK    6  A    between atoms: C_7  and  C_9
REMARK    7  A    between atoms: N_11  and  C_12
REMARK                            x       y       z     vdW  Elec       q    Type
REMARK                         _______ _______ _______ _____ _____    ______ ____
ROOT
ATOM      1  C   UNL     1       2.340   6.828  19.747  0.00  0.00    +0.000 A 
ATOM      2  N   UNL     1       3.481   6.936  19.011  0.00  0.00    +0.000 NA
ATOM      3  N   UNL     1       3.755   5.642  18.588  0.00  0.00    +0.000 N 
ATOM      4  C   UNL     1       2.857   4.778  19.129  0.00  0.00    +0.000 A 
ATOM      5  C   UNL     1       1.952   5.485  19.859  0.00  0.00    +0.000 A 
ATOM      6  C   UNL     1       1.005   4.651  20.638  0.00  0.00    +0.000 C 
ATOM      7  C   UNL     1       1.549   3.230  20.390  0.00  0.00    +0.000 C 
ATOM      8  C   UNL     1       1.394   2.589  19.051  0.00  0.00    +0.000 C 
ATOM      9  C   UNL     1       2.695   3.292  19.353  0.00  0.00    +0.000 C 
ENDROOT
BRANCH   3  10
ATOM     10  C   UNL     1       4.802   5.347  17.681  0.00  0.00    +0.000 A 
ATOM     11  C   UNL     1       4.518   5.095  16.331  0.00  0.00    +0.000 A 
ATOM     12  C   UNL     1       5.563   4.810  15.444  0.00  0.00    +0.000 A 
ATOM     13  C   UNL     1       6.875   4.751  15.909  0.00  0.00    +0.000 A 
ATOM     14  F   UNL     1       7.866   4.457  15.058  0.00  0.00    +0.000 F 
ATOM     15  C   UNL     1       7.170   4.976  17.242  0.00  0.00    +0.000 A 
ATOM     16  C   UNL     1       6.130   5.278  18.121  0.00  0.00    +0.000 A 
ATOM     17  F   UNL     1       6.458   5.416  19.414  0.00  0.00    +0.000 F 
ENDBRANCH   3  10
BRANCH   1  19
ATOM     18  N   UNL     1       1.080   8.893  19.549  0.00  0.00    +0.000 N 
ATOM     19  C   UNL     1       1.630   7.950  20.391  0.00  0.00    +0.000 C 
ATOM     20  O   UNL     1       1.532   8.019  21.614  0.00  0.00    +0.000 OA
ATOM     21  H   UNL     1       1.209   8.729  18.555  0.00  0.00    +0.000 HD
BRANCH  18  23
ATOM     22  C   UNL     1      -0.845  10.331  19.034  0.00  0.00    +0.000 C 
ATOM     23  C   UNL     1       0.297  10.053  20.030  0.00  0.00    +0.000 C 
ATOM     24  C   UNL     1       1.176  11.322  20.084  0.00  0.00    +0.000 C 
BRANCH  23  25
ATOM     25  C   UNL     1      -0.323   9.769  21.431  0.00  0.00    +0.000 C 
BRANCH  25  26
ATOM     26  O   UNL     1       0.283  10.542  22.466  0.00  0.00    +0.000 OA
ATOM     27  H   UNL     1       0.168  10.046  23.296  0.00  0.00    +0.000 HD
ENDBRANCH  25  26
ENDBRANCH  23  25
ENDBRANCH  18  23
ENDBRANCH   1  19
TORSDOF 5
ENDMDL
MODEL 3
REMARK VINA RESULT:      -7.9      0.972      1.297
REMARK  Name = 
REMARK  7 active torsions:
REMARK  status: ('A' for Active; 'I' for Inactive)
REMARK    1  A    between atoms: C_1  and  C_2
REMARK    2  A    between atoms: C_2  and  C_3
REMARK    3  A    between atoms: C_2  and  C_4
REMARK    4  A    between atoms: C_2  and  N_6
REMARK    5  A    between atoms: C_4  and  O_5
REMARK    6  A    between atoms: C_7  and  C_9
REMARK    7  A    between atoms: N_11  and  C_12
REMARK                            x       y       z     vdW  Elec       q    Type
REMARK                         _______ _______ _______ _____ _____    ______ ____
ROOT
ATOM      1  C   UNL     1       2.403   6.898  19.569  0.00  0.00    +0.000 A 
ATOM      2  N   UNL     1       3.431   7.016  18.682  0.00  0.00    +0.000 NA
ATOM      3  N   UNL     1       3.848   5.713  18.447  0.00  0.00    +0.000 N 
ATOM      4  C   UNL     1       3.153   4.853  19.236  0.00  0.00    +0.000 A 
ATOM      5  C   UNL     1       2.234   5.560  19.951  0.00  0.00    +0.000 A 
ATOM      6  C   UNL     1       1.510   4.767  20.974  0.00  0.00    +0.000 C 
ATOM      7  C   UNL     1       2.232   3.407  20.897  0.00  0.00    +0.000 C 
ATOM      8  C   UNL     1       2.033   2.518  19.714  0.00  0.00    +0.000 C 
ATOM      9  C   UNL     1       3.239   3.425  19.723  0.00  0.00    +0.000 C 
ENDROOT
BRANCH   3  10
ATOM     10  C   UNL     1       4.826   5.395  17.472  0.00  0.00    +0.000 A 
ATOM     11  C   UNL     1       6.023   6.121  17.408  0.00  0.00    +0.000 A 
ATOM     12  C   UNL     1       6.983   5.792  16.443  0.00  0.00    +0.000 A 
ATOM     13  C   UNL     1       6.734   4.766  15.535  0.00  0.00    +0.000 A 
ATOM     14  F   UNL     1       7.648   4.472  14.601  0.00  0.00    +0.000 F 
ATOM     15  C   UNL     1       5.548   4.054  15.570  0.00  0.00    +0.000 A 
ATOM     16  C   UNL     1       4.601   4.370  16.544  0.00  0.00    +0.000 A 
ATOM     17  F   UNL     1       3.439   3.702  16.492  0.00  0.00    +0.000 F 
ENDBRANCH   3  10
BRANCH   1  19
ATOM     18  N   UNL     1       1.484   9.128  19.296  0.00  0.00    +0.000 N 
ATOM     19  C   UNL     1       1.605   8.018  20.105  0.00  0.00    +0.000 C 
ATOM     20  O   UNL     1       1.073   7.944  21.210  0.00  0.00    +0.000 OA
ATOM     21  H   UNL     1       1.953   9.075  18.397  0.00  0.00    +0.000 HD
BRANCH  18  23
ATOM     22  C   UNL     1      -0.800  10.032  19.351  0.00  0.00    +0.000 C 
ATOM     23  C   UNL     1       0.681  10.316  19.663  0.00  0.00    +0.000 C 
ATOM     24  C   UNL     1       1.100  11.540  18.819  0.00  0.00    +0.000 C 
BRANCH  23  25
ATOM     25  C   UNL     1       0.817  10.638  21.181  0.00  0.00    +0.000 C 
BRANCH  25  26
ATOM     26  O   UNL     1      -0.392  10.401  21.903  0.00  0.00    +0.000 OA
ATOM     27  H   UNL     1      -0.189   9.742  22.589  0.00  0.00    +0.000 HD
ENDBRANCH  25  26
ENDBRANCH  23  25
ENDBRANCH  18  23
ENDBRANCH   1  19
TORSDOF 5
ENDMDL
MODEL 4
REMARK VINA RESULT:      -7.8      0.638      1.053
REMARK  Name = 
REMARK  7 active torsions:
REMARK  status: ('A' for Active; 'I' for Inactive)
REMARK    1  A    between atoms: C_1  and  C_2
REMARK    2  A    between atoms: C_2  and  C_3
REMARK    3  A    between atoms: C_2  and  C_4
REMARK    4  A    between atoms: C_2  and  N_6
REMARK    5  A    between atoms: C_4  and  O_5
REMARK    6  A    between atoms: C_7  and  C_9
REMARK    7  A    between atoms: N_11  and  C_12
REMARK                            x       y       z     vdW  Elec       q    Type
REMARK                         _______ _______ _______ _____ _____    ______ ____
ROOT
ATOM      1  C   UNL     1       2.392   6.974  19.496  0.00  0.00    +0.000 A 
ATOM      2  N   UNL     1       3.403   7.075  18.588  0.00  0.00    +0.000 NA
ATOM      3  N   UNL     1       3.858   5.775  18.417  0.00  0.00    +0.000 N 
ATOM      4  C   UNL     1       3.201   4.938  19.261  0.00  0.00    +0.000 A 
ATOM      5  C   UNL     1       2.271   5.653  19.951  0.00  0.00    +0.000 A 
ATOM      6  C   UNL     1       1.587   4.895  21.027  0.00  0.00    +0.000 C 
ATOM      7  C   UNL     1       2.349   3.556  21.011  0.00  0.00    +0.000 C 
ATOM      8  C   UNL     1       2.162   2.598  19.881  0.00  0.00    +0.000 C 
ATOM      9  C   UNL     1       3.339   3.541  19.823  0.00  0.00    +0.000 C 
ENDROOT
BRANCH   3  10
ATOM     10  C   UNL     1       4.831   5.434  17.445  0.00  0.00    +0.000 A 
ATOM     11  C   UNL     1       6.026   6.162  17.356  0.00  0.00    +0.000 A 
ATOM     12  C   UNL     1       6.982   5.810  16.395  0.00  0.00    +0.000 A 
ATOM     13  C   UNL     1       6.731   4.761  15.514  0.00  0.00    +0.000 A 
ATOM     14  F   UNL     1       7.641   4.445  14.583  0.00  0.00    +0.000 F 
ATOM     15  C   UNL     1       5.547   4.047  15.574  0.00  0.00    +0.000 A 
ATOM     16  C   UNL     1       4.604   4.385  16.544  0.00  0.00    +0.000 A 
ATOM     17  F   UNL     1       3.445   3.712  16.516  0.00  0.00    +0.000 F 
ENDBRANCH   3  10
BRANCH   1  19
ATOM     18  N   UNL     1       1.512   9.213  19.178  0.00  0.00    +0.000 N 
ATOM     19  C   UNL     1       1.567   8.096  19.984  0.00  0.00    +0.000 C 
ATOM     20  O   UNL     1       0.958   8.018  21.048  0.00  0.00    +0.000 OA
ATOM     21  H   UNL     1       2.042   9.163  18.313  0.00  0.00    +0.000 HD
BRANCH  18  23
ATOM     22  C   UNL     1       1.336  11.640  18.837  0.00  0.00    +0.000 C 
ATOM     23  C   UNL     1       0.694  10.405  19.497  0.00  0.00    +0.000 C 
ATOM     24  C   UNL     1       0.672  10.660  21.020  0.00  0.00    +0.000 C 
BRANCH  23  25
ATOM     25  C   UNL     1      -0.758  10.250  18.956  0.00  0.00    +0.000 C 
BRANCH  25  26
ATOM     26  O   UNL     1      -0.808  10.173  17.531  0.00  0.00    +0.000 OA
ATOM     27  H   UNL     1      -0.445  11.008  17.189  0.00  0.00    +0.000 HD
ENDBRANCH  25  26
ENDBRANCH  23  25
ENDBRANCH  18  23
ENDBRANCH   1  19
TORSDOF 5
ENDMDL
MODEL 5
REMARK VINA RESULT:      -7.8      0.964      1.320
REMARK  Name = 
REMARK  7 active torsions:
REMARK  status: ('A' for Active; 'I' for Inactive)
REMARK    1  A    between atoms: C_1  and  C_2
REMARK    2  A    between atoms: C_2  and  C_3
REMARK    3  A    between atoms: C_2  and  C_4
REMARK    4  A    between atoms: C_2  and  N_6
REMARK    5  A    between atoms: C_4  and  O_5
REMARK    6  A    between atoms: C_7  and  C_9
REMARK    7  A    between atoms: N_11  and  C_12
REMARK                            x       y       z     vdW  Elec       q    Type
REMARK                         _______ _______ _______ _____ _____    ______ ____
ROOT
ATOM      1  C   UNL     1       2.395   6.752  19.545  0.00  0.00    +0.000 A 
ATOM      2  N   UNL     1       3.460   6.871  18.704  0.00  0.00    +0.000 NA
ATOM      3  N   UNL     1       3.825   5.565  18.406  0.00  0.00    +0.000 N 
ATOM      4  C   UNL     1       3.060   4.696  19.116  0.00  0.00    +0.000 A 
ATOM      5  C   UNL     1       2.149   5.404  19.839  0.00  0.00    +0.000 A 
ATOM      6  C   UNL     1       1.350   4.588  20.787  0.00  0.00    +0.000 C 
ATOM      7  C   UNL     1       2.009   3.202  20.653  0.00  0.00    +0.000 C 
ATOM      8  C   UNL     1       1.814   2.394  19.412  0.00  0.00    +0.000 C 
ATOM      9  C   UNL     1       3.060   3.239  19.519  0.00  0.00    +0.000 C 
ENDROOT
BRANCH   3  10
ATOM     10  C   UNL     1       4.823   5.257  17.449  0.00  0.00    +0.000 A 
ATOM     11  C   UNL     1       4.467   4.708  16.209  0.00  0.00    +0.000 A 
ATOM     12  C   UNL     1       5.463   4.414  15.269  0.00  0.00    +0.000 A 
ATOM     13  C   UNL     1       6.802   4.639  15.580  0.00  0.00    +0.000 A 
ATOM     14  F   UNL     1       7.750   4.335  14.684  0.00  0.00    +0.000 F 
ATOM     15  C   UNL     1       7.171   5.159  16.808  0.00  0.00    +0.000 A 
ATOM     16  C   UNL     1       6.178   5.470  17.735  0.00  0.00    +0.000 A 
ATOM     17  F   UNL     1       6.590   5.903  18.936  0.00  0.00    +0.000 F 
ENDBRANCH   3  10
BRANCH   1  19
ATOM     18  N   UNL     1       1.541   9.015  19.348  0.00  0.00    +0.000 N 
ATOM     19  C   UNL     1       1.631   7.877  20.119  0.00  0.00    +0.000 C 
ATOM     20  O   UNL     1       1.099   7.782  21.223  0.00  0.00    +0.000 OA
ATOM     21  H   UNL     1       2.007   8.978  18.446  0.00  0.00    +0.000 HD
BRANCH  18  23
ATOM     22  C   UNL     1       0.925  10.409  21.275  0.00  0.00    +0.000 C 
ATOM     23  C   UNL     1       0.773  10.214  19.755  0.00  0.00    +0.000 C 
ATOM     24  C   UNL     1      -0.732  10.022  19.466  0.00  0.00    +0.000 C 
BRANCH  23  25
ATOM     25  C   UNL     1       1.301  11.490  19.034  0.00  0.00    +0.000 C 
BRANCH  25  26
ATOM     26  O   UNL     1       1.929  11.196  17.787  0.00  0.00    +0.000 OA
ATOM     27  H   UNL     1       2.818  10.855  17.989  0.00  0.00    +0.000 HD
ENDBRANCH  25  26
ENDBRANCH  23  25
ENDBRANCH  18  23
ENDBRANCH   1  19
TORSDOF 5
ENDMDL
MODEL 6
REMARK VINA RESULT:      -7.8      4.260      7.788
REMARK  Name = 
REMARK  7 active torsions:
REMARK  status: ('A' for Active; 'I' for Inactive)
REMARK    1  A    between atoms: C_1  and  C_2
REMARK    2  A    between atoms: C_2  and  C_3
REMARK    3  A    between atoms: C_2  and  C_4
REMARK    4  A    between atoms: C_2  and  N_6
REMARK    5  A    between atoms: C_4  and  O_5
REMARK    6  A    between atoms: C_7  and  C_9
REMARK    7  A    between atoms: N_11  and  C_12
REMARK                            x       y       z     vdW  Elec       q    Type
REMARK                         _______ _______ _______ _____ _____    ______ ____
ROOT
ATOM      1  C   UNL     1       5.399   4.305  15.813  0.00  0.00    +0.000 A 
ATOM      2  N   UNL     1       4.276   3.790  16.387  0.00  0.00    +0.000 NA
ATOM      3  N   UNL     1       4.475   3.937  17.753  0.00  0.00    +0.000 N 
ATOM      4  C   UNL     1       5.715   4.441  17.989  0.00  0.00    +0.000 A 
ATOM      5  C   UNL     1       6.322   4.687  16.796  0.00  0.00    +0.000 A 
ATOM      6  C   UNL     1       7.746   5.091  16.904  0.00  0.00    +0.000 C 
ATOM      7  C   UNL     1       8.012   4.929  18.414  0.00  0.00    +0.000 C 
ATOM      8  C   UNL     1       7.413   5.888  19.388  0.00  0.00    +0.000 C 
ATOM      9  C   UNL     1       6.688   4.589  19.136  0.00  0.00    +0.000 C 
ENDROOT
BRANCH   3  10
ATOM     10  C   UNL     1       3.468   3.637  18.703  0.00  0.00    +0.000 A 
ATOM     11  C   UNL     1       3.003   4.629  19.577  0.00  0.00    +0.000 A 
ATOM     12  C   UNL     1       2.002   4.320  20.507  0.00  0.00    +0.000 A 
ATOM     13  C   UNL     1       1.494   3.025  20.579  0.00  0.00    +0.000 A 
ATOM     14  F   UNL     1       0.553   2.733  21.486  0.00  0.00    +0.000 F 
ATOM     15  C   UNL     1       1.959   2.029  19.739  0.00  0.00    +0.000 A 
ATOM     16  C   UNL     1       2.941   2.342  18.800  0.00  0.00    +0.000 A 
ATOM     17  F   UNL     1       3.409   1.328  18.059  0.00  0.00    +0.000 F 
ENDBRANCH   3  10
BRANCH   1  19
ATOM     18  N   UNL     1       5.594   3.223  13.649  0.00  0.00    +0.000 N 
ATOM     19  C   UNL     1       5.648   4.402  14.362  0.00  0.00    +0.000 C 
ATOM     20  O   UNL     1       5.878   5.485  13.830  0.00  0.00    +0.000 OA
ATOM     21  H   UNL     1       5.382   2.388  14.188  0.00  0.00    +0.000 HD
BRANCH  18  23
ATOM     22  C   UNL     1       7.004   3.991  11.789  0.00  0.00    +0.000 C 
ATOM     23  C   UNL     1       5.773   3.152  12.182  0.00  0.00    +0.000 C 
ATOM     24  C   UNL     1       4.555   3.760  11.453  0.00  0.00    +0.000 C 
BRANCH  23  25
ATOM     25  C   UNL     1       6.002   1.684  11.714  0.00  0.00    +0.000 C 
BRANCH  25  26
ATOM     26  O   UNL     1       7.340   1.449  11.277  0.00  0.00    +0.000 OA
ATOM     27  H   UNL     1       7.422   1.837  10.389  0.00  0.00    +0.000 HD
ENDBRANCH  25  26
ENDBRANCH  23  25
ENDBRANCH  18  23
ENDBRANCH   1  19
TORSDOF 5
ENDMDL
MODEL 7
REMARK VINA RESULT:      -7.7      1.135      1.695
REMARK  Name = 
REMARK  7 active torsions:
REMARK  status: ('A' for Active; 'I' for Inactive)
REMARK    1  A    between atoms: C_1  and  C_2
REMARK    2  A    between atoms: C_2  and  C_3
REMARK    3  A    between atoms: C_2  and  C_4
REMARK    4  A    between atoms: C_2  and  N_6
REMARK    5  A    between atoms: C_4  and  O_5
REMARK    6  A    between atoms: C_7  and  C_9
REMARK    7  A    between atoms: N_11  and  C_12
REMARK                            x       y       z     vdW  Elec       q    Type
REMARK                         _______ _______ _______ _____ _____    ______ ____
ROOT
ATOM      1  C   UNL     1       2.423   6.851  19.430  0.00  0.00    +0.000 A 
ATOM      2  N   UNL     1       3.462   6.957  18.555  0.00  0.00    +0.000 NA
ATOM      3  N   UNL     1       3.853   5.649  18.306  0.00  0.00    +0.000 N 
ATOM      4  C   UNL     1       3.131   4.794  19.077  0.00  0.00    +0.000 A 
ATOM      5  C   UNL     1       2.222   5.511  19.793  0.00  0.00    +0.000 A 
ATOM      6  C   UNL     1       1.471   4.721  20.799  0.00  0.00    +0.000 C 
ATOM      7  C   UNL     1       2.164   3.347  20.710  0.00  0.00    +0.000 C 
ATOM      8  C   UNL     1       1.957   2.478  19.514  0.00  0.00    +0.000 C 
ATOM      9  C   UNL     1       3.182   3.358  19.546  0.00  0.00    +0.000 C 
ENDROOT
BRANCH   3  10
ATOM     10  C   UNL     1       4.833   5.322  17.336  0.00  0.00    +0.000 A 
ATOM     11  C   UNL     1       4.473   4.616  16.179  0.00  0.00    +0.000 A 
ATOM     12  C   UNL     1       5.451   4.305  15.226  0.00  0.00    +0.000 A 
ATOM     13  C   UNL     1       6.777   4.671  15.442  0.00  0.00    +0.000 A 
ATOM     14  F   UNL     1       7.709   4.350  14.536  0.00  0.00    +0.000 F 
ATOM     15  C   UNL     1       7.152   5.348  16.589  0.00  0.00    +0.000 A 
ATOM     16  C   UNL     1       6.175   5.674  17.529  0.00  0.00    +0.000 A 
ATOM     17  F   UNL     1       6.598   6.266  18.656  0.00  0.00    +0.000 F 
ENDBRANCH   3  10
BRANCH   1  19
ATOM     18  N   UNL     1       1.545   9.098  19.173  0.00  0.00    +0.000 N 
ATOM     19  C   UNL     1       1.645   7.981  19.973  0.00  0.00    +0.000 C 
ATOM     20  O   UNL     1       1.111   7.909  21.078  0.00  0.00    +0.000 OA
ATOM     21  H   UNL     1       2.013   9.043  18.273  0.00  0.00    +0.000 HD
BRANCH  18  23
ATOM     22  C   UNL     1       1.388  11.532  18.871  0.00  0.00    +0.000 C 
ATOM     23  C   UNL     1       0.762  10.297  19.547  0.00  0.00    +0.000 C 
ATOM     24  C   UNL     1       0.821  10.533  21.072  0.00  0.00    +0.000 C 
BRANCH  23  25
ATOM     25  C   UNL     1      -0.718  10.171  19.079  0.00  0.00    +0.000 C 
BRANCH  25  26
ATOM     26  O   UNL     1      -0.856  10.271  17.662  0.00  0.00    +0.000 OA
ATOM     27  H   UNL     1       0.042  10.287  17.289  0.00  0.00    +0.000 HD
ENDBRANCH  25  26
ENDBRANCH  23  25
ENDBRANCH  18  23
ENDBRANCH   1  19
TORSDOF 5
ENDMDL
MODEL 8
REMARK VINA RESULT:      -7.7      1.075      1.899
REMARK  Name = 
REMARK  7 active torsions:
REMARK  status: ('A' for Active; 'I' for Inactive)
REMARK    1  A    between atoms: C_1  and  C_2
REMARK    2  A    between atoms: C_2  and  C_3
REMARK    3  A    between atoms: C_2  and  C_4
REMARK    4  A    between atoms: C_2  and  N_6
REMARK    5  A    between atoms: C_4  and  O_5
REMARK    6  A    between atoms: C_7  and  C_9
REMARK    7  A    between atoms: N_11  and  C_12
REMARK                            x       y       z     vdW  Elec       q    Type
REMARK                         _______ _______ _______ _____ _____    ______ ____
ROOT
ATOM      1  C   UNL     1       2.307   7.729  18.884  0.00  0.00    +0.000 A 
ATOM      2  N   UNL     1       3.338   7.647  17.997  0.00  0.00    +0.000 NA
ATOM      3  N   UNL     1       3.796   6.341  18.104  0.00  0.00    +0.000 N 
ATOM      4  C   UNL     1       3.120   5.691  19.087  0.00  0.00    +0.000 A 
ATOM      5  C   UNL     1       2.176   6.528  19.596  0.00  0.00    +0.000 A 
ATOM      6  C   UNL     1       1.467   6.002  20.789  0.00  0.00    +0.000 C 
ATOM      7  C   UNL     1       2.229   4.691  21.063  0.00  0.00    +0.000 C 
ATOM      8  C   UNL     1       2.066   3.522  20.147  0.00  0.00    +0.000 C 
ATOM      9  C   UNL     1       3.245   4.438  19.924  0.00  0.00    +0.000 C 
ENDROOT
BRANCH   3  10
ATOM     10  C   UNL     1       4.790   5.813  17.243  0.00  0.00    +0.000 A 
ATOM     11  C   UNL     1       5.998   6.498  17.055  0.00  0.00    +0.000 A 
ATOM     12  C   UNL     1       6.974   5.962  16.206  0.00  0.00    +0.000 A 
ATOM     13  C   UNL     1       6.731   4.768  15.531  0.00  0.00    +0.000 A 
ATOM     14  F   UNL     1       7.662   4.274  14.704  0.00  0.00    +0.000 F 
ATOM     15  C   UNL     1       5.535   4.091  15.689  0.00  0.00    +0.000 A 
ATOM     16  C   UNL     1       4.571   4.616  16.549  0.00  0.00    +0.000 A 
ATOM     17  F   UNL     1       3.402   3.962  16.612  0.00  0.00    +0.000 F 
ENDBRANCH   3  10
BRANCH   1  19
ATOM     18  N   UNL     1       1.007   9.108  20.399  0.00  0.00    +0.000 N 
ATOM     19  C   UNL     1       1.473   8.924  19.115  0.00  0.00    +0.000 C 
ATOM     20  O   UNL     1       1.227   9.710  18.203  0.00  0.00    +0.000 OA
ATOM     21  H   UNL     1       1.284   8.404  21.077  0.00  0.00    +0.000 HD
BRANCH  18  23
ATOM     22  C   UNL     1      -0.937  10.482  19.788  0.00  0.00    +0.000 C 
ATOM     23  C   UNL     1       0.198  10.278  20.809  0.00  0.00    +0.000 C 
ATOM     24  C   UNL     1       1.055  11.563  20.803  0.00  0.00    +0.000 C 
BRANCH  23  25
ATOM     25  C   UNL     1      -0.432  10.059  22.217  0.00  0.00    +0.000 C 
BRANCH  25  26
ATOM     26  O   UNL     1       0.550   9.927  23.244  0.00  0.00    +0.000 OA
ATOM     27  H   UNL     1       1.267  10.550  23.033  0.00  0.00    +0.000 HD
ENDBRANCH  25  26
ENDBRANCH  23  25
ENDBRANCH  18  23
ENDBRANCH   1  19
TORSDOF 5
ENDMDL
MODEL 9
REMARK VINA RESULT:      -7.7      1.145      1.264
REMARK  Name = 
REMARK  7 active torsions:
REMARK  status: ('A' for Active; 'I' for Inactive)
REMARK    1  A    between atoms: C_1  and  C_2
REMARK    2  A    between atoms: C_2  and  C_3
REMARK    3  A    between atoms: C_2  and  C_4
REMARK    4  A    between atoms: C_2  and  N_6
REMARK    5  A    between atoms: C_4  and  O_5
REMARK    6  A    between atoms: C_7  and  C_9
REMARK    7  A    between atoms: N_11  and  C_12
REMARK                            x       y       z     vdW  Elec       q    Type
REMARK                         _______ _______ _______ _____ _____    ______ ____
ROOT
ATOM      1  C   UNL     1       2.291   7.774  18.818  0.00  0.00    +0.000 A 
ATOM      2  N   UNL     1       3.324   7.673  17.936  0.00  0.00    +0.000 NA
ATOM      3  N   UNL     1       3.784   6.371  18.074  0.00  0.00    +0.000 N 
ATOM      4  C   UNL     1       3.107   5.743  19.070  0.00  0.00    +0.000 A 
ATOM      5  C   UNL     1       2.160   6.590  19.557  0.00  0.00    +0.000 A 
ATOM      6  C   UNL     1       1.449   6.091  20.760  0.00  0.00    +0.000 C 
ATOM      7  C   UNL     1       2.213   4.788  21.067  0.00  0.00    +0.000 C 
ATOM      8  C   UNL     1       2.055   3.598  20.178  0.00  0.00    +0.000 C 
ATOM      9  C   UNL     1       3.232   4.511  19.937  0.00  0.00    +0.000 C 
ENDROOT
BRANCH   3  10
ATOM     10  C   UNL     1       4.782   5.825  17.229  0.00  0.00    +0.000 A 
ATOM     11  C   UNL     1       5.994   6.504  17.037  0.00  0.00    +0.000 A 
ATOM     12  C   UNL     1       6.973   5.950  16.203  0.00  0.00    +0.000 A 
ATOM     13  C   UNL     1       6.731   4.745  15.547  0.00  0.00    +0.000 A 
ATOM     14  F   UNL     1       7.664   4.234  14.735  0.00  0.00    +0.000 F 
ATOM     15  C   UNL     1       5.531   4.075  15.709  0.00  0.00    +0.000 A 
ATOM     16  C   UNL     1       4.564   4.617  16.554  0.00  0.00    +0.000 A 
ATOM     17  F   UNL     1       3.392   3.968  16.622  0.00  0.00    +0.000 F 
ENDBRANCH   3  10
BRANCH   1  19
ATOM     18  N   UNL     1       1.073   9.245  20.315  0.00  0.00    +0.000 N 
ATOM     19  C   UNL     1       1.453   8.972  19.018  0.00  0.00    +0.000 C 
ATOM     20  O   UNL     1       1.131   9.685  18.070  0.00  0.00    +0.000 OA
ATOM     21  H   UNL     1       1.409   8.598  21.021  0.00  0.00    +0.000 HD
BRANCH  18  23
ATOM     22  C   UNL     1      -0.181  10.281  22.157  0.00  0.00    +0.000 C 
ATOM     23  C   UNL     1       0.274  10.432  20.693  0.00  0.00    +0.000 C 
ATOM     24  C   UNL     1      -1.000  10.532  19.826  0.00  0.00    +0.000 C 
BRANCH  23  25
ATOM     25  C   UNL     1       1.114  11.738  20.566  0.00  0.00    +0.000 C 
BRANCH  25  26
ATOM     26  O   UNL     1       0.906  12.406  19.322  0.00  0.00    +0.000 OA
ATOM     27  H   UNL     1       0.126  11.999  18.907  0.00  0.00    +0.000 HD
ENDBRANCH  25  26
ENDBRANCH  23  25
ENDBRANCH  18  23
ENDBRANCH   1  19
TORSDOF 5
ENDMDL
