MODEL 1
REMARK VINA RESULT:      -7.7      0.000      0.000
REMARK  Name = 
REMARK  11 active torsions:
REMARK  status: ('A' for Active; 'I' for Inactive)
REMARK    1  A    between atoms: C_1  and  C_2
REMARK    2  A    between atoms: C_2  and  C_3
REMARK    3  A    between atoms: C_3  and  C_4
REMARK    4  A    between atoms: C_4  and  C_5
REMARK    5  A    between atoms: C_5  and  C_6
REMARK    6  A    between atoms: C_6  and  C_7
REMARK    7  A    between atoms: C_7  and  C_8
REMARK    8  A    between atoms: C_8  and  O_9
REMARK    9  A    between atoms: O_9  and  C_10
REMARK   10  A    between atoms: C_10  and  C_12
REMARK   11  A    between atoms: C_14  and  N_15
REMARK                            x       y       z     vdW  Elec       q    Type
REMARK                         _______ _______ _______ _____ _____    ______ ____
ROOT
ATOM      1  C   UNL     1       4.353   4.770  18.392  0.00  0.00    +0.000 A 
ATOM      2  C   UNL     1       3.857   6.045  18.740  0.00  0.00    +0.000 A 
ATOM      3  C   UNL     1       2.488   6.342  18.694  0.00  0.00    +0.000 A 
ATOM      4  C   UNL     1       1.614   5.337  18.254  0.00  0.00    +0.000 A 
ATOM      5  C   UNL     1       2.091   4.074  17.894  0.00  0.00    +0.000 A 
ATOM      6  C   UNL     1       3.453   3.777  17.978  0.00  0.00    +0.000 A 
ATOM      7 CL   UNL     1       3.908   2.150  17.628  0.00  0.00    +0.000 Cl
ENDROOT
BRANCH   3   8
ATOM      8  N   UNL     1       1.998   7.611  19.100  0.00  0.00    +0.000 N 
ATOM      9  C   UNL     1       1.386   7.887  20.293  0.00  0.00    +0.000 C 
ATOM     10  O   UNL     1       1.157   7.168  21.251  0.00  0.00    +0.000 OA
ATOM     11  C   UNL     1       1.044   9.311  20.282  0.00  0.00    +0.000 C 
ATOM     12  C   UNL     1       1.386   9.806  19.096  0.00  0.00    +0.000 C 
ATOM     13  C   UNL     1       1.161  11.204  18.661  0.00  0.00    +0.000 C 
ATOM     14  C   UNL     1       0.827  12.112  19.853  0.00  0.00    +0.000 C 
ATOM     15  C   UNL     1      -0.095  11.447  20.892  0.00  0.00    +0.000 C 
ATOM     16  C   UNL     1       0.413  10.077  21.380  0.00  0.00    +0.000 C 
ATOM     17  C   UNL     1       2.037   8.747  18.325  0.00  0.00    +0.000 C 
ATOM     18  O   UNL     1       2.465   8.929  17.197  0.00  0.00    +0.000 OA
ENDBRANCH   3   8
BRANCH   1  19
ATOM     19  C   UNL     1       5.806   4.488  18.547  0.00  0.00    +0.000 C 
ATOM     20  O   UNL     1       6.512   4.846  19.472  0.00  0.00    +0.000 OA
BRANCH  19  21
ATOM     21  O   UNL     1       6.248   3.871  17.416  0.00  0.00    +0.000 OA
BRANCH  21  22
ATOM     22  C   UNL     1       7.106   4.674  16.598  0.00  0.00    +0.000 C 
BRANCH  22  23
ATOM     23  C   UNL     1       6.348   5.363  15.469  0.00  0.00    +0.000 C 
BRANCH  23  24
ATOM     24  C   UNL     1       6.852   4.885  14.103  0.00  0.00    +0.000 C 
BRANCH  24  25
ATOM     25  C   UNL     1       6.006   3.733  13.563  0.00  0.00    +0.000 C 
BRANCH  25  26
ATOM     26  C   UNL     1       6.330   3.448  12.096  0.00  0.00    +0.000 C 
BRANCH  26  27
ATOM     27  C   UNL     1       5.656   2.159  11.628  0.00  0.00    +0.000 C 
BRANCH  27  29
ATOM     28  C   UNL     1       6.135  -0.262  11.174  0.00  0.00    +0.000 C 
ATOM     29  C   UNL     1       6.679   1.156  11.105  0.00  0.00    +0.000 C 
ENDBRANCH  27  29
ENDBRANCH  26  27
ENDBRANCH  25  26
ENDBRANCH  24  25
ENDBRANCH  23  24
ENDBRANCH  22  23
ENDBRANCH  21  22
ENDBRANCH  19  21
ENDBRANCH   1  19
TORSDOF 10
ENDMDL
MODEL 2
REMARK VINA RESULT:      -7.6      3.674      5.806
REMARK  Name = 
REMARK  11 active torsions:
REMARK  status: ('A' for Active; 'I' for Inactive)
REMARK    1  A    between atoms: C_1  and  C_2
REMARK    2  A    between atoms: C_2  and  C_3
REMARK    3  A    between atoms: C_3  and  C_4
REMARK    4  A    between atoms: C_4  and  C_5
REMARK    5  A    between atoms: C_5  and  C_6
REMARK    6  A    between atoms: C_6  and  C_7
REMARK    7  A    between atoms: C_7  and  C_8
REMARK    8  A    between atoms: C_8  and  O_9
REMARK    9  A    between atoms: O_9  and  C_10
REMARK   10  A    between atoms: C_10  and  C_12
REMARK   11  A    between atoms: C_14  and  N_15
REMARK                            x       y       z     vdW  Elec       q    Type
REMARK                         _______ _______ _______ _____ _____    ______ ____
ROOT
ATOM      1  C   UNL     1       4.312   6.217  17.010  0.00  0.00    +0.000 A 
ATOM      2  C   UNL     1       3.606   7.279  17.616  0.00  0.00    +0.000 A 
ATOM      3  C   UNL     1       2.546   7.048  18.505  0.00  0.00    +0.000 A 
ATOM      4  C   UNL     1       2.179   5.717  18.753  0.00  0.00    +0.000 A 
ATOM      5  C   UNL     1       2.860   4.656  18.151  0.00  0.00    +0.000 A 
ATOM      6  C   UNL     1       3.938   4.897  17.296  0.00  0.00    +0.000 A 
ATOM      7 CL   UNL     1       4.780   3.509  16.712  0.00  0.00    +0.000 Cl
ENDROOT
BRANCH   3   8
ATOM      8  N   UNL     1       1.882   8.123  19.150  0.00  0.00    +0.000 N 
ATOM      9  C   UNL     1       1.618   9.346  18.597  0.00  0.00    +0.000 C 
ATOM     10  O   UNL     1       1.843   9.775  17.478  0.00  0.00    +0.000 OA
ATOM     11  C   UNL     1       0.925  10.139  19.615  0.00  0.00    +0.000 C 
ATOM     12  C   UNL     1       0.864   9.414  20.728  0.00  0.00    +0.000 C 
ATOM     13  C   UNL     1       0.284   9.873  22.011  0.00  0.00    +0.000 C 
ATOM     14  C   UNL     1      -0.567  11.137  21.818  0.00  0.00    +0.000 C 
ATOM     15  C   UNL     1       0.040  12.138  20.819  0.00  0.00    +0.000 C 
ATOM     16  C   UNL     1       0.397  11.513  19.457  0.00  0.00    +0.000 C 
ATOM     17  C   UNL     1       1.436   8.097  20.451  0.00  0.00    +0.000 C 
ATOM     18  O   UNL     1       1.498   7.221  21.299  0.00  0.00    +0.000 OA
ENDBRANCH   3   8
BRANCH   1  19
ATOM     19  C   UNL     1       5.485   6.525  16.146  0.00  0.00    +0.000 C 
ATOM     20  O   UNL     1       5.709   6.053  15.046  0.00  0.00    +0.000 OA
BRANCH  19  21
ATOM     21  O   UNL     1       6.335   7.327  16.844  0.00  0.00    +0.000 OA
BRANCH  21  22
ATOM     22  C   UNL     1       7.474   6.652  17.389  0.00  0.00    +0.000 C 
BRANCH  22  23
ATOM     23  C   UNL     1       8.186   7.485  18.450  0.00  0.00    +0.000 C 
BRANCH  23  24
ATOM     24  C   UNL     1       8.232   8.961  18.043  0.00  0.00    +0.000 C 
BRANCH  24  25
ATOM     25  C   UNL     1       9.091   9.783  19.003  0.00  0.00    +0.000 C 
BRANCH  25  26
ATOM     26  C   UNL     1       9.805  10.921  18.272  0.00  0.00    +0.000 C 
BRANCH  26  27
ATOM     27  C   UNL     1       9.148  12.265  18.582  0.00  0.00    +0.000 C 
BRANCH  27  29
ATOM     28  C   UNL     1      10.984  13.099  17.087  0.00  0.00    +0.000 C 
ATOM     29  C   UNL     1       9.561  13.330  17.570  0.00  0.00    +0.000 C 
ENDBRANCH  27  29
ENDBRANCH  26  27
ENDBRANCH  25  26
ENDBRANCH  24  25
ENDBRANCH  23  24
ENDBRANCH  22  23
ENDBRANCH  21  22
ENDBRANCH  19  21
ENDBRANCH   1  19
TORSDOF 10
ENDMDL
MODEL 3
REMARK VINA RESULT:      -7.6      4.210      6.183
REMARK  Name = 
REMARK  11 active torsions:
REMARK  status: ('A' for Active; 'I' for Inactive)
REMARK    1  A    between atoms: C_1  and  C_2
REMARK    2  A    between atoms: C_2  and  C_3
REMARK    3  A    between atoms: C_3  and  C_4
REMARK    4  A    between atoms: C_4  and  C_5
REMARK    5  A    between atoms: C_5  and  C_6
REMARK    6  A    between atoms: C_6  and  C_7
REMARK    7  A    between atoms: C_7  and  C_8
REMARK    8  A    between atoms: C_8  and  O_9
REMARK    9  A    between atoms: O_9  and  C_10
REMARK   10  A    between atoms: C_10  and  C_12
REMARK   11  A    between atoms: C_14  and  N_15
REMARK                            x       y       z     vdW  Elec       q    Type
REMARK                         _______ _______ _______ _____ _____    ______ ____
ROOT
ATOM      1  C   UNL     1       5.143   6.140  17.006  0.00  0.00    +0.000 A 
ATOM      2  C   UNL     1       4.326   7.066  17.692  0.00  0.00    +0.000 A 
ATOM      3  C   UNL     1       3.055   6.714  18.170  0.00  0.00    +0.000 A 
ATOM      4  C   UNL     1       2.596   5.414  17.914  0.00  0.00    +0.000 A 
ATOM      5  C   UNL     1       3.387   4.492  17.225  0.00  0.00    +0.000 A 
ATOM      6  C   UNL     1       4.667   4.840  16.786  0.00  0.00    +0.000 A 
ATOM      7 CL   UNL     1       5.599   3.583  16.060  0.00  0.00    +0.000 Cl
ENDROOT
BRANCH   3   8
ATOM      8  N   UNL     1       2.267   7.637  18.906  0.00  0.00    +0.000 N 
ATOM      9  C   UNL     1       1.850   8.863  18.465  0.00  0.00    +0.000 C 
ATOM     10  O   UNL     1       2.013   9.416  17.390  0.00  0.00    +0.000 OA
ATOM     11  C   UNL     1       1.073   9.470  19.547  0.00  0.00    +0.000 C 
ATOM     12  C   UNL     1       1.109   8.646  20.590  0.00  0.00    +0.000 C 
ATOM     13  C   UNL     1       0.486   8.912  21.907  0.00  0.00    +0.000 C 
ATOM     14  C   UNL     1      -0.515  10.073  21.825  0.00  0.00    +0.000 C 
ATOM     15  C   UNL     1      -0.044  11.228  20.923  0.00  0.00    +0.000 C 
ATOM     16  C   UNL     1       0.378  10.777  19.512  0.00  0.00    +0.000 C 
ATOM     17  C   UNL     1       1.838   7.439  20.198  0.00  0.00    +0.000 C 
ATOM     18  O   UNL     1       2.012   6.505  20.963  0.00  0.00    +0.000 OA
ENDBRANCH   3   8
BRANCH   1  19
ATOM     19  C   UNL     1       6.518   6.545  16.603  0.00  0.00    +0.000 C 
ATOM     20  O   UNL     1       7.366   5.820  16.116  0.00  0.00    +0.000 OA
BRANCH  19  21
ATOM     21  O   UNL     1       6.716   7.836  16.989  0.00  0.00    +0.000 OA
BRANCH  21  22
ATOM     22  C   UNL     1       7.838   8.030  17.857  0.00  0.00    +0.000 C 
BRANCH  22  23
ATOM     23  C   UNL     1       8.354   9.464  17.822  0.00  0.00    +0.000 C 
BRANCH  23  24
ATOM     24  C   UNL     1       9.139   9.793  19.096  0.00  0.00    +0.000 C 
BRANCH  24  25
ATOM     25  C   UNL     1       9.938  11.086  18.947  0.00  0.00    +0.000 C 
BRANCH  25  26
ATOM     26  C   UNL     1       9.068  12.215  18.392  0.00  0.00    +0.000 C 
BRANCH  26  27
ATOM     27  C   UNL     1       9.921  13.421  18.001  0.00  0.00    +0.000 C 
BRANCH  27  29
ATOM     28  C   UNL     1      12.035  13.311  16.653  0.00  0.00    +0.000 C 
ATOM     29  C   UNL     1      11.408  13.078  18.018  0.00  0.00    +0.000 C 
ENDBRANCH  27  29
ENDBRANCH  26  27
ENDBRANCH  25  26
ENDBRANCH  24  25
ENDBRANCH  23  24
ENDBRANCH  22  23
ENDBRANCH  21  22
ENDBRANCH  19  21
ENDBRANCH   1  19
TORSDOF 10
ENDMDL
MODEL 4
REMARK VINA RESULT:      -7.5      1.628      1.947
REMARK  Name = 
REMARK  11 active torsions:
REMARK  status: ('A' for Active; 'I' for Inactive)
REMARK    1  A    between atoms: C_1  and  C_2
REMARK    2  A    between atoms: C_2  and  C_3
REMARK    3  A    between atoms: C_3  and  C_4
REMARK    4  A    between atoms: C_4  and  C_5
REMARK    5  A    between atoms: C_5  and  C_6
REMARK    6  A    between atoms: C_6  and  C_7
REMARK    7  A    between atoms: C_7  and  C_8
REMARK    8  A    between atoms: C_8  and  O_9
REMARK    9  A    between atoms: O_9  and  C_10
REMARK   10  A    between atoms: C_10  and  C_12
REMARK   11  A    between atoms: C_14  and  N_15
REMARK                            x       y       z     vdW  Elec       q    Type
REMARK                         _______ _______ _______ _____ _____    ______ ____
ROOT
ATOM      1  C   UNL     1       3.769   4.841  19.086  0.00  0.00    +0.000 A 
ATOM      2  C   UNL     1       3.259   6.158  19.047  0.00  0.00    +0.000 A 
ATOM      3  C   UNL     1       2.206   6.566  19.879  0.00  0.00    +0.000 A 
ATOM      4  C   UNL     1       1.640   5.610  20.735  0.00  0.00    +0.000 A 
ATOM      5  C   UNL     1       2.124   4.301  20.775  0.00  0.00    +0.000 A 
ATOM      6  C   UNL     1       3.198   3.915  19.970  0.00  0.00    +0.000 A 
ATOM      7 CL   UNL     1       3.790   2.310  20.196  0.00  0.00    +0.000 Cl
ENDROOT
BRANCH   3   8
ATOM      8  N   UNL     1       1.741   7.907  19.870  0.00  0.00    +0.000 N 
ATOM      9  C   UNL     1       1.239   8.587  20.946  0.00  0.00    +0.000 C 
ATOM     10  O   UNL     1       1.107   8.242  22.109  0.00  0.00    +0.000 OA
ATOM     11  C   UNL     1       0.882   9.928  20.481  0.00  0.00    +0.000 C 
ATOM     12  C   UNL     1       1.107   9.982  19.171  0.00  0.00    +0.000 C 
ATOM     13  C   UNL     1       0.827  11.152  18.307  0.00  0.00    +0.000 C 
ATOM     14  C   UNL     1       0.594  12.419  19.143  0.00  0.00    +0.000 C 
ATOM     15  C   UNL     1      -0.220  12.167  20.425  0.00  0.00    +0.000 C 
ATOM     16  C   UNL     1       0.346  11.036  21.304  0.00  0.00    +0.000 C 
ATOM     17  C   UNL     1       1.697   8.710  18.753  0.00  0.00    +0.000 C 
ATOM     18  O   UNL     1       2.016   8.487  17.597  0.00  0.00    +0.000 OA
ENDBRANCH   3   8
BRANCH   1  19
ATOM     19  C   UNL     1       4.946   4.494  18.245  0.00  0.00    +0.000 C 
ATOM     20  O   UNL     1       6.089   4.344  18.637  0.00  0.00    +0.000 OA
BRANCH  19  21
ATOM     21  O   UNL     1       4.558   4.496  16.940  0.00  0.00    +0.000 OA
BRANCH  21  22
ATOM     22  C   UNL     1       5.383   5.287  16.077  0.00  0.00    +0.000 C 
BRANCH  22  23
ATOM     23  C   UNL     1       6.200   4.432  15.115  0.00  0.00    +0.000 C 
BRANCH  23  24
ATOM     24  C   UNL     1       5.673   4.568  13.683  0.00  0.00    +0.000 C 
BRANCH  24  25
ATOM     25  C   UNL     1       6.176   3.436  12.788  0.00  0.00    +0.000 C 
BRANCH  25  26
ATOM     26  C   UNL     1       5.039   2.836  11.960  0.00  0.00    +0.000 C 
BRANCH  26  27
ATOM     27  C   UNL     1       4.188   3.934  11.324  0.00  0.00    +0.000 C 
BRANCH  27  29
ATOM     28  C   UNL     1       2.769   4.453   9.320  0.00  0.00    +0.000 C 
ATOM     29  C   UNL     1       3.246   3.364  10.268  0.00  0.00    +0.000 C 
ENDBRANCH  27  29
ENDBRANCH  26  27
ENDBRANCH  25  26
ENDBRANCH  24  25
ENDBRANCH  23  24
ENDBRANCH  22  23
ENDBRANCH  21  22
ENDBRANCH  19  21
ENDBRANCH   1  19
TORSDOF 10
ENDMDL
MODEL 5
REMARK VINA RESULT:      -7.5      4.234      6.080
REMARK  Name = 
REMARK  11 active torsions:
REMARK  status: ('A' for Active; 'I' for Inactive)
REMARK    1  A    between atoms: C_1  and  C_2
REMARK    2  A    between atoms: C_2  and  C_3
REMARK    3  A    between atoms: C_3  and  C_4
REMARK    4  A    between atoms: C_4  and  C_5
REMARK    5  A    between atoms: C_5  and  C_6
REMARK    6  A    between atoms: C_6  and  C_7
REMARK    7  A    between atoms: C_7  and  C_8
REMARK    8  A    between atoms: C_8  and  O_9
REMARK    9  A    between atoms: O_9  and  C_10
REMARK   10  A    between atoms: C_10  and  C_12
REMARK   11  A    between atoms: C_14  and  N_15
REMARK                            x       y       z     vdW  Elec       q    Type
REMARK                         _______ _______ _______ _____ _____    ______ ____
ROOT
ATOM      1  C   UNL     1       5.189   5.820  17.134  0.00  0.00    +0.000 A 
ATOM      2  C   UNL     1       4.410   6.788  17.807  0.00  0.00    +0.000 A 
ATOM      3  C   UNL     1       3.088   6.530  18.197  0.00  0.00    +0.000 A 
ATOM      4  C   UNL     1       2.540   5.282  17.866  0.00  0.00    +0.000 A 
ATOM      5  C   UNL     1       3.293   4.320  17.189  0.00  0.00    +0.000 A 
ATOM      6  C   UNL     1       4.621   4.573  16.838  0.00  0.00    +0.000 A 
ATOM      7 CL   UNL     1       5.488   3.267  16.118  0.00  0.00    +0.000 Cl
ENDROOT
BRANCH   3   8
ATOM      8  N   UNL     1       2.336   7.490  18.922  0.00  0.00    +0.000 N 
ATOM      9  C   UNL     1       1.888   7.351  20.208  0.00  0.00    +0.000 C 
ATOM     10  O   UNL     1       2.042   6.441  21.006  0.00  0.00    +0.000 OA
ATOM     11  C   UNL     1       1.159   8.575  20.546  0.00  0.00    +0.000 C 
ATOM     12  C   UNL     1       1.134   9.349  19.465  0.00  0.00    +0.000 C 
ATOM     13  C   UNL     1       0.449  10.659  19.373  0.00  0.00    +0.000 C 
ATOM     14  C   UNL     1       0.084  11.196  20.764  0.00  0.00    +0.000 C 
ATOM     15  C   UNL     1      -0.416  10.106  21.730  0.00  0.00    +0.000 C 
ATOM     16  C   UNL     1       0.536   8.901  21.849  0.00  0.00    +0.000 C 
ATOM     17  C   UNL     1       1.916   8.697  18.414  0.00  0.00    +0.000 C 
ATOM     18  O   UNL     1       2.072   9.197  17.312  0.00  0.00    +0.000 OA
ENDBRANCH   3   8
BRANCH   1  19
ATOM     19  C   UNL     1       6.614   6.120  16.827  0.00  0.00    +0.000 C 
ATOM     20  O   UNL     1       7.498   5.302  16.655  0.00  0.00    +0.000 OA
BRANCH  19  21
ATOM     21  O   UNL     1       6.794   7.468  16.897  0.00  0.00    +0.000 OA
BRANCH  21  22
ATOM     22  C   UNL     1       7.877   7.879  17.738  0.00  0.00    +0.000 C 
BRANCH  22  23
ATOM     23  C   UNL     1       8.055   9.393  17.754  0.00  0.00    +0.000 C 
BRANCH  23  24
ATOM     24  C   UNL     1       9.032   9.817  18.855  0.00  0.00    +0.000 C 
BRANCH  24  25
ATOM     25  C   UNL     1       9.806  11.076  18.467  0.00  0.00    +0.000 C 
BRANCH  25  26
ATOM     26  C   UNL     1       9.467  12.243  19.395  0.00  0.00    +0.000 C 
BRANCH  26  27
ATOM     27  C   UNL     1       9.850  13.577  18.758  0.00  0.00    +0.000 C 
BRANCH  27  29
ATOM     28  C   UNL     1      11.287  14.715  17.045  0.00  0.00    +0.000 C 
ATOM     29  C   UNL     1      10.817  13.379  17.594  0.00  0.00    +0.000 C 
ENDBRANCH  27  29
ENDBRANCH  26  27
ENDBRANCH  25  26
ENDBRANCH  24  25
ENDBRANCH  23  24
ENDBRANCH  22  23
ENDBRANCH  21  22
ENDBRANCH  19  21
ENDBRANCH   1  19
TORSDOF 10
ENDMDL
MODEL 6
REMARK VINA RESULT:      -7.4      1.811      2.535
REMARK  Name = 
REMARK  11 active torsions:
REMARK  status: ('A' for Active; 'I' for Inactive)
REMARK    1  A    between atoms: C_1  and  C_2
REMARK    2  A    between atoms: C_2  and  C_3
REMARK    3  A    between atoms: C_3  and  C_4
REMARK    4  A    between atoms: C_4  and  C_5
REMARK    5  A    between atoms: C_5  and  C_6
REMARK    6  A    between atoms: C_6  and  C_7
REMARK    7  A    between atoms: C_7  and  C_8
REMARK    8  A    between atoms: C_8  and  O_9
REMARK    9  A    between atoms: O_9  and  C_10
REMARK   10  A    between atoms: C_10  and  C_12
REMARK   11  A    between atoms: C_14  and  N_15
REMARK                            x       y       z     vdW  Elec       q    Type
REMARK                         _______ _______ _______ _____ _____    ______ ____
ROOT
ATOM      1  C   UNL     1       3.910   4.295  18.792  0.00  0.00    +0.000 A 
ATOM      2  C   UNL     1       3.555   5.619  19.136  0.00  0.00    +0.000 A 
ATOM      3  C   UNL     1       2.336   6.184  18.733  0.00  0.00    +0.000 A 
ATOM      4  C   UNL     1       1.484   5.404  17.938  0.00  0.00    +0.000 A 
ATOM      5  C   UNL     1       1.827   4.098  17.579  0.00  0.00    +0.000 A 
ATOM      6  C   UNL     1       3.026   3.532  18.017  0.00  0.00    +0.000 A 
ATOM      7 CL   UNL     1       3.284   1.873  17.616  0.00  0.00    +0.000 Cl
ENDROOT
BRANCH   3   8
ATOM      8  N   UNL     1       1.968   7.495  19.133  0.00  0.00    +0.000 N 
ATOM      9  C   UNL     1       1.435   7.841  20.345  0.00  0.00    +0.000 C 
ATOM     10  O   UNL     1       1.193   7.160  21.327  0.00  0.00    +0.000 OA
ATOM     11  C   UNL     1       1.207   9.287  20.319  0.00  0.00    +0.000 C 
ATOM     12  C   UNL     1       1.533   9.732  19.109  0.00  0.00    +0.000 C 
ATOM     13  C   UNL     1       1.400  11.135  18.654  0.00  0.00    +0.000 C 
ATOM     14  C   UNL     1       1.194  12.088  19.841  0.00  0.00    +0.000 C 
ATOM     15  C   UNL     1       0.271  11.518  20.932  0.00  0.00    +0.000 C 
ATOM     16  C   UNL     1       0.689  10.120  21.427  0.00  0.00    +0.000 C 
ATOM     17  C   UNL     1       2.063   8.610  18.333  0.00  0.00    +0.000 C 
ATOM     18  O   UNL     1       2.451   8.737  17.184  0.00  0.00    +0.000 OA
ENDBRANCH   3   8
BRANCH   1  19
ATOM     19  C   UNL     1       5.175   3.721  19.325  0.00  0.00    +0.000 C 
ATOM     20  O   UNL     1       5.270   2.899  20.218  0.00  0.00    +0.000 OA
BRANCH  19  21
ATOM     21  O   UNL     1       6.221   4.363  18.735  0.00  0.00    +0.000 OA
BRANCH  21  22
ATOM     22  C   UNL     1       6.882   5.315  19.575  0.00  0.00    +0.000 C 
BRANCH  22  23
ATOM     23  C   UNL     1       7.804   6.239  18.787  0.00  0.00    +0.000 C 
BRANCH  23  24
ATOM     24  C   UNL     1       7.352   6.345  17.327  0.00  0.00    +0.000 C 
BRANCH  24  25
ATOM     25  C   UNL     1       6.064   7.156  17.194  0.00  0.00    +0.000 C 
BRANCH  25  26
ATOM     26  C   UNL     1       5.384   6.899  15.848  0.00  0.00    +0.000 C 
BRANCH  26  27
ATOM     27  C   UNL     1       4.818   5.482  15.784  0.00  0.00    +0.000 C 
BRANCH  27  29
ATOM     28  C   UNL     1       6.310   3.539  15.239  0.00  0.00    +0.000 C 
ATOM     29  C   UNL     1       5.473   4.673  14.669  0.00  0.00    +0.000 C 
ENDBRANCH  27  29
ENDBRANCH  26  27
ENDBRANCH  25  26
ENDBRANCH  24  25
ENDBRANCH  23  24
ENDBRANCH  22  23
ENDBRANCH  21  22
ENDBRANCH  19  21
ENDBRANCH   1  19
TORSDOF 10
ENDMDL
MODEL 7
REMARK VINA RESULT:      -7.4      3.928      6.255
REMARK  Name = 
REMARK  11 active torsions:
REMARK  status: ('A' for Active; 'I' for Inactive)
REMARK    1  A    between atoms: C_1  and  C_2
REMARK    2  A    between atoms: C_2  and  C_3
REMARK    3  A    between atoms: C_3  and  C_4
REMARK    4  A    between atoms: C_4  and  C_5
REMARK    5  A    between atoms: C_5  and  C_6
REMARK    6  A    between atoms: C_6  and  C_7
REMARK    7  A    between atoms: C_7  and  C_8
REMARK    8  A    between atoms: C_8  and  O_9
REMARK    9  A    between atoms: O_9  and  C_10
REMARK   10  A    between atoms: C_10  and  C_12
REMARK   11  A    between atoms: C_14  and  N_15
REMARK                            x       y       z     vdW  Elec       q    Type
REMARK                         _______ _______ _______ _____ _____    ______ ____
ROOT
ATOM      1  C   UNL     1       5.200   5.920  17.101  0.00  0.00    +0.000 A 
ATOM      2  C   UNL     1       4.403   6.867  17.781  0.00  0.00    +0.000 A 
ATOM      3  C   UNL     1       3.087   6.578  18.171  0.00  0.00    +0.000 A 
ATOM      4  C   UNL     1       2.564   5.322  17.832  0.00  0.00    +0.000 A 
ATOM      5  C   UNL     1       3.336   4.380  17.148  0.00  0.00    +0.000 A 
ATOM      6  C   UNL     1       4.658   4.663  16.797  0.00  0.00    +0.000 A 
ATOM      7 CL   UNL     1       5.552   3.380  16.069  0.00  0.00    +0.000 Cl
ENDROOT
BRANCH   3   8
ATOM      8  N   UNL     1       2.316   7.519  18.903  0.00  0.00    +0.000 N 
ATOM      9  C   UNL     1       1.954   8.765  18.470  0.00  0.00    +0.000 C 
ATOM     10  O   UNL     1       2.161   9.326  17.407  0.00  0.00    +0.000 OA
ATOM     11  C   UNL     1       1.174   9.384  19.543  0.00  0.00    +0.000 C 
ATOM     12  C   UNL     1       1.156   8.545  20.575  0.00  0.00    +0.000 C 
ATOM     13  C   UNL     1       0.513   8.816  21.881  0.00  0.00    +0.000 C 
ATOM     14  C   UNL     1      -0.444  10.014  21.793  0.00  0.00    +0.000 C 
ATOM     15  C   UNL     1       0.089  11.163  20.919  0.00  0.00    +0.000 C 
ATOM     16  C   UNL     1       0.527  10.716  19.511  0.00  0.00    +0.000 C 
ATOM     17  C   UNL     1       1.850   7.319  20.181  0.00  0.00    +0.000 C 
ATOM     18  O   UNL     1       1.974   6.368  20.936  0.00  0.00    +0.000 OA
ENDBRANCH   3   8
BRANCH   1  19
ATOM     19  C   UNL     1       6.619   6.251  16.794  0.00  0.00    +0.000 C 
ATOM     20  O   UNL     1       7.501   5.455  16.530  0.00  0.00    +0.000 OA
BRANCH  19  21
ATOM     21  O   UNL     1       6.798   7.588  16.983  0.00  0.00    +0.000 OA
BRANCH  21  22
ATOM     22  C   UNL     1       7.868   7.923  17.873  0.00  0.00    +0.000 C 
BRANCH  22  23
ATOM     23  C   UNL     1       8.230   9.403  17.810  0.00  0.00    +0.000 C 
BRANCH  23  24
ATOM     24  C   UNL     1       9.051   9.816  19.036  0.00  0.00    +0.000 C 
BRANCH  24  25
ATOM     25  C   UNL     1       9.951  11.013  18.733  0.00  0.00    +0.000 C 
BRANCH  25  26
ATOM     26  C   UNL     1       9.349  12.310  19.275  0.00  0.00    +0.000 C 
BRANCH  26  27
ATOM     27  C   UNL     1      10.032  13.529  18.658  0.00  0.00    +0.000 C 
BRANCH  27  29
ATOM     28  C   UNL     1       7.693  13.767  17.780  0.00  0.00    +0.000 C 
ATOM     29  C   UNL     1       9.015  14.476  18.027  0.00  0.00    +0.000 C 
ENDBRANCH  27  29
ENDBRANCH  26  27
ENDBRANCH  25  26
ENDBRANCH  24  25
ENDBRANCH  23  24
ENDBRANCH  22  23
ENDBRANCH  21  22
ENDBRANCH  19  21
ENDBRANCH   1  19
TORSDOF 10
ENDMDL
MODEL 8
REMARK VINA RESULT:      -7.4      0.989      1.262
REMARK  Name = 
REMARK  11 active torsions:
REMARK  status: ('A' for Active; 'I' for Inactive)
REMARK    1  A    between atoms: C_1  and  C_2
REMARK    2  A    between atoms: C_2  and  C_3
REMARK    3  A    between atoms: C_3  and  C_4
REMARK    4  A    between atoms: C_4  and  C_5
REMARK    5  A    between atoms: C_5  and  C_6
REMARK    6  A    between atoms: C_6  and  C_7
REMARK    7  A    between atoms: C_7  and  C_8
REMARK    8  A    between atoms: C_8  and  O_9
REMARK    9  A    between atoms: O_9  and  C_10
REMARK   10  A    between atoms: C_10  and  C_12
REMARK   11  A    between atoms: C_14  and  N_15
REMARK                            x       y       z     vdW  Elec       q    Type
REMARK                         _______ _______ _______ _____ _____    ______ ____
ROOT
ATOM      1  C   UNL     1       4.297   5.415  18.560  0.00  0.00    +0.000 A 
ATOM      2  C   UNL     1       3.726   6.647  18.947  0.00  0.00    +0.000 A 
ATOM      3  C   UNL     1       2.364   6.922  18.755  0.00  0.00    +0.000 A 
ATOM      4  C   UNL     1       1.581   5.943  18.127  0.00  0.00    +0.000 A 
ATOM      5  C   UNL     1       2.134   4.724  17.727  0.00  0.00    +0.000 A 
ATOM      6  C   UNL     1       3.483   4.446  17.957  0.00  0.00    +0.000 A 
ATOM      7 CL   UNL     1       4.024   2.863  17.534  0.00  0.00    +0.000 Cl
ENDROOT
BRANCH   3   8
ATOM      8  N   UNL     1       1.792   8.143  19.199  0.00  0.00    +0.000 N 
ATOM      9  C   UNL     1       1.225   8.360  20.426  0.00  0.00    +0.000 C 
ATOM     10  O   UNL     1       1.108   7.618  21.387  0.00  0.00    +0.000 OA
ATOM     11  C   UNL     1       0.764   9.750  20.448  0.00  0.00    +0.000 C 
ATOM     12  C   UNL     1       0.999  10.279  19.251  0.00  0.00    +0.000 C 
ATOM     13  C   UNL     1       0.634  11.655  18.843  0.00  0.00    +0.000 C 
ATOM     14  C   UNL     1       0.290  12.525  20.061  0.00  0.00    +0.000 C 
ATOM     15  C   UNL     1      -0.515  11.778  21.139  0.00  0.00    +0.000 C 
ATOM     16  C   UNL     1       0.131  10.453  21.586  0.00  0.00    +0.000 C 
ATOM     17  C   UNL     1       1.695   9.283  18.436  0.00  0.00    +0.000 C 
ATOM     18  O   UNL     1       2.044   9.507  17.288  0.00  0.00    +0.000 OA
ENDBRANCH   3   8
BRANCH   1  19
ATOM     19  C   UNL     1       5.727   5.147  18.872  0.00  0.00    +0.000 C 
ATOM     20  O   UNL     1       6.145   4.355  19.697  0.00  0.00    +0.000 OA
BRANCH  19  21
ATOM     21  O   UNL     1       6.492   6.029  18.172  0.00  0.00    +0.000 OA
BRANCH  21  22
ATOM     22  C   UNL     1       7.551   5.427  17.418  0.00  0.00    +0.000 C 
BRANCH  22  23
ATOM     23  C   UNL     1       7.030   4.442  16.377  0.00  0.00    +0.000 C 
BRANCH  23  24
ATOM     24  C   UNL     1       6.368   5.182  15.210  0.00  0.00    +0.000 C 
BRANCH  24  25
ATOM     25  C   UNL     1       6.759   4.573  13.864  0.00  0.00    +0.000 C 
BRANCH  25  26
ATOM     26  C   UNL     1       5.586   3.819  13.235  0.00  0.00    +0.000 C 
BRANCH  26  27
ATOM     27  C   UNL     1       6.081   2.784  12.226  0.00  0.00    +0.000 C 
BRANCH  27  29
ATOM     28  C   UNL     1       3.820   3.408  11.333  0.00  0.00    +0.000 C 
ATOM     29  C   UNL     1       5.023   2.493  11.166  0.00  0.00    +0.000 C 
ENDBRANCH  27  29
ENDBRANCH  26  27
ENDBRANCH  25  26
ENDBRANCH  24  25
ENDBRANCH  23  24
ENDBRANCH  22  23
ENDBRANCH  21  22
ENDBRANCH  19  21
ENDBRANCH   1  19
TORSDOF 10
ENDMDL
MODEL 9
REMARK VINA RESULT:      -7.4      3.606      5.540
REMARK  Name = 
REMARK  11 active torsions:
REMARK  status: ('A' for Active; 'I' for Inactive)
REMARK    1  A    between atoms: C_1  and  C_2
REMARK    2  A    between atoms: C_2  and  C_3
REMARK    3  A    between atoms: C_3  and  C_4
REMARK    4  A    between atoms: C_4  and  C_5
REMARK    5  A    between atoms: C_5  and  C_6
REMARK    6  A    between atoms: C_6  and  C_7
REMARK    7  A    between atoms: C_7  and  C_8
REMARK    8  A    between atoms: C_8  and  O_9
REMARK    9  A    between atoms: O_9  and  C_10
REMARK   10  A    between atoms: C_10  and  C_12
REMARK   11  A    between atoms: C_14  and  N_15
REMARK                            x       y       z     vdW  Elec       q    Type
REMARK                         _______ _______ _______ _____ _____    ______ ____
ROOT
ATOM      1  C   UNL     1       4.203   5.943  17.224  0.00  0.00    +0.000 A 
ATOM      2  C   UNL     1       3.541   7.079  17.741  0.00  0.00    +0.000 A 
ATOM      3  C   UNL     1       2.509   6.966  18.684  0.00  0.00    +0.000 A 
ATOM      4  C   UNL     1       2.121   5.678  19.078  0.00  0.00    +0.000 A 
ATOM      5  C   UNL     1       2.757   4.544  18.566  0.00  0.00    +0.000 A 
ATOM      6  C   UNL     1       3.809   4.669  17.656  0.00  0.00    +0.000 A 
ATOM      7 CL   UNL     1       4.598   3.207  17.190  0.00  0.00    +0.000 Cl
ENDROOT
BRANCH   3   8
ATOM      8  N   UNL     1       1.892   8.118  19.236  0.00  0.00    +0.000 N 
ATOM      9  C   UNL     1       1.415   8.235  20.514  0.00  0.00    +0.000 C 
ATOM     10  O   UNL     1       1.432   7.442  21.441  0.00  0.00    +0.000 OA
ATOM     11  C   UNL     1       0.861   9.584  20.646  0.00  0.00    +0.000 C 
ATOM     12  C   UNL     1       0.956  10.184  19.464  0.00  0.00    +0.000 C 
ATOM     13  C   UNL     1       0.463  11.547  19.160  0.00  0.00    +0.000 C 
ATOM     14  C   UNL     1       0.161  12.330  20.445  0.00  0.00    +0.000 C 
ATOM     15  C   UNL     1      -0.496  11.476  21.544  0.00  0.00    +0.000 C 
ATOM     16  C   UNL     1       0.277  10.183  21.867  0.00  0.00    +0.000 C 
ATOM     17  C   UNL     1       1.650   9.282  18.544  0.00  0.00    +0.000 C 
ATOM     18  O   UNL     1       1.886   9.585  17.386  0.00  0.00    +0.000 OA
ENDBRANCH   3   8
BRANCH   1  19
ATOM     19  C   UNL     1       5.350   6.131  16.295  0.00  0.00    +0.000 C 
ATOM     20  O   UNL     1       5.583   5.470  15.299  0.00  0.00    +0.000 OA
BRANCH  19  21
ATOM     21  O   UNL     1       6.172   7.084  16.815  0.00  0.00    +0.000 OA
BRANCH  21  22
ATOM     22  C   UNL     1       7.403   6.580  17.347  0.00  0.00    +0.000 C 
BRANCH  22  23
ATOM     23  C   UNL     1       7.985   7.494  18.420  0.00  0.00    +0.000 C 
BRANCH  23  24
ATOM     24  C   UNL     1       8.136   8.925  17.895  0.00  0.00    +0.000 C 
BRANCH  24  25
ATOM     25  C   UNL     1       9.119   9.733  18.739  0.00  0.00    +0.000 C 
BRANCH  25  26
ATOM     26  C   UNL     1       9.187  11.188  18.271  0.00  0.00    +0.000 C 
BRANCH  26  27
ATOM     27  C   UNL     1      10.635  11.624  18.051  0.00  0.00    +0.000 C 
BRANCH  27  29
ATOM     28  C   UNL     1       9.476  13.834  17.785  0.00  0.00    +0.000 C 
ATOM     29  C   UNL     1      10.707  13.016  17.430  0.00  0.00    +0.000 C 
ENDBRANCH  27  29
ENDBRANCH  26  27
ENDBRANCH  25  26
ENDBRANCH  24  25
ENDBRANCH  23  24
ENDBRANCH  22  23
ENDBRANCH  21  22
ENDBRANCH  19  21
ENDBRANCH   1  19
TORSDOF 10
ENDMDL
