MODEL 1
REMARK VINA RESULT:      -7.8      0.000      0.000
REMARK  Name = 
REMARK  10 active torsions:
REMARK  status: ('A' for Active; 'I' for Inactive)
REMARK    1  A    between atoms: C_1  and  C_2
REMARK    2  A    between atoms: C_6  and  C_7
REMARK    3  A    between atoms: N_9  and  C_10
REMARK    4  A    between atoms: C_10  and  C_11
REMARK    5  A    between atoms: C_10  and  C_21
REMARK    6  A    between atoms: C_11  and  C_12
REMARK    7  A    between atoms: C_12  and  C_13
REMARK    8  A    between atoms: C_13  and  N_14
REMARK    9  A    between atoms: N_17  and  N_18
REMARK   10  A    between atoms: N_23  and  O_24
REMARK                            x       y       z     vdW  Elec       q    Type
REMARK                         _______ _______ _______ _____ _____    ______ ____
ROOT
ATOM      1  C   UNL     1       5.646   4.369  18.290  0.00  0.00    +0.000 C 
ENDROOT
BRANCH   1   4
ATOM      2  C   UNL     1       6.943   4.498  16.170  0.00  0.00    +0.000 C 
ATOM      3  O   UNL     1       8.009   4.600  16.765  0.00  0.00    +0.000 OA
ATOM      4  N   UNL     1       5.738   4.382  16.830  0.00  0.00    +0.000 N 
ATOM      5  H   UNL     1       4.886   4.182  16.319  0.00  0.00    +0.000 HD
BRANCH   2  11
ATOM      6  C   UNL     1       5.049   2.726  11.844  0.00  0.00    +0.000 C 
ATOM      7  C   UNL     1       6.015   3.614  12.574  0.00  0.00    +0.000 A 
ATOM      8  C   UNL     1       6.944   4.393  11.876  0.00  0.00    +0.000 A 
ATOM      9  C   UNL     1       7.836   5.213  12.569  0.00  0.00    +0.000 A 
ATOM     10  C   UNL     1       7.817   5.247  13.964  0.00  0.00    +0.000 A 
ATOM     11  C   UNL     1       6.910   4.456  14.680  0.00  0.00    +0.000 A 
ATOM     12  C   UNL     1       5.995   3.658  13.978  0.00  0.00    +0.000 A 
ENDBRANCH   2  11
ENDBRANCH   1   4
BRANCH   1  13
ATOM     13  C   UNL     1       4.783   3.161  18.697  0.00  0.00    +0.000 C 
ATOM     14  O   UNL     1       4.775   2.696  19.839  0.00  0.00    +0.000 OA
ATOM     15  N   UNL     1       4.059   2.594  17.677  0.00  0.00    +0.000 N 
ATOM     16  H   UNL     1       4.022   2.927  16.719  0.00  0.00    +0.000 HD
BRANCH  15  17
ATOM     17  O   UNL     1       3.303   1.444  17.985  0.00  0.00    +0.000 OA
ATOM     18  H   UNL     1       2.899   1.677  18.850  0.00  0.00    +0.000 HD
ENDBRANCH  15  17
ENDBRANCH   1  13
BRANCH   1  19
ATOM     19  C   UNL     1       5.029   5.687  18.781  0.00  0.00    +0.000 C 
BRANCH  19  20
ATOM     20  C   UNL     1       4.164   6.388  17.735  0.00  0.00    +0.000 C 
BRANCH  20  21
ATOM     21  C   UNL     1       2.847   6.878  18.335  0.00  0.00    +0.000 C 
BRANCH  21  22
ATOM     22  N   UNL     1       2.113   5.738  18.839  0.00  0.00    +0.000 N 
ATOM     23  C   UNL     1       1.785   5.487  20.124  0.00  0.00    +0.000 C 
ATOM     24  N   UNL     1       1.990   6.322  21.094  0.00  0.00    +0.000 NA
ATOM     25  N   UNL     1       1.085   4.356  20.401  0.00  0.00    +0.000 N 
ATOM     26  H   UNL     1       2.166   4.909  18.242  0.00  0.00    +0.000 HD
ATOM     27  H   UNL     1       2.496   7.138  20.736  0.00  0.00    +0.000 HD
ATOM     28  H   UNL     1       0.697   4.331  21.330  0.00  0.00    +0.000 HD
BRANCH  25  29
ATOM     29  N   UNL     1       1.239   3.200  19.742  0.00  0.00    +0.000 N 
ATOM     30  O   UNL     1       1.039   3.161  18.522  0.00  0.00    +0.000 OA
ATOM     31  O   UNL     1       1.574   2.259  20.459  0.00  0.00    +0.000 OA
ENDBRANCH  25  29
ENDBRANCH  21  22
ENDBRANCH  20  21
ENDBRANCH  19  20
ENDBRANCH   1  19
TORSDOF 9
ENDMDL
MODEL 2
REMARK VINA RESULT:      -7.4      2.836      6.234
REMARK  Name = 
REMARK  10 active torsions:
REMARK  status: ('A' for Active; 'I' for Inactive)
REMARK    1  A    between atoms: C_1  and  C_2
REMARK    2  A    between atoms: C_6  and  C_7
REMARK    3  A    between atoms: N_9  and  C_10
REMARK    4  A    between atoms: C_10  and  C_11
REMARK    5  A    between atoms: C_10  and  C_21
REMARK    6  A    between atoms: C_11  and  C_12
REMARK    7  A    between atoms: C_12  and  C_13
REMARK    8  A    between atoms: C_13  and  N_14
REMARK    9  A    between atoms: N_17  and  N_18
REMARK   10  A    between atoms: N_23  and  O_24
REMARK                            x       y       z     vdW  Elec       q    Type
REMARK                         _______ _______ _______ _____ _____    ______ ____
ROOT
ATOM      1  C   UNL     1       5.255   5.476  17.415  0.00  0.00    +0.000 C 
ENDROOT
BRANCH   1   4
ATOM      2  C   UNL     1       3.507   6.517  18.846  0.00  0.00    +0.000 C 
ATOM      3  O   UNL     1       3.685   5.707  19.747  0.00  0.00    +0.000 OA
ATOM      4  N   UNL     1       4.224   6.482  17.670  0.00  0.00    +0.000 N 
ATOM      5  H   UNL     1       4.143   7.231  16.991  0.00  0.00    +0.000 HD
BRANCH   2  11
ATOM      6  C   UNL     1       0.171   9.092  21.619  0.00  0.00    +0.000 C 
ATOM      7  C   UNL     1       0.894   8.879  20.321  0.00  0.00    +0.000 A 
ATOM      8  C   UNL     1       0.622   9.680  19.206  0.00  0.00    +0.000 A 
ATOM      9  C   UNL     1       1.302   9.469  18.006  0.00  0.00    +0.000 A 
ATOM     10  C   UNL     1       2.246   8.446  17.906  0.00  0.00    +0.000 A 
ATOM     11  C   UNL     1       2.514   7.619  19.004  0.00  0.00    +0.000 A 
ATOM     12  C   UNL     1       1.851   7.856  20.217  0.00  0.00    +0.000 A 
ENDBRANCH   2  11
ENDBRANCH   1   4
BRANCH   1  13
ATOM     13  C   UNL     1       6.513   6.206  16.912  0.00  0.00    +0.000 C 
ATOM     14  O   UNL     1       7.282   5.720  16.079  0.00  0.00    +0.000 OA
ATOM     15  N   UNL     1       6.756   7.420  17.504  0.00  0.00    +0.000 N 
ATOM     16  H   UNL     1       6.166   7.873  18.193  0.00  0.00    +0.000 HD
BRANCH  15  17
ATOM     17  O   UNL     1       7.934   8.098  17.124  0.00  0.00    +0.000 OA
ATOM     18  H   UNL     1       7.760   8.324  16.184  0.00  0.00    +0.000 HD
ENDBRANCH  15  17
ENDBRANCH   1  13
BRANCH   1  19
ATOM     19  C   UNL     1       4.744   4.465  16.377  0.00  0.00    +0.000 C 
BRANCH  19  20
ATOM     20  C   UNL     1       3.400   3.837  16.741  0.00  0.00    +0.000 C 
BRANCH  20  21
ATOM     21  C   UNL     1       3.582   2.562  17.562  0.00  0.00    +0.000 C 
BRANCH  21  22
ATOM     22  N   UNL     1       3.082   2.795  18.899  0.00  0.00    +0.000 N 
ATOM     23  C   UNL     1       3.689   2.473  20.061  0.00  0.00    +0.000 C 
ATOM     24  N   UNL     1       4.894   2.002  20.136  0.00  0.00    +0.000 NA
ATOM     25  N   UNL     1       3.056   2.779  21.224  0.00  0.00    +0.000 N 
ATOM     26  H   UNL     1       2.064   2.874  18.957  0.00  0.00    +0.000 HD
ATOM     27  H   UNL     1       5.257   1.851  19.189  0.00  0.00    +0.000 HD
ATOM     28  H   UNL     1       3.641   2.705  22.041  0.00  0.00    +0.000 HD
BRANCH  25  29
ATOM     29  N   UNL     1       1.727   2.742  21.386  0.00  0.00    +0.000 N 
ATOM     30  O   UNL     1       0.990   3.118  20.467  0.00  0.00    +0.000 OA
ATOM     31  O   UNL     1       1.371   2.323  22.485  0.00  0.00    +0.000 OA
ENDBRANCH  25  29
ENDBRANCH  21  22
ENDBRANCH  20  21
ENDBRANCH  19  20
ENDBRANCH   1  19
TORSDOF 9
ENDMDL
MODEL 3
REMARK VINA RESULT:      -7.3      2.354      3.000
REMARK  Name = 
REMARK  10 active torsions:
REMARK  status: ('A' for Active; 'I' for Inactive)
REMARK    1  A    between atoms: C_1  and  C_2
REMARK    2  A    between atoms: C_6  and  C_7
REMARK    3  A    between atoms: N_9  and  C_10
REMARK    4  A    between atoms: C_10  and  C_11
REMARK    5  A    between atoms: C_10  and  C_21
REMARK    6  A    between atoms: C_11  and  C_12
REMARK    7  A    between atoms: C_12  and  C_13
REMARK    8  A    between atoms: C_13  and  N_14
REMARK    9  A    between atoms: N_17  and  N_18
REMARK   10  A    between atoms: N_23  and  O_24
REMARK                            x       y       z     vdW  Elec       q    Type
REMARK                         _______ _______ _______ _____ _____    ______ ____
ROOT
ATOM      1  C   UNL     1       4.054   4.250  17.774  0.00  0.00    +0.000 C 
ENDROOT
BRANCH   1   4
ATOM      2  C   UNL     1       5.778   4.704  16.040  0.00  0.00    +0.000 C 
ATOM      3  O   UNL     1       6.501   5.292  16.834  0.00  0.00    +0.000 OA
ATOM      4  N   UNL     1       4.565   4.163  16.406  0.00  0.00    +0.000 N 
ATOM      5  H   UNL     1       4.041   3.582  15.762  0.00  0.00    +0.000 HD
BRANCH   2  11
ATOM      6  C   UNL     1       5.261   2.514  11.525  0.00  0.00    +0.000 C 
ATOM      7  C   UNL     1       5.983   3.466  12.433  0.00  0.00    +0.000 A 
ATOM      8  C   UNL     1       7.111   4.166  11.992  0.00  0.00    +0.000 A 
ATOM      9  C   UNL     1       7.772   5.047  12.848  0.00  0.00    +0.000 A 
ATOM     10  C   UNL     1       7.322   5.222  14.158  0.00  0.00    +0.000 A 
ATOM     11  C   UNL     1       6.209   4.512  14.624  0.00  0.00    +0.000 A 
ATOM     12  C   UNL     1       5.529   3.652  13.750  0.00  0.00    +0.000 A 
ENDBRANCH   2  11
ENDBRANCH   1   4
BRANCH   1  13
ATOM     13  C   UNL     1       4.210   2.864  18.425  0.00  0.00    +0.000 C 
ATOM     14  O   UNL     1       3.572   1.875  18.058  0.00  0.00    +0.000 OA
ATOM     15  N   UNL     1       5.073   2.817  19.492  0.00  0.00    +0.000 N 
ATOM     16  H   UNL     1       5.626   3.592  19.843  0.00  0.00    +0.000 HD
BRANCH  15  17
ATOM     17  O   UNL     1       5.201   1.583  20.164  0.00  0.00    +0.000 OA
ATOM     18  H   UNL     1       4.482   1.626  20.832  0.00  0.00    +0.000 HD
ENDBRANCH  15  17
ENDBRANCH   1  13
BRANCH   1  19
ATOM     19  C   UNL     1       2.582   4.692  17.750  0.00  0.00    +0.000 C 
BRANCH  19  20
ATOM     20  C   UNL     1       1.888   4.592  19.107  0.00  0.00    +0.000 C 
BRANCH  20  21
ATOM     21  C   UNL     1       2.411   5.646  20.081  0.00  0.00    +0.000 C 
BRANCH  21  22
ATOM     22  N   UNL     1       2.208   6.956  19.502  0.00  0.00    +0.000 N 
ATOM     23  C   UNL     1       1.776   8.067  20.135  0.00  0.00    +0.000 C 
ATOM     24  N   UNL     1       1.590   8.137  21.416  0.00  0.00    +0.000 NA
ATOM     25  N   UNL     1       1.651   9.212  19.415  0.00  0.00    +0.000 N 
ATOM     26  H   UNL     1       2.036   6.945  18.494  0.00  0.00    +0.000 HD
ATOM     27  H   UNL     1       1.749   7.213  21.832  0.00  0.00    +0.000 HD
ATOM     28  H   UNL     1       1.527  10.038  19.977  0.00  0.00    +0.000 HD
BRANCH  25  29
ATOM     29  N   UNL     1       1.274   9.251  18.130  0.00  0.00    +0.000 N 
ATOM     30  O   UNL     1       0.122   9.596  17.843  0.00  0.00    +0.000 OA
ATOM     31  O   UNL     1       2.156   8.918  17.342  0.00  0.00    +0.000 OA
ENDBRANCH  25  29
ENDBRANCH  21  22
ENDBRANCH  20  21
ENDBRANCH  19  20
ENDBRANCH   1  19
TORSDOF 9
ENDMDL
MODEL 4
REMARK VINA RESULT:      -7.3      0.939      1.209
REMARK  Name = 
REMARK  10 active torsions:
REMARK  status: ('A' for Active; 'I' for Inactive)
REMARK    1  A    between atoms: C_1  and  C_2
REMARK    2  A    between atoms: C_6  and  C_7
REMARK    3  A    between atoms: N_9  and  C_10
REMARK    4  A    between atoms: C_10  and  C_11
REMARK    5  A    between atoms: C_10  and  C_21
REMARK    6  A    between atoms: C_11  and  C_12
REMARK    7  A    between atoms: C_12  and  C_13
REMARK    8  A    between atoms: C_13  and  N_14
REMARK    9  A    between atoms: N_17  and  N_18
REMARK   10  A    between atoms: N_23  and  O_24
REMARK                            x       y       z     vdW  Elec       q    Type
REMARK                         _______ _______ _______ _____ _____    ______ ____
ROOT
ATOM      1  C   UNL     1       5.524   4.472  18.124  0.00  0.00    +0.000 C 
ENDROOT
BRANCH   1   4
ATOM      2  C   UNL     1       6.882   4.508  16.040  0.00  0.00    +0.000 C 
ATOM      3  O   UNL     1       7.935   4.565  16.662  0.00  0.00    +0.000 OA
ATOM      4  N   UNL     1       5.656   4.461  16.667  0.00  0.00    +0.000 N 
ATOM      5  H   UNL     1       4.808   4.296  16.136  0.00  0.00    +0.000 HD
BRANCH   2  11
ATOM      6  C   UNL     1       5.210   2.566  11.694  0.00  0.00    +0.000 C 
ATOM      7  C   UNL     1       6.098   3.524  12.435  0.00  0.00    +0.000 A 
ATOM      8  C   UNL     1       6.991   4.354  11.748  0.00  0.00    +0.000 A 
ATOM      9  C   UNL     1       7.810   5.239  12.450  0.00  0.00    +0.000 A 
ATOM     10  C   UNL     1       7.756   5.287  13.844  0.00  0.00    +0.000 A 
ATOM     11  C   UNL     1       6.886   4.447  14.549  0.00  0.00    +0.000 A 
ATOM     12  C   UNL     1       6.042   3.583  13.837  0.00  0.00    +0.000 A 
ENDBRANCH   2  11
ENDBRANCH   1   4
BRANCH   1  13
ATOM     13  C   UNL     1       4.529   3.365  18.516  0.00  0.00    +0.000 C 
ATOM     14  O   UNL     1       3.452   3.196  17.941  0.00  0.00    +0.000 OA
ATOM     15  N   UNL     1       4.900   2.608  19.600  0.00  0.00    +0.000 N 
ATOM     16  H   UNL     1       5.769   2.696  20.116  0.00  0.00    +0.000 HD
BRANCH  15  17
ATOM     17  O   UNL     1       3.991   1.623  20.040  0.00  0.00    +0.000 OA
ATOM     18  H   UNL     1       3.227   2.157  20.350  0.00  0.00    +0.000 HD
ENDBRANCH  15  17
ENDBRANCH   1  13
BRANCH   1  19
ATOM     19  C   UNL     1       5.033   5.852  18.588  0.00  0.00    +0.000 C 
BRANCH  19  20
ATOM     20  C   UNL     1       4.327   6.653  17.495  0.00  0.00    +0.000 C 
BRANCH  20  21
ATOM     21  C   UNL     1       3.047   7.303  18.017  0.00  0.00    +0.000 C 
BRANCH  21  22
ATOM     22  N   UNL     1       2.369   6.365  18.885  0.00  0.00    +0.000 N 
ATOM     23  C   UNL     1       1.947   6.587  20.148  0.00  0.00    +0.000 C 
ATOM     24  N   UNL     1       1.991   7.745  20.727  0.00  0.00    +0.000 NA
ATOM     25  N   UNL     1       1.323   5.573  20.805  0.00  0.00    +0.000 N 
ATOM     26  H   UNL     1       2.547   5.383  18.660  0.00  0.00    +0.000 HD
ATOM     27  H   UNL     1       2.456   8.416  20.107  0.00  0.00    +0.000 HD
ATOM     28  H   UNL     1       0.855   5.860  21.650  0.00  0.00    +0.000 HD
BRANCH  25  29
ATOM     29  N   UNL     1       1.635   4.280  20.655  0.00  0.00    +0.000 N 
ATOM     30  O   UNL     1       2.630   3.822  21.228  0.00  0.00    +0.000 OA
ATOM     31  O   UNL     1       0.862   3.663  19.925  0.00  0.00    +0.000 OA
ENDBRANCH  25  29
ENDBRANCH  21  22
ENDBRANCH  20  21
ENDBRANCH  19  20
ENDBRANCH   1  19
TORSDOF 9
ENDMDL
MODEL 5
REMARK VINA RESULT:      -7.3      1.346      1.697
REMARK  Name = 
REMARK  10 active torsions:
REMARK  status: ('A' for Active; 'I' for Inactive)
REMARK    1  A    between atoms: C_1  and  C_2
REMARK    2  A    between atoms: C_6  and  C_7
REMARK    3  A    between atoms: N_9  and  C_10
REMARK    4  A    between atoms: C_10  and  C_11
REMARK    5  A    between atoms: C_10  and  C_21
REMARK    6  A    between atoms: C_11  and  C_12
REMARK    7  A    between atoms: C_12  and  C_13
REMARK    8  A    between atoms: C_13  and  N_14
REMARK    9  A    between atoms: N_17  and  N_18
REMARK   10  A    between atoms: N_23  and  O_24
REMARK                            x       y       z     vdW  Elec       q    Type
REMARK                         _______ _______ _______ _____ _____    ______ ____
ROOT
ATOM      1  C   UNL     1       5.020   5.405  17.903  0.00  0.00    +0.000 C 
ENDROOT
BRANCH   1   4
ATOM      2  C   UNL     1       5.598   5.677  15.499  0.00  0.00    +0.000 C 
ATOM      3  O   UNL     1       5.324   6.870  15.512  0.00  0.00    +0.000 OA
ATOM      4  N   UNL     1       5.479   4.880  16.617  0.00  0.00    +0.000 N 
ATOM      5  H   UNL     1       5.822   3.926  16.613  0.00  0.00    +0.000 HD
BRANCH   2  11
ATOM      6  C   UNL     1       5.116   2.420  11.676  0.00  0.00    +0.000 C 
ATOM      7  C   UNL     1       5.914   3.465  12.402  0.00  0.00    +0.000 A 
ATOM      8  C   UNL     1       7.190   3.831  11.961  0.00  0.00    +0.000 A 
ATOM      9  C   UNL     1       7.919   4.804  12.647  0.00  0.00    +0.000 A 
ATOM     10  C   UNL     1       7.385   5.404  13.789  0.00  0.00    +0.000 A 
ATOM     11  C   UNL     1       6.119   5.033  14.258  0.00  0.00    +0.000 A 
ATOM     12  C   UNL     1       5.378   4.079  13.547  0.00  0.00    +0.000 A 
ENDBRANCH   2  11
ENDBRANCH   1   4
BRANCH   1  13
ATOM     13  C   UNL     1       5.460   4.418  19.000  0.00  0.00    +0.000 C 
ATOM     14  O   UNL     1       6.299   4.700  19.858  0.00  0.00    +0.000 OA
ATOM     15  N   UNL     1       4.892   3.171  18.921  0.00  0.00    +0.000 N 
ATOM     16  H   UNL     1       4.199   2.876  18.242  0.00  0.00    +0.000 HD
BRANCH  15  17
ATOM     17  O   UNL     1       5.314   2.210  19.865  0.00  0.00    +0.000 OA
ATOM     18  H   UNL     1       5.066   1.362  19.434  0.00  0.00    +0.000 HD
ENDBRANCH  15  17
ENDBRANCH   1  13
BRANCH   1  19
ATOM     19  C   UNL     1       3.492   5.567  17.880  0.00  0.00    +0.000 C 
BRANCH  19  20
ATOM     20  C   UNL     1       2.995   6.814  18.610  0.00  0.00    +0.000 C 
BRANCH  20  21
ATOM     21  C   UNL     1       2.076   6.450  19.775  0.00  0.00    +0.000 C 
BRANCH  21  22
ATOM     22  N   UNL     1       1.742   5.047  19.683  0.00  0.00    +0.000 N 
ATOM     23  C   UNL     1       2.020   4.084  20.589  0.00  0.00    +0.000 C 
ATOM     24  N   UNL     1       2.538   4.321  21.753  0.00  0.00    +0.000 NA
ATOM     25  N   UNL     1       1.618   2.814  20.322  0.00  0.00    +0.000 N 
ATOM     26  H   UNL     1       1.615   4.708  18.727  0.00  0.00    +0.000 HD
ATOM     27  H   UNL     1       2.761   5.319  21.826  0.00  0.00    +0.000 HD
ATOM     28  H   UNL     1       1.669   2.193  21.114  0.00  0.00    +0.000 HD
BRANCH  25  29
ATOM     29  N   UNL     1       1.587   2.281  19.094  0.00  0.00    +0.000 N 
ATOM     30  O   UNL     1       2.564   1.646  18.679  0.00  0.00    +0.000 OA
ATOM     31  O   UNL     1       0.542   2.496  18.484  0.00  0.00    +0.000 OA
ENDBRANCH  25  29
ENDBRANCH  21  22
ENDBRANCH  20  21
ENDBRANCH  19  20
ENDBRANCH   1  19
TORSDOF 9
ENDMDL
MODEL 6
REMARK VINA RESULT:      -7.2      1.989      2.832
REMARK  Name = 
REMARK  10 active torsions:
REMARK  status: ('A' for Active; 'I' for Inactive)
REMARK    1  A    between atoms: C_1  and  C_2
REMARK    2  A    between atoms: C_6  and  C_7
REMARK    3  A    between atoms: N_9  and  C_10
REMARK    4  A    between atoms: C_10  and  C_11
REMARK    5  A    between atoms: C_10  and  C_21
REMARK    6  A    between atoms: C_11  and  C_12
REMARK    7  A    between atoms: C_12  and  C_13
REMARK    8  A    between atoms: C_13  and  N_14
REMARK    9  A    between atoms: N_17  and  N_18
REMARK   10  A    between atoms: N_23  and  O_24
REMARK                            x       y       z     vdW  Elec       q    Type
REMARK                         _______ _______ _______ _____ _____    ______ ____
ROOT
ATOM      1  C   UNL     1       5.658   6.169  17.813  0.00  0.00    +0.000 C 
ENDROOT
BRANCH   1   4
ATOM      2  C   UNL     1       6.721   4.886  15.966  0.00  0.00    +0.000 C 
ATOM      3  O   UNL     1       7.324   4.159  16.745  0.00  0.00    +0.000 OA
ATOM      4  N   UNL     1       5.887   5.896  16.394  0.00  0.00    +0.000 N 
ATOM      5  H   UNL     1       5.310   6.406  15.735  0.00  0.00    +0.000 HD
BRANCH   2  11
ATOM      6  C   UNL     1       5.388   2.513  11.719  0.00  0.00    +0.000 C 
ATOM      7  C   UNL     1       6.215   3.547  12.426  0.00  0.00    +0.000 A 
ATOM      8  C   UNL     1       7.155   4.316  11.730  0.00  0.00    +0.000 A 
ATOM      9  C   UNL     1       7.917   5.273  12.402  0.00  0.00    +0.000 A 
ATOM     10  C   UNL     1       7.758   5.456  13.777  0.00  0.00    +0.000 A 
ATOM     11  C   UNL     1       6.839   4.680  14.493  0.00  0.00    +0.000 A 
ATOM     12  C   UNL     1       6.053   3.743  13.808  0.00  0.00    +0.000 A 
ENDBRANCH   2  11
ENDBRANCH   1   4
BRANCH   1  13
ATOM     13  C   UNL     1       7.030   6.261  18.504  0.00  0.00    +0.000 C 
ATOM     14  O   UNL     1       7.899   7.068  18.165  0.00  0.00    +0.000 OA
ATOM     15  N   UNL     1       7.246   5.335  19.494  0.00  0.00    +0.000 N 
ATOM     16  H   UNL     1       6.575   4.646  19.819  0.00  0.00    +0.000 HD
BRANCH  15  17
ATOM     17  O   UNL     1       8.514   5.335  20.112  0.00  0.00    +0.000 OA
ATOM     18  H   UNL     1       8.456   4.569  20.725  0.00  0.00    +0.000 HD
ENDBRANCH  15  17
ENDBRANCH   1  13
BRANCH   1  19
ATOM     19  C   UNL     1       4.800   5.050  18.423  0.00  0.00    +0.000 C 
BRANCH  19  20
ATOM     20  C   UNL     1       3.830   4.410  17.432  0.00  0.00    +0.000 C 
BRANCH  20  21
ATOM     21  C   UNL     1       3.604   2.932  17.744  0.00  0.00    +0.000 C 
BRANCH  21  22
ATOM     22  N   UNL     1       2.841   2.826  18.968  0.00  0.00    +0.000 N 
ATOM     23  C   UNL     1       1.509   2.997  19.112  0.00  0.00    +0.000 C 
ATOM     24  N   UNL     1       0.696   3.170  18.118  0.00  0.00    +0.000 NA
ATOM     25  N   UNL     1       0.972   2.853  20.352  0.00  0.00    +0.000 N 
ATOM     26  H   UNL     1       3.386   2.991  19.817  0.00  0.00    +0.000 HD
ATOM     27  H   UNL     1       1.234   3.229  17.247  0.00  0.00    +0.000 HD
ATOM     28  H   UNL     1      -0.033   2.788  20.357  0.00  0.00    +0.000 HD
BRANCH  25  29
ATOM     29  N   UNL     1       1.595   3.204  21.483  0.00  0.00    +0.000 N 
ATOM     30  O   UNL     1       2.225   4.266  21.529  0.00  0.00    +0.000 OA
ATOM     31  O   UNL     1       1.470   2.388  22.394  0.00  0.00    +0.000 OA
ENDBRANCH  25  29
ENDBRANCH  21  22
ENDBRANCH  20  21
ENDBRANCH  19  20
ENDBRANCH   1  19
TORSDOF 9
ENDMDL
MODEL 7
REMARK VINA RESULT:      -7.2      2.843      3.367
REMARK  Name = 
REMARK  10 active torsions:
REMARK  status: ('A' for Active; 'I' for Inactive)
REMARK    1  A    between atoms: C_1  and  C_2
REMARK    2  A    between atoms: C_6  and  C_7
REMARK    3  A    between atoms: N_9  and  C_10
REMARK    4  A    between atoms: C_10  and  C_11
REMARK    5  A    between atoms: C_10  and  C_21
REMARK    6  A    between atoms: C_11  and  C_12
REMARK    7  A    between atoms: C_12  and  C_13
REMARK    8  A    between atoms: C_13  and  N_14
REMARK    9  A    between atoms: N_17  and  N_18
REMARK   10  A    between atoms: N_23  and  O_24
REMARK                            x       y       z     vdW  Elec       q    Type
REMARK                         _______ _______ _______ _____ _____    ______ ____
ROOT
ATOM      1  C   UNL     1       4.249   4.857  17.690  0.00  0.00    +0.000 C 
ENDROOT
BRANCH   1   4
ATOM      2  C   UNL     1       5.741   5.315  15.752  0.00  0.00    +0.000 C 
ATOM      3  O   UNL     1       6.208   6.317  16.280  0.00  0.00    +0.000 OA
ATOM      4  N   UNL     1       4.779   4.540  16.363  0.00  0.00    +0.000 N 
ATOM      5  H   UNL     1       4.494   3.655  15.960  0.00  0.00    +0.000 HD
BRANCH   2  11
ATOM      6  C   UNL     1       5.327   2.419  11.643  0.00  0.00    +0.000 C 
ATOM      7  C   UNL     1       6.058   3.473  12.423  0.00  0.00    +0.000 A 
ATOM      8  C   UNL     1       7.248   4.029  11.941  0.00  0.00    +0.000 A 
ATOM      9  C   UNL     1       7.916   5.008  12.677  0.00  0.00    +0.000 A 
ATOM     10  C   UNL     1       7.409   5.426  13.909  0.00  0.00    +0.000 A 
ATOM     11  C   UNL     1       6.232   4.863  14.418  0.00  0.00    +0.000 A 
ATOM     12  C   UNL     1       5.547   3.904  13.659  0.00  0.00    +0.000 A 
ENDBRANCH   2  11
ENDBRANCH   1   4
BRANCH   1  13
ATOM     13  C   UNL     1       5.031   4.025  18.721  0.00  0.00    +0.000 C 
ATOM     14  O   UNL     1       6.077   4.416  19.244  0.00  0.00    +0.000 OA
ATOM     15  N   UNL     1       4.512   2.780  18.978  0.00  0.00    +0.000 N 
ATOM     16  H   UNL     1       3.659   2.400  18.582  0.00  0.00    +0.000 HD
BRANCH  15  17
ATOM     17  O   UNL     1       5.230   1.953  19.867  0.00  0.00    +0.000 OA
ATOM     18  H   UNL     1       4.561   1.747  20.557  0.00  0.00    +0.000 HD
ENDBRANCH  15  17
ENDBRANCH   1  13
BRANCH   1  19
ATOM     19  C   UNL     1       2.747   4.535  17.736  0.00  0.00    +0.000 C 
BRANCH  19  20
ATOM     20  C   UNL     1       1.890   5.680  18.273  0.00  0.00    +0.000 C 
BRANCH  20  21
ATOM     21  C   UNL     1       2.734   6.916  18.578  0.00  0.00    +0.000 C 
BRANCH  21  22
ATOM     22  N   UNL     1       1.887   7.921  19.181  0.00  0.00    +0.000 N 
ATOM     23  C   UNL     1       1.593   9.141  18.683  0.00  0.00    +0.000 C 
ATOM     24  N   UNL     1       1.951   9.541  17.504  0.00  0.00    +0.000 NA
ATOM     25  N   UNL     1       0.769   9.948  19.402  0.00  0.00    +0.000 N 
ATOM     26  H   UNL     1       1.804   7.844  20.197  0.00  0.00    +0.000 HD
ATOM     27  H   UNL     1       2.538   8.823  17.067  0.00  0.00    +0.000 HD
ATOM     28  H   UNL     1       0.427  10.745  18.889  0.00  0.00    +0.000 HD
BRANCH  25  29
ATOM     29  N   UNL     1       0.741   9.990  20.740  0.00  0.00    +0.000 N 
ATOM     30  O   UNL     1       1.289  10.926  21.333  0.00  0.00    +0.000 OA
ATOM     31  O   UNL     1       0.151   9.043  21.255  0.00  0.00    +0.000 OA
ENDBRANCH  25  29
ENDBRANCH  21  22
ENDBRANCH  20  21
ENDBRANCH  19  20
ENDBRANCH   1  19
TORSDOF 9
ENDMDL
MODEL 8
REMARK VINA RESULT:      -7.1      1.512      2.229
REMARK  Name = 
REMARK  10 active torsions:
REMARK  status: ('A' for Active; 'I' for Inactive)
REMARK    1  A    between atoms: C_1  and  C_2
REMARK    2  A    between atoms: C_6  and  C_7
REMARK    3  A    between atoms: N_9  and  C_10
REMARK    4  A    between atoms: C_10  and  C_11
REMARK    5  A    between atoms: C_10  and  C_21
REMARK    6  A    between atoms: C_11  and  C_12
REMARK    7  A    between atoms: C_12  and  C_13
REMARK    8  A    between atoms: C_13  and  N_14
REMARK    9  A    between atoms: N_17  and  N_18
REMARK   10  A    between atoms: N_23  and  O_24
REMARK                            x       y       z     vdW  Elec       q    Type
REMARK                         _______ _______ _______ _____ _____    ______ ____
ROOT
ATOM      1  C   UNL     1       4.848   5.773  17.974  0.00  0.00    +0.000 C 
ENDROOT
BRANCH   1   4
ATOM      2  C   UNL     1       6.194   5.698  15.883  0.00  0.00    +0.000 C 
ATOM      3  O   UNL     1       7.000   6.517  16.308  0.00  0.00    +0.000 OA
ATOM      4  N   UNL     1       5.111   5.276  16.623  0.00  0.00    +0.000 N 
ATOM      5  H   UNL     1       4.528   4.513  16.298  0.00  0.00    +0.000 HD
BRANCH   2  11
ATOM      6  C   UNL     1       4.481   2.969  12.002  0.00  0.00    +0.000 C 
ATOM      7  C   UNL     1       5.577   3.767  12.648  0.00  0.00    +0.000 A 
ATOM      8  C   UNL     1       6.820   3.919  12.024  0.00  0.00    +0.000 A 
ATOM      9  C   UNL     1       7.828   4.664  12.637  0.00  0.00    +0.000 A 
ATOM     10  C   UNL     1       7.608   5.246  13.886  0.00  0.00    +0.000 A 
ATOM     11  C   UNL     1       6.378   5.085  14.536  0.00  0.00    +0.000 A 
ATOM     12  C   UNL     1       5.358   4.363  13.901  0.00  0.00    +0.000 A 
ENDBRANCH   2  11
ENDBRANCH   1   4
BRANCH   1  13
ATOM     13  C   UNL     1       5.801   5.044  18.939  0.00  0.00    +0.000 C 
ATOM     14  O   UNL     1       5.602   3.894  19.337  0.00  0.00    +0.000 OA
ATOM     15  N   UNL     1       6.866   5.790  19.378  0.00  0.00    +0.000 N 
ATOM     16  H   UNL     1       7.085   6.738  19.090  0.00  0.00    +0.000 HD
BRANCH  15  17
ATOM     17  O   UNL     1       7.732   5.189  20.316  0.00  0.00    +0.000 OA
ATOM     18  H   UNL     1       7.205   5.215  21.144  0.00  0.00    +0.000 HD
ENDBRANCH  15  17
ENDBRANCH   1  13
BRANCH   1  19
ATOM     19  C   UNL     1       3.378   5.516  18.342  0.00  0.00    +0.000 C 
BRANCH  19  20
ATOM     20  C   UNL     1       2.787   6.568  19.279  0.00  0.00    +0.000 C 
BRANCH  20  21
ATOM     21  C   UNL     1       2.080   5.923  20.469  0.00  0.00    +0.000 C 
BRANCH  21  22
ATOM     22  N   UNL     1       1.642   4.599  20.088  0.00  0.00    +0.000 N 
ATOM     23  C   UNL     1       1.773   3.462  20.804  0.00  0.00    +0.000 C 
ATOM     24  N   UNL     1       2.219   3.428  22.021  0.00  0.00    +0.000 NA
ATOM     25  N   UNL     1       1.292   2.307  20.273  0.00  0.00    +0.000 N 
ATOM     26  H   UNL     1       1.561   4.459  19.078  0.00  0.00    +0.000 HD
ATOM     27  H   UNL     1       2.514   4.369  22.299  0.00  0.00    +0.000 HD
ATOM     28  H   UNL     1       1.233   1.548  20.932  0.00  0.00    +0.000 HD
BRANCH  25  29
ATOM     29  N   UNL     1       1.311   2.019  18.966  0.00  0.00    +0.000 N 
ATOM     30  O   UNL     1       0.246   1.932  18.344  0.00  0.00    +0.000 OA
ATOM     31  O   UNL     1       2.441   1.861  18.508  0.00  0.00    +0.000 OA
ENDBRANCH  25  29
ENDBRANCH  21  22
ENDBRANCH  20  21
ENDBRANCH  19  20
ENDBRANCH   1  19
TORSDOF 9
ENDMDL
MODEL 9
REMARK VINA RESULT:      -7.1      2.918      6.169
REMARK  Name = 
REMARK  10 active torsions:
REMARK  status: ('A' for Active; 'I' for Inactive)
REMARK    1  A    between atoms: C_1  and  C_2
REMARK    2  A    between atoms: C_6  and  C_7
REMARK    3  A    between atoms: N_9  and  C_10
REMARK    4  A    between atoms: C_10  and  C_11
REMARK    5  A    between atoms: C_10  and  C_21
REMARK    6  A    between atoms: C_11  and  C_12
REMARK    7  A    between atoms: C_12  and  C_13
REMARK    8  A    between atoms: C_13  and  N_14
REMARK    9  A    between atoms: N_17  and  N_18
REMARK   10  A    between atoms: N_23  and  O_24
REMARK                            x       y       z     vdW  Elec       q    Type
REMARK                         _______ _______ _______ _____ _____    ______ ____
ROOT
ATOM      1  C   UNL     1       5.031   5.316  17.543  0.00  0.00    +0.000 C 
ENDROOT
BRANCH   1   4
ATOM      2  C   UNL     1       3.294   6.471  18.901  0.00  0.00    +0.000 C 
ATOM      3  O   UNL     1       3.374   5.646  19.803  0.00  0.00    +0.000 OA
ATOM      4  N   UNL     1       4.061   6.391  17.758  0.00  0.00    +0.000 N 
ATOM      5  H   UNL     1       4.063   7.146  17.082  0.00  0.00    +0.000 HD
BRANCH   2  11
ATOM      6  C   UNL     1       0.163   9.367  21.595  0.00  0.00    +0.000 C 
ATOM      7  C   UNL     1       0.853   9.052  20.299  0.00  0.00    +0.000 A 
ATOM      8  C   UNL     1       0.614   9.819  19.153  0.00  0.00    +0.000 A 
ATOM      9  C   UNL     1       1.263   9.514  17.956  0.00  0.00    +0.000 A 
ATOM     10  C   UNL     1       2.140   8.430  17.890  0.00  0.00    +0.000 A 
ATOM     11  C   UNL     1       2.373   7.638  19.021  0.00  0.00    +0.000 A 
ATOM     12  C   UNL     1       1.744   7.968  20.230  0.00  0.00    +0.000 A 
ENDBRANCH   2  11
ENDBRANCH   1   4
BRANCH   1  13
ATOM     13  C   UNL     1       6.081   5.823  16.539  0.00  0.00    +0.000 C 
ATOM     14  O   UNL     1       6.358   7.017  16.403  0.00  0.00    +0.000 OA
ATOM     15  N   UNL     1       6.652   4.851  15.756  0.00  0.00    +0.000 N 
ATOM     16  H   UNL     1       6.468   3.855  15.817  0.00  0.00    +0.000 HD
BRANCH  15  17
ATOM     17  O   UNL     1       7.574   5.273  14.774  0.00  0.00    +0.000 OA
ATOM     18  H   UNL     1       8.384   5.449  15.300  0.00  0.00    +0.000 HD
ENDBRANCH  15  17
ENDBRANCH   1  13
BRANCH   1  19
ATOM     19  C   UNL     1       4.309   4.068  17.013  0.00  0.00    +0.000 C 
BRANCH  19  20
ATOM     20  C   UNL     1       4.472   2.839  17.906  0.00  0.00    +0.000 C 
BRANCH  20  21
ATOM     21  C   UNL     1       3.231   1.949  17.865  0.00  0.00    +0.000 C 
BRANCH  21  22
ATOM     22  N   UNL     1       2.478   2.146  19.083  0.00  0.00    +0.000 N 
ATOM     23  C   UNL     1       1.355   2.880  19.235  0.00  0.00    +0.000 C 
ATOM     24  N   UNL     1       0.718   3.430  18.249  0.00  0.00    +0.000 NA
ATOM     25  N   UNL     1       0.787   2.942  20.468  0.00  0.00    +0.000 N 
ATOM     26  H   UNL     1       3.025   2.022  19.939  0.00  0.00    +0.000 HD
ATOM     27  H   UNL     1       1.242   3.277  17.381  0.00  0.00    +0.000 HD
ATOM     28  H   UNL     1      -0.144   3.326  20.471  0.00  0.00    +0.000 HD
BRANCH  25  29
ATOM     29  N   UNL     1       1.481   2.941  21.613  0.00  0.00    +0.000 N 
ATOM     30  O   UNL     1       2.486   3.654  21.718  0.00  0.00    +0.000 OA
ATOM     31  O   UNL     1       1.023   2.190  22.472  0.00  0.00    +0.000 OA
ENDBRANCH  25  29
ENDBRANCH  21  22
ENDBRANCH  20  21
ENDBRANCH  19  20
ENDBRANCH   1  19
TORSDOF 9
ENDMDL
