MODEL 1
REMARK VINA RESULT:      -7.9      0.000      0.000
REMARK  Name = 
REMARK  13 active torsions:
REMARK  status: ('A' for Active; 'I' for Inactive)
REMARK    1  A    between atoms: C_1  and  S_2
REMARK    2  A    between atoms: S_2  and  N_5
REMARK    3  A    between atoms: N_5  and  C_6
REMARK    4  A    between atoms: N_5  and  C_18
REMARK    5  A    between atoms: C_6  and  C_7
REMARK    6  A    between atoms: C_7  and  C_8
REMARK    7  A    between atoms: C_8  and  C_9
REMARK    8  A    between atoms: C_12  and  C_13
REMARK    9  A    between atoms: C_13  and  O_15
REMARK   10  A    between atoms: C_18  and  C_19
REMARK   11  A    between atoms: C_19  and  C_20
REMARK   12  A    between atoms: C_20  and  C_21
REMARK   13  A    between atoms: C_21  and  O_22
REMARK                            x       y       z     vdW  Elec       q    Type
REMARK                         _______ _______ _______ _____ _____    ______ ____
ROOT
ATOM      1  N   UNL     1       5.351   5.445  17.580  0.00  0.00    +0.000 NA
ENDROOT
BRANCH   1   3
ATOM      2  C   UNL     1       7.484   7.169  17.672  0.00  0.00    +0.000 C 
ATOM      3  S   UNL     1       7.025   5.474  17.962  0.00  0.00    +0.000 S 
ATOM      4  O   UNL     1       7.727   4.633  17.020  0.00  0.00    +0.000 OA
ATOM      5  O   UNL     1       7.169   5.243  19.382  0.00  0.00    +0.000 OA
ENDBRANCH   1   3
BRANCH   1   6
ATOM      6  C   UNL     1       4.638   6.772  17.474  0.00  0.00    +0.000 C 
BRANCH   6   7
ATOM      7  C   UNL     1       3.337   6.800  18.264  0.00  0.00    +0.000 C 
BRANCH   7   8
ATOM      8  C   UNL     1       2.342   7.876  17.829  0.00  0.00    +0.000 C 
BRANCH   8   9
ATOM      9  C   UNL     1       1.802   8.525  19.086  0.00  0.00    +0.000 A 
ATOM     10  C   UNL     1       1.831   7.841  20.308  0.00  0.00    +0.000 A 
ATOM     11  C   UNL     1       1.184   8.371  21.427  0.00  0.00    +0.000 A 
ATOM     12  C   UNL     1       0.499   9.589  21.339  0.00  0.00    +0.000 A 
ATOM     13  C   UNL     1       0.494  10.293  20.130  0.00  0.00    +0.000 A 
ATOM     14  C   UNL     1       1.137   9.759  19.010  0.00  0.00    +0.000 A 
BRANCH  12  15
ATOM     15  C   UNL     1      -0.172  10.102  22.561  0.00  0.00    +0.000 C 
ATOM     16  O   UNL     1      -1.092  10.899  22.522  0.00  0.00    +0.000 OA
BRANCH  15  17
ATOM     17  O   UNL     1       0.349   9.639  23.718  0.00  0.00    +0.000 OA
ATOM     18  H   UNL     1      -0.291   9.226  24.325  0.00  0.00    +0.000 HD
ENDBRANCH  15  17
ENDBRANCH  12  15
ENDBRANCH   8   9
ENDBRANCH   7   8
ENDBRANCH   6   7
ENDBRANCH   1   6
BRANCH   1  19
ATOM     19  C   UNL     1       4.960   4.540  16.441  0.00  0.00    +0.000 C 
BRANCH  19  20
ATOM     20  C   UNL     1       4.394   3.178  16.833  0.00  0.00    +0.000 C 
BRANCH  20  21
ATOM     21  C   UNL     1       2.990   3.252  17.443  0.00  0.00    +0.000 C 
BRANCH  21  22
ATOM     22  C   UNL     1       2.798   2.404  18.726  0.00  0.00    +0.000 C 
ATOM     23  C   UNL     1       3.516   2.950  19.975  0.00  0.00    +0.000 C 
ATOM     24  C   UNL     1       2.875   4.203  20.568  0.00  0.00    +0.000 C 
ATOM     25  C   UNL     1       1.374   4.052  20.790  0.00  0.00    +0.000 C 
ATOM     26  C   UNL     1       0.659   3.532  19.549  0.00  0.00    +0.000 C 
ATOM     27  C   UNL     1       1.298   2.244  19.041  0.00  0.00    +0.000 C 
BRANCH  22  28
ATOM     28  O   UNL     1       3.298   1.086  18.458  0.00  0.00    +0.000 OA
ATOM     29  H   UNL     1       4.129   0.978  18.952  0.00  0.00    +0.000 HD
ENDBRANCH  22  28
ENDBRANCH  21  22
ENDBRANCH  20  21
ENDBRANCH  19  20
ENDBRANCH   1  19
TORSDOF 12
ENDMDL
MODEL 2
REMARK VINA RESULT:      -7.6      1.053      1.675
REMARK  Name = 
REMARK  13 active torsions:
REMARK  status: ('A' for Active; 'I' for Inactive)
REMARK    1  A    between atoms: C_1  and  S_2
REMARK    2  A    between atoms: S_2  and  N_5
REMARK    3  A    between atoms: N_5  and  C_6
REMARK    4  A    between atoms: N_5  and  C_18
REMARK    5  A    between atoms: C_6  and  C_7
REMARK    6  A    between atoms: C_7  and  C_8
REMARK    7  A    between atoms: C_8  and  C_9
REMARK    8  A    between atoms: C_12  and  C_13
REMARK    9  A    between atoms: C_13  and  O_15
REMARK   10  A    between atoms: C_18  and  C_19
REMARK   11  A    between atoms: C_19  and  C_20
REMARK   12  A    between atoms: C_20  and  C_21
REMARK   13  A    between atoms: C_21  and  O_22
REMARK                            x       y       z     vdW  Elec       q    Type
REMARK                         _______ _______ _______ _____ _____    ______ ____
ROOT
ATOM      1  N   UNL     1       5.721   6.105  17.800  0.00  0.00    +0.000 NA
ENDROOT
BRANCH   1   3
ATOM      2  C   UNL     1       6.249   5.223  15.256  0.00  0.00    +0.000 C 
ATOM      3  S   UNL     1       7.040   5.712  16.773  0.00  0.00    +0.000 S 
ATOM      4  O   UNL     1       7.732   4.571  17.327  0.00  0.00    +0.000 OA
ATOM      5  O   UNL     1       7.769   6.928  16.487  0.00  0.00    +0.000 OA
ENDBRANCH   1   3
BRANCH   1   6
ATOM      6  C   UNL     1       4.618   6.957  17.221  0.00  0.00    +0.000 C 
BRANCH   6   7
ATOM      7  C   UNL     1       3.460   7.152  18.191  0.00  0.00    +0.000 C 
BRANCH   7   8
ATOM      8  C   UNL     1       2.458   8.233  17.790  0.00  0.00    +0.000 C 
BRANCH   8   9
ATOM      9  C   UNL     1       1.691   8.622  19.037  0.00  0.00    +0.000 A 
ATOM     10  C   UNL     1       1.064   9.871  19.124  0.00  0.00    +0.000 A 
ATOM     11  C   UNL     1       0.501  10.293  20.332  0.00  0.00    +0.000 A 
ATOM     12  C   UNL     1       0.562   9.474  21.466  0.00  0.00    +0.000 A 
ATOM     13  C   UNL     1       1.158   8.211  21.376  0.00  0.00    +0.000 A 
ATOM     14  C   UNL     1       1.724   7.793  20.169  0.00  0.00    +0.000 A 
BRANCH  12  15
ATOM     15  C   UNL     1      -0.051   9.977  22.722  0.00  0.00    +0.000 C 
ATOM     16  O   UNL     1       0.359   9.664  23.826  0.00  0.00    +0.000 OA
BRANCH  15  17
ATOM     17  O   UNL     1      -1.122  10.779  22.538  0.00  0.00    +0.000 OA
ATOM     18  H   UNL     1      -1.609  11.014  23.347  0.00  0.00    +0.000 HD
ENDBRANCH  15  17
ENDBRANCH  12  15
ENDBRANCH   8   9
ENDBRANCH   7   8
ENDBRANCH   6   7
ENDBRANCH   1   6
BRANCH   1  19
ATOM     19  C   UNL     1       5.147   4.956  18.588  0.00  0.00    +0.000 C 
BRANCH  19  20
ATOM     20  C   UNL     1       4.434   3.879  17.776  0.00  0.00    +0.000 C 
BRANCH  20  21
ATOM     21  C   UNL     1       2.905   3.953  17.871  0.00  0.00    +0.000 C 
BRANCH  21  22
ATOM     22  C   UNL     1       2.233   2.684  18.454  0.00  0.00    +0.000 C 
ATOM     23  C   UNL     1       3.030   1.987  19.574  0.00  0.00    +0.000 C 
ATOM     24  C   UNL     1       3.031   2.739  20.903  0.00  0.00    +0.000 C 
ATOM     25  C   UNL     1       1.632   3.137  21.359  0.00  0.00    +0.000 C 
ATOM     26  C   UNL     1       0.850   3.846  20.260  0.00  0.00    +0.000 C 
ATOM     27  C   UNL     1       0.824   3.020  18.979  0.00  0.00    +0.000 C 
BRANCH  22  28
ATOM     28  O   UNL     1       2.054   1.751  17.379  0.00  0.00    +0.000 OA
ATOM     29  H   UNL     1       2.820   1.833  16.785  0.00  0.00    +0.000 HD
ENDBRANCH  22  28
ENDBRANCH  21  22
ENDBRANCH  20  21
ENDBRANCH  19  20
ENDBRANCH   1  19
TORSDOF 12
ENDMDL
MODEL 3
REMARK VINA RESULT:      -7.6      1.353      2.218
REMARK  Name = 
REMARK  13 active torsions:
REMARK  status: ('A' for Active; 'I' for Inactive)
REMARK    1  A    between atoms: C_1  and  S_2
REMARK    2  A    between atoms: S_2  and  N_5
REMARK    3  A    between atoms: N_5  and  C_6
REMARK    4  A    between atoms: N_5  and  C_18
REMARK    5  A    between atoms: C_6  and  C_7
REMARK    6  A    between atoms: C_7  and  C_8
REMARK    7  A    between atoms: C_8  and  C_9
REMARK    8  A    between atoms: C_12  and  C_13
REMARK    9  A    between atoms: C_13  and  O_15
REMARK   10  A    between atoms: C_18  and  C_19
REMARK   11  A    between atoms: C_19  and  C_20
REMARK   12  A    between atoms: C_20  and  C_21
REMARK   13  A    between atoms: C_21  and  O_22
REMARK                            x       y       z     vdW  Elec       q    Type
REMARK                         _______ _______ _______ _____ _____    ______ ____
ROOT
ATOM      1  N   UNL     1       6.317   6.077  16.983  0.00  0.00    +0.000 NA
ENDROOT
BRANCH   1   3
ATOM      2  C   UNL     1       5.813   3.769  15.586  0.00  0.00    +0.000 C 
ATOM      3  S   UNL     1       7.116   4.903  16.017  0.00  0.00    +0.000 S 
ATOM      4  O   UNL     1       8.083   4.213  16.837  0.00  0.00    +0.000 OA
ATOM      5  O   UNL     1       7.535   5.538  14.787  0.00  0.00    +0.000 OA
ENDBRANCH   1   3
BRANCH   1   6
ATOM      6  C   UNL     1       4.906   6.453  16.597  0.00  0.00    +0.000 C 
BRANCH   6   7
ATOM      7  C   UNL     1       4.192   7.240  17.688  0.00  0.00    +0.000 C 
BRANCH   7   8
ATOM      8  C   UNL     1       2.894   7.916  17.251  0.00  0.00    +0.000 C 
BRANCH   8   9
ATOM      9  C   UNL     1       2.073   8.166  18.500  0.00  0.00    +0.000 A 
ATOM     10  C   UNL     1       1.330   9.345  18.637  0.00  0.00    +0.000 A 
ATOM     11  C   UNL     1       0.711   9.649  19.852  0.00  0.00    +0.000 A 
ATOM     12  C   UNL     1       0.830   8.782  20.945  0.00  0.00    +0.000 A 
ATOM     13  C   UNL     1       1.543   7.586  20.804  0.00  0.00    +0.000 A 
ATOM     14  C   UNL     1       2.166   7.286  19.590  0.00  0.00    +0.000 A 
BRANCH  12  15
ATOM     15  C   UNL     1       0.152   9.159  22.211  0.00  0.00    +0.000 C 
ATOM     16  O   UNL     1      -0.828   8.571  22.634  0.00  0.00    +0.000 OA
BRANCH  15  17
ATOM     17  O   UNL     1       0.690  10.230  22.833  0.00  0.00    +0.000 OA
ATOM     18  H   UNL     1       1.659  10.300  22.777  0.00  0.00    +0.000 HD
ENDBRANCH  15  17
ENDBRANCH  12  15
ENDBRANCH   8   9
ENDBRANCH   7   8
ENDBRANCH   6   7
ENDBRANCH   1   6
BRANCH   1  19
ATOM     19  C   UNL     1       6.424   5.875  18.472  0.00  0.00    +0.000 C 
BRANCH  19  20
ATOM     20  C   UNL     1       6.020   4.498  18.990  0.00  0.00    +0.000 C 
BRANCH  20  21
ATOM     21  C   UNL     1       4.644   4.479  19.668  0.00  0.00    +0.000 C 
BRANCH  21  22
ATOM     22  C   UNL     1       3.914   3.113  19.610  0.00  0.00    +0.000 C 
ATOM     23  C   UNL     1       2.886   2.882  20.733  0.00  0.00    +0.000 C 
ATOM     24  C   UNL     1       1.606   3.703  20.589  0.00  0.00    +0.000 C 
ATOM     25  C   UNL     1       0.979   3.584  19.205  0.00  0.00    +0.000 C 
ATOM     26  C   UNL     1       1.990   3.833  18.093  0.00  0.00    +0.000 C 
ATOM     27  C   UNL     1       3.216   2.940  18.248  0.00  0.00    +0.000 C 
BRANCH  22  28
ATOM     28  O   UNL     1       4.910   2.083  19.690  0.00  0.00    +0.000 OA
ATOM     29  H   UNL     1       4.693   1.519  20.453  0.00  0.00    +0.000 HD
ENDBRANCH  22  28
ENDBRANCH  21  22
ENDBRANCH  20  21
ENDBRANCH  19  20
ENDBRANCH   1  19
TORSDOF 12
ENDMDL
MODEL 4
REMARK VINA RESULT:      -7.5      1.318      1.929
REMARK  Name = 
REMARK  13 active torsions:
REMARK  status: ('A' for Active; 'I' for Inactive)
REMARK    1  A    between atoms: C_1  and  S_2
REMARK    2  A    between atoms: S_2  and  N_5
REMARK    3  A    between atoms: N_5  and  C_6
REMARK    4  A    between atoms: N_5  and  C_18
REMARK    5  A    between atoms: C_6  and  C_7
REMARK    6  A    between atoms: C_7  and  C_8
REMARK    7  A    between atoms: C_8  and  C_9
REMARK    8  A    between atoms: C_12  and  C_13
REMARK    9  A    between atoms: C_13  and  O_15
REMARK   10  A    between atoms: C_18  and  C_19
REMARK   11  A    between atoms: C_19  and  C_20
REMARK   12  A    between atoms: C_20  and  C_21
REMARK   13  A    between atoms: C_21  and  O_22
REMARK                            x       y       z     vdW  Elec       q    Type
REMARK                         _______ _______ _______ _____ _____    ______ ____
ROOT
ATOM      1  N   UNL     1       5.746   5.453  17.192  0.00  0.00    +0.000 NA
ENDROOT
BRANCH   1   3
ATOM      2  C   UNL     1       6.788   4.623  14.793  0.00  0.00    +0.000 C 
ATOM      3  S   UNL     1       7.252   5.252  16.392  0.00  0.00    +0.000 S 
ATOM      4  O   UNL     1       8.013   4.241  17.089  0.00  0.00    +0.000 OA
ATOM      5  O   UNL     1       7.826   6.561  16.171  0.00  0.00    +0.000 OA
ENDBRANCH   1   3
BRANCH   1   6
ATOM      6  C   UNL     1       4.751   6.405  16.573  0.00  0.00    +0.000 C 
BRANCH   6   7
ATOM      7  C   UNL     1       4.035   7.258  17.611  0.00  0.00    +0.000 C 
BRANCH   7   8
ATOM      8  C   UNL     1       2.596   6.838  17.911  0.00  0.00    +0.000 C 
BRANCH   8   9
ATOM      9  C   UNL     1       2.068   7.771  18.981  0.00  0.00    +0.000 A 
ATOM     10  C   UNL     1       1.932   7.330  20.303  0.00  0.00    +0.000 A 
ATOM     11  C   UNL     1       1.290   8.133  21.250  0.00  0.00    +0.000 A 
ATOM     12  C   UNL     1       0.775   9.383  20.887  0.00  0.00    +0.000 A 
ATOM     13  C   UNL     1       0.938   9.843  19.575  0.00  0.00    +0.000 A 
ATOM     14  C   UNL     1       1.574   9.037  18.628  0.00  0.00    +0.000 A 
BRANCH  12  15
ATOM     15  C   UNL     1       0.102  10.191  21.936  0.00  0.00    +0.000 C 
ATOM     16  O   UNL     1       0.366  10.083  23.121  0.00  0.00    +0.000 OA
BRANCH  15  17
ATOM     17  O   UNL     1      -0.852  11.025  21.470  0.00  0.00    +0.000 OA
ATOM     18  H   UNL     1      -0.923  11.877  21.937  0.00  0.00    +0.000 HD
ENDBRANCH  15  17
ENDBRANCH  12  15
ENDBRANCH   8   9
ENDBRANCH   7   8
ENDBRANCH   6   7
ENDBRANCH   1   6
BRANCH   1  19
ATOM     19  C   UNL     1       5.065   4.181  17.624  0.00  0.00    +0.000 C 
BRANCH  19  20
ATOM     20  C   UNL     1       5.149   3.850  19.112  0.00  0.00    +0.000 C 
BRANCH  20  21
ATOM     21  C   UNL     1       3.855   4.151  19.878  0.00  0.00    +0.000 C 
BRANCH  21  22
ATOM     22  C   UNL     1       3.095   2.897  20.379  0.00  0.00    +0.000 C 
ATOM     23  C   UNL     1       1.743   3.189  21.058  0.00  0.00    +0.000 C 
ATOM     24  C   UNL     1       0.638   3.616  20.093  0.00  0.00    +0.000 C 
ATOM     25  C   UNL     1       0.491   2.672  18.905  0.00  0.00    +0.000 C 
ATOM     26  C   UNL     1       1.825   2.399  18.220  0.00  0.00    +0.000 C 
ATOM     27  C   UNL     1       2.869   1.911  19.218  0.00  0.00    +0.000 C 
BRANCH  22  28
ATOM     28  O   UNL     1       3.938   2.223  21.325  0.00  0.00    +0.000 OA
ATOM     29  H   UNL     1       4.347   1.466  20.871  0.00  0.00    +0.000 HD
ENDBRANCH  22  28
ENDBRANCH  21  22
ENDBRANCH  20  21
ENDBRANCH  19  20
ENDBRANCH   1  19
TORSDOF 12
ENDMDL
MODEL 5
REMARK VINA RESULT:      -7.4      0.892      1.104
REMARK  Name = 
REMARK  13 active torsions:
REMARK  status: ('A' for Active; 'I' for Inactive)
REMARK    1  A    between atoms: C_1  and  S_2
REMARK    2  A    between atoms: S_2  and  N_5
REMARK    3  A    between atoms: N_5  and  C_6
REMARK    4  A    between atoms: N_5  and  C_18
REMARK    5  A    between atoms: C_6  and  C_7
REMARK    6  A    between atoms: C_7  and  C_8
REMARK    7  A    between atoms: C_8  and  C_9
REMARK    8  A    between atoms: C_12  and  C_13
REMARK    9  A    between atoms: C_13  and  O_15
REMARK   10  A    between atoms: C_18  and  C_19
REMARK   11  A    between atoms: C_19  and  C_20
REMARK   12  A    between atoms: C_20  and  C_21
REMARK   13  A    between atoms: C_21  and  O_22
REMARK                            x       y       z     vdW  Elec       q    Type
REMARK                         _______ _______ _______ _____ _____    ______ ____
ROOT
ATOM      1  N   UNL     1       5.409   5.520  17.082  0.00  0.00    +0.000 NA
ENDROOT
BRANCH   1   3
ATOM      2  C   UNL     1       7.528   7.200  17.545  0.00  0.00    +0.000 C 
ATOM      3  S   UNL     1       7.111   5.486  17.309  0.00  0.00    +0.000 S 
ATOM      4  O   UNL     1       7.729   5.018  16.091  0.00  0.00    +0.000 OA
ATOM      5  O   UNL     1       7.387   4.817  18.561  0.00  0.00    +0.000 OA
ENDBRANCH   1   3
BRANCH   1   6
ATOM      6  C   UNL     1       4.755   6.870  16.915  0.00  0.00    +0.000 C 
BRANCH   6   7
ATOM      7  C   UNL     1       3.821   7.213  18.068  0.00  0.00    +0.000 C 
BRANCH   7   8
ATOM      8  C   UNL     1       2.467   7.787  17.652  0.00  0.00    +0.000 C 
BRANCH   8   9
ATOM      9  C   UNL     1       1.894   8.507  18.855  0.00  0.00    +0.000 A 
ATOM     10  C   UNL     1       1.897   7.897  20.115  0.00  0.00    +0.000 A 
ATOM     11  C   UNL     1       1.220   8.489  21.185  0.00  0.00    +0.000 A 
ATOM     12  C   UNL     1       0.531   9.695  21.008  0.00  0.00    +0.000 A 
ATOM     13  C   UNL     1       0.552  10.326  19.759  0.00  0.00    +0.000 A 
ATOM     14  C   UNL     1       1.224   9.730  18.689  0.00  0.00    +0.000 A 
BRANCH  12  15
ATOM     15  C   UNL     1      -0.172  10.275  22.181  0.00  0.00    +0.000 C 
ATOM     16  O   UNL     1      -0.792   9.594  22.980  0.00  0.00    +0.000 OA
BRANCH  15  17
ATOM     17  O   UNL     1      -0.097  11.620  22.267  0.00  0.00    +0.000 OA
ATOM     18  H   UNL     1      -0.914  12.064  22.554  0.00  0.00    +0.000 HD
ENDBRANCH  15  17
ENDBRANCH  12  15
ENDBRANCH   8   9
ENDBRANCH   7   8
ENDBRANCH   6   7
ENDBRANCH   1   6
BRANCH   1  19
ATOM     19  C   UNL     1       4.869   4.540  16.073  0.00  0.00    +0.000 C 
BRANCH  19  20
ATOM     20  C   UNL     1       3.991   3.423  16.629  0.00  0.00    +0.000 C 
BRANCH  20  21
ATOM     21  C   UNL     1       3.093   3.871  17.789  0.00  0.00    +0.000 C 
BRANCH  21  22
ATOM     22  C   UNL     1       3.559   3.392  19.188  0.00  0.00    +0.000 C 
ATOM     23  C   UNL     1       3.262   4.373  20.338  0.00  0.00    +0.000 C 
ATOM     24  C   UNL     1       1.788   4.452  20.729  0.00  0.00    +0.000 C 
ATOM     25  C   UNL     1       1.164   3.081  20.968  0.00  0.00    +0.000 C 
ATOM     26  C   UNL     1       1.439   2.116  19.821  0.00  0.00    +0.000 C 
ATOM     27  C   UNL     1       2.931   2.026  19.520  0.00  0.00    +0.000 C 
BRANCH  22  28
ATOM     28  O   UNL     1       4.977   3.183  19.128  0.00  0.00    +0.000 OA
ATOM     29  H   UNL     1       5.197   2.458  19.740  0.00  0.00    +0.000 HD
ENDBRANCH  22  28
ENDBRANCH  21  22
ENDBRANCH  20  21
ENDBRANCH  19  20
ENDBRANCH   1  19
TORSDOF 12
ENDMDL
MODEL 6
REMARK VINA RESULT:      -7.4      1.528      2.192
REMARK  Name = 
REMARK  13 active torsions:
REMARK  status: ('A' for Active; 'I' for Inactive)
REMARK    1  A    between atoms: C_1  and  S_2
REMARK    2  A    between atoms: S_2  and  N_5
REMARK    3  A    between atoms: N_5  and  C_6
REMARK    4  A    between atoms: N_5  and  C_18
REMARK    5  A    between atoms: C_6  and  C_7
REMARK    6  A    between atoms: C_7  and  C_8
REMARK    7  A    between atoms: C_8  and  C_9
REMARK    8  A    between atoms: C_12  and  C_13
REMARK    9  A    between atoms: C_13  and  O_15
REMARK   10  A    between atoms: C_18  and  C_19
REMARK   11  A    between atoms: C_19  and  C_20
REMARK   12  A    between atoms: C_20  and  C_21
REMARK   13  A    between atoms: C_21  and  O_22
REMARK                            x       y       z     vdW  Elec       q    Type
REMARK                         _______ _______ _______ _____ _____    ______ ____
ROOT
ATOM      1  N   UNL     1       6.022   5.793  17.359  0.00  0.00    +0.000 NA
ENDROOT
BRANCH   1   3
ATOM      2  C   UNL     1       6.202   3.775  15.508  0.00  0.00    +0.000 C 
ATOM      3  S   UNL     1       7.179   4.974  16.387  0.00  0.00    +0.000 S 
ATOM      4  O   UNL     1       8.101   4.280  17.255  0.00  0.00    +0.000 OA
ATOM      5  O   UNL     1       7.679   5.905  15.400  0.00  0.00    +0.000 OA
ENDBRANCH   1   3
BRANCH   1   6
ATOM      6  C   UNL     1       4.640   5.983  16.783  0.00  0.00    +0.000 C 
BRANCH   6   7
ATOM      7  C   UNL     1       3.880   7.120  17.453  0.00  0.00    +0.000 C 
BRANCH   7   8
ATOM      8  C   UNL     1       2.676   6.687  18.288  0.00  0.00    +0.000 C 
BRANCH   8   9
ATOM      9  C   UNL     1       2.110   7.931  18.942  0.00  0.00    +0.000 A 
ATOM     10  C   UNL     1       1.610   7.881  20.249  0.00  0.00    +0.000 A 
ATOM     11  C   UNL     1       0.939   8.981  20.789  0.00  0.00    +0.000 A 
ATOM     12  C   UNL     1       0.756  10.143  20.028  0.00  0.00    +0.000 A 
ATOM     13  C   UNL     1       1.282  10.210  18.733  0.00  0.00    +0.000 A 
ATOM     14  C   UNL     1       1.948   9.107  18.193  0.00  0.00    +0.000 A 
BRANCH  12  15
ATOM     15  C   UNL     1       0.033  11.279  20.653  0.00  0.00    +0.000 C 
ATOM     16  O   UNL     1      -0.946  11.797  20.144  0.00  0.00    +0.000 OA
BRANCH  15  17
ATOM     17  O   UNL     1       0.572  11.713  21.813  0.00  0.00    +0.000 OA
ATOM     18  H   UNL     1      -0.069  11.967  22.500  0.00  0.00    +0.000 HD
ENDBRANCH  15  17
ENDBRANCH  12  15
ENDBRANCH   8   9
ENDBRANCH   7   8
ENDBRANCH   6   7
ENDBRANCH   1   6
BRANCH   1  19
ATOM     19  C   UNL     1       5.942   5.340  18.793  0.00  0.00    +0.000 C 
BRANCH  19  20
ATOM     20  C   UNL     1       5.179   4.042  19.043  0.00  0.00    +0.000 C 
BRANCH  20  21
ATOM     21  C   UNL     1       3.889   4.237  19.848  0.00  0.00    +0.000 C 
BRANCH  21  22
ATOM     22  C   UNL     1       3.212   2.922  20.311  0.00  0.00    +0.000 C 
ATOM     23  C   UNL     1       1.800   3.095  20.902  0.00  0.00    +0.000 C 
ATOM     24  C   UNL     1       0.724   3.423  19.869  0.00  0.00    +0.000 C 
ATOM     25  C   UNL     1       0.734   2.468  18.681  0.00  0.00    +0.000 C 
ATOM     26  C   UNL     1       2.126   2.311  18.081  0.00  0.00    +0.000 C 
ATOM     27  C   UNL     1       3.145   1.918  19.144  0.00  0.00    +0.000 C 
BRANCH  22  28
ATOM     28  O   UNL     1       4.051   2.326  21.311  0.00  0.00    +0.000 OA
ATOM     29  H   UNL     1       4.115   1.375  21.116  0.00  0.00    +0.000 HD
ENDBRANCH  22  28
ENDBRANCH  21  22
ENDBRANCH  20  21
ENDBRANCH  19  20
ENDBRANCH   1  19
TORSDOF 12
ENDMDL
MODEL 7
REMARK VINA RESULT:      -7.3      1.323      1.929
REMARK  Name = 
REMARK  13 active torsions:
REMARK  status: ('A' for Active; 'I' for Inactive)
REMARK    1  A    between atoms: C_1  and  S_2
REMARK    2  A    between atoms: S_2  and  N_5
REMARK    3  A    between atoms: N_5  and  C_6
REMARK    4  A    between atoms: N_5  and  C_18
REMARK    5  A    between atoms: C_6  and  C_7
REMARK    6  A    between atoms: C_7  and  C_8
REMARK    7  A    between atoms: C_8  and  C_9
REMARK    8  A    between atoms: C_12  and  C_13
REMARK    9  A    between atoms: C_13  and  O_15
REMARK   10  A    between atoms: C_18  and  C_19
REMARK   11  A    between atoms: C_19  and  C_20
REMARK   12  A    between atoms: C_20  and  C_21
REMARK   13  A    between atoms: C_21  and  O_22
REMARK                            x       y       z     vdW  Elec       q    Type
REMARK                         _______ _______ _______ _____ _____    ______ ____
ROOT
ATOM      1  N   UNL     1       5.373   6.185  17.542  0.00  0.00    +0.000 NA
ENDROOT
BRANCH   1   3
ATOM      2  C   UNL     1       7.815   6.104  18.790  0.00  0.00    +0.000 C 
ATOM      3  S   UNL     1       7.032   6.514  17.246  0.00  0.00    +0.000 S 
ATOM      4  O   UNL     1       7.185   7.930  17.006  0.00  0.00    +0.000 OA
ATOM      5  O   UNL     1       7.515   5.561  16.271  0.00  0.00    +0.000 OA
ENDBRANCH   1   3
BRANCH   1   6
ATOM      6  C   UNL     1       4.368   7.218  17.094  0.00  0.00    +0.000 C 
BRANCH   6   7
ATOM      7  C   UNL     1       3.319   7.513  18.159  0.00  0.00    +0.000 C 
BRANCH   7   8
ATOM      8  C   UNL     1       2.262   8.540  17.756  0.00  0.00    +0.000 C 
BRANCH   8   9
ATOM      9  C   UNL     1       1.494   8.911  19.008  0.00  0.00    +0.000 A 
ATOM     10  C   UNL     1       0.763  10.104  19.064  0.00  0.00    +0.000 A 
ATOM     11  C   UNL     1       0.195  10.525  20.270  0.00  0.00    +0.000 A 
ATOM     12  C   UNL     1       0.354   9.761  21.433  0.00  0.00    +0.000 A 
ATOM     13  C   UNL     1       1.056   8.552  21.375  0.00  0.00    +0.000 A 
ATOM     14  C   UNL     1       1.628   8.136  20.170  0.00  0.00    +0.000 A 
BRANCH  12  15
ATOM     15  C   UNL     1      -0.270  10.260  22.685  0.00  0.00    +0.000 C 
ATOM     16  O   UNL     1      -0.430  11.447  22.914  0.00  0.00    +0.000 OA
BRANCH  15  17
ATOM     17  O   UNL     1      -0.610   9.292  23.563  0.00  0.00    +0.000 OA
ATOM     18  H   UNL     1       0.131   8.758  23.900  0.00  0.00    +0.000 HD
ENDBRANCH  15  17
ENDBRANCH  12  15
ENDBRANCH   8   9
ENDBRANCH   7   8
ENDBRANCH   6   7
ENDBRANCH   1   6
BRANCH   1  19
ATOM     19  C   UNL     1       4.910   4.799  17.174  0.00  0.00    +0.000 C 
BRANCH  19  20
ATOM     20  C   UNL     1       4.508   3.898  18.338  0.00  0.00    +0.000 C 
BRANCH  20  21
ATOM     21  C   UNL     1       3.344   2.956  18.008  0.00  0.00    +0.000 C 
BRANCH  21  22
ATOM     22  C   UNL     1       1.939   3.536  18.314  0.00  0.00    +0.000 C 
ATOM     23  C   UNL     1       0.962   2.546  18.978  0.00  0.00    +0.000 C 
ATOM     24  C   UNL     1       1.280   2.237  20.439  0.00  0.00    +0.000 C 
ATOM     25  C   UNL     1       1.483   3.493  21.279  0.00  0.00    +0.000 C 
ATOM     26  C   UNL     1       2.465   4.464  20.635  0.00  0.00    +0.000 C 
ATOM     27  C   UNL     1       2.061   4.789  19.201  0.00  0.00    +0.000 C 
BRANCH  22  28
ATOM     28  O   UNL     1       1.366   3.972  17.073  0.00  0.00    +0.000 OA
ATOM     29  H   UNL     1       2.085   4.332  16.525  0.00  0.00    +0.000 HD
ENDBRANCH  22  28
ENDBRANCH  21  22
ENDBRANCH  20  21
ENDBRANCH  19  20
ENDBRANCH   1  19
TORSDOF 12
ENDMDL
MODEL 8
REMARK VINA RESULT:      -7.3      1.327      1.918
REMARK  Name = 
REMARK  13 active torsions:
REMARK  status: ('A' for Active; 'I' for Inactive)
REMARK    1  A    between atoms: C_1  and  S_2
REMARK    2  A    between atoms: S_2  and  N_5
REMARK    3  A    between atoms: N_5  and  C_6
REMARK    4  A    between atoms: N_5  and  C_18
REMARK    5  A    between atoms: C_6  and  C_7
REMARK    6  A    between atoms: C_7  and  C_8
REMARK    7  A    between atoms: C_8  and  C_9
REMARK    8  A    between atoms: C_12  and  C_13
REMARK    9  A    between atoms: C_13  and  O_15
REMARK   10  A    between atoms: C_18  and  C_19
REMARK   11  A    between atoms: C_19  and  C_20
REMARK   12  A    between atoms: C_20  and  C_21
REMARK   13  A    between atoms: C_21  and  O_22
REMARK                            x       y       z     vdW  Elec       q    Type
REMARK                         _______ _______ _______ _____ _____    ______ ____
ROOT
ATOM      1  N   UNL     1       5.556   5.437  16.846  0.00  0.00    +0.000 NA
ENDROOT
BRANCH   1   3
ATOM      2  C   UNL     1       7.133   4.829  14.684  0.00  0.00    +0.000 C 
ATOM      3  S   UNL     1       7.207   5.375  16.376  0.00  0.00    +0.000 S 
ATOM      4  O   UNL     1       7.872   4.364  17.164  0.00  0.00    +0.000 OA
ATOM      5  O   UNL     1       7.722   6.726  16.354  0.00  0.00    +0.000 OA
ENDBRANCH   1   3
BRANCH   1   6
ATOM      6  C   UNL     1       4.940   6.800  17.045  0.00  0.00    +0.000 C 
BRANCH   6   7
ATOM      7  C   UNL     1       4.064   6.870  18.289  0.00  0.00    +0.000 C 
BRANCH   7   8
ATOM      8  C   UNL     1       2.566   6.706  18.034  0.00  0.00    +0.000 C 
BRANCH   8   9
ATOM      9  C   UNL     1       1.866   7.876  18.694  0.00  0.00    +0.000 A 
ATOM     10  C   UNL     1       1.590   9.040  17.967  0.00  0.00    +0.000 A 
ATOM     11  C   UNL     1       1.098  10.176  18.616  0.00  0.00    +0.000 A 
ATOM     12  C   UNL     1       0.880  10.162  19.999  0.00  0.00    +0.000 A 
ATOM     13  C   UNL     1       1.123   8.991  20.726  0.00  0.00    +0.000 A 
ATOM     14  C   UNL     1       1.620   7.859  20.076  0.00  0.00    +0.000 A 
BRANCH  12  15
ATOM     15  C   UNL     1       0.358  11.400  20.634  0.00  0.00    +0.000 C 
ATOM     16  O   UNL     1       0.750  11.799  21.717  0.00  0.00    +0.000 OA
BRANCH  15  17
ATOM     17  O   UNL     1      -0.612  12.021  19.930  0.00  0.00    +0.000 OA
ATOM     18  H   UNL     1      -1.151  11.441  19.364  0.00  0.00    +0.000 HD
ENDBRANCH  15  17
ENDBRANCH  12  15
ENDBRANCH   8   9
ENDBRANCH   7   8
ENDBRANCH   6   7
ENDBRANCH   1   6
BRANCH   1  19
ATOM     19  C   UNL     1       4.626   4.542  16.069  0.00  0.00    +0.000 C 
BRANCH  19  20
ATOM     20  C   UNL     1       4.195   3.256  16.769  0.00  0.00    +0.000 C 
BRANCH  20  21
ATOM     21  C   UNL     1       4.279   3.335  18.298  0.00  0.00    +0.000 C 
BRANCH  21  22
ATOM     22  C   UNL     1       3.422   2.282  19.047  0.00  0.00    +0.000 C 
ATOM     23  C   UNL     1       3.271   2.530  20.560  0.00  0.00    +0.000 C 
ATOM     24  C   UNL     1       2.354   3.698  20.915  0.00  0.00    +0.000 C 
ATOM     25  C   UNL     1       1.005   3.628  20.208  0.00  0.00    +0.000 C 
ATOM     26  C   UNL     1       1.153   3.405  18.708  0.00  0.00    +0.000 C 
ATOM     27  C   UNL     1       2.021   2.187  18.413  0.00  0.00    +0.000 C 
BRANCH  22  28
ATOM     28  O   UNL     1       4.041   1.001  18.858  0.00  0.00    +0.000 OA
ATOM     29  H   UNL     1       4.976   1.083  19.116  0.00  0.00    +0.000 HD
ENDBRANCH  22  28
ENDBRANCH  21  22
ENDBRANCH  20  21
ENDBRANCH  19  20
ENDBRANCH   1  19
TORSDOF 12
ENDMDL
MODEL 9
REMARK VINA RESULT:      -7.2      1.017      1.482
REMARK  Name = 
REMARK  13 active torsions:
REMARK  status: ('A' for Active; 'I' for Inactive)
REMARK    1  A    between atoms: C_1  and  S_2
REMARK    2  A    between atoms: S_2  and  N_5
REMARK    3  A    between atoms: N_5  and  C_6
REMARK    4  A    between atoms: N_5  and  C_18
REMARK    5  A    between atoms: C_6  and  C_7
REMARK    6  A    between atoms: C_7  and  C_8
REMARK    7  A    between atoms: C_8  and  C_9
REMARK    8  A    between atoms: C_12  and  C_13
REMARK    9  A    between atoms: C_13  and  O_15
REMARK   10  A    between atoms: C_18  and  C_19
REMARK   11  A    between atoms: C_19  and  C_20
REMARK   12  A    between atoms: C_20  and  C_21
REMARK   13  A    between atoms: C_21  and  O_22
REMARK                            x       y       z     vdW  Elec       q    Type
REMARK                         _______ _______ _______ _____ _____    ______ ____
ROOT
ATOM      1  N   UNL     1       5.519   5.656  17.443  0.00  0.00    +0.000 NA
ENDROOT
BRANCH   1   3
ATOM      2  C   UNL     1       7.792   7.100  17.968  0.00  0.00    +0.000 C 
ATOM      3  S   UNL     1       7.229   5.494  17.449  0.00  0.00    +0.000 S 
ATOM      4  O   UNL     1       7.674   5.258  16.095  0.00  0.00    +0.000 OA
ATOM      5  O   UNL     1       7.591   4.568  18.499  0.00  0.00    +0.000 OA
ENDBRANCH   1   3
BRANCH   1   6
ATOM      6  C   UNL     1       4.952   7.054  17.395  0.00  0.00    +0.000 C 
BRANCH   6   7
ATOM      7  C   UNL     1       3.431   7.071  17.482  0.00  0.00    +0.000 C 
BRANCH   7   8
ATOM      8  C   UNL     1       2.860   6.723  18.856  0.00  0.00    +0.000 C 
BRANCH   8   9
ATOM      9  C   UNL     1       1.992   7.885  19.291  0.00  0.00    +0.000 A 
ATOM     10  C   UNL     1       1.734   8.946  18.414  0.00  0.00    +0.000 A 
ATOM     11  C   UNL     1       1.075  10.091  18.870  0.00  0.00    +0.000 A 
ATOM     12  C   UNL     1       0.670  10.191  20.207  0.00  0.00    +0.000 A 
ATOM     13  C   UNL     1       0.896   9.121  21.079  0.00  0.00    +0.000 A 
ATOM     14  C   UNL     1       1.559   7.979  20.624  0.00  0.00    +0.000 A 
BRANCH  12  15
ATOM     15  C   UNL     1      -0.023  11.434  20.633  0.00  0.00    +0.000 C 
ATOM     16  O   UNL     1      -1.169  11.439  21.048  0.00  0.00    +0.000 OA
BRANCH  15  17
ATOM     17  O   UNL     1       0.709  12.559  20.488  0.00  0.00    +0.000 OA
ATOM     18  H   UNL     1       0.213  13.341  20.190  0.00  0.00    +0.000 HD
ENDBRANCH  15  17
ENDBRANCH  12  15
ENDBRANCH   8   9
ENDBRANCH   7   8
ENDBRANCH   6   7
ENDBRANCH   1   6
BRANCH   1  19
ATOM     19  C   UNL     1       4.784   4.753  16.486  0.00  0.00    +0.000 C 
BRANCH  19  20
ATOM     20  C   UNL     1       4.414   3.372  17.021  0.00  0.00    +0.000 C 
BRANCH  20  21
ATOM     21  C   UNL     1       2.971   3.282  17.533  0.00  0.00    +0.000 C 
BRANCH  21  22
ATOM     22  C   UNL     1       2.768   2.307  18.721  0.00  0.00    +0.000 C 
ATOM     23  C   UNL     1       3.466   2.729  20.029  0.00  0.00    +0.000 C 
ATOM     24  C   UNL     1       2.809   3.912  20.736  0.00  0.00    +0.000 C 
ATOM     25  C   UNL     1       1.306   3.732  20.920  0.00  0.00    +0.000 C 
ATOM     26  C   UNL     1       0.611   3.336  19.624  0.00  0.00    +0.000 C 
ATOM     27  C   UNL     1       1.265   2.110  18.997  0.00  0.00    +0.000 C 
BRANCH  22  28
ATOM     28  O   UNL     1       3.280   1.026  18.328  0.00  0.00    +0.000 OA
ATOM     29  H   UNL     1       3.797   1.151  17.513  0.00  0.00    +0.000 HD
ENDBRANCH  22  28
ENDBRANCH  21  22
ENDBRANCH  20  21
ENDBRANCH  19  20
ENDBRANCH   1  19
TORSDOF 12
ENDMDL
