MODEL 1
REMARK VINA RESULT:      -7.2      0.000      0.000
REMARK  Name = 
REMARK  10 active torsions:
REMARK  status: ('A' for Active; 'I' for Inactive)
REMARK    1  A    between atoms: C_1  and  C_2
REMARK    2  A    between atoms: C_2  and  N_3
REMARK    3  A    between atoms: N_3  and  C_4
REMARK    4  A    between atoms: N_3  and  C_6
REMARK    5  A    between atoms: C_4  and  C_5
REMARK    6  A    between atoms: C_6  and  C_7
REMARK    7  A    between atoms: C_7  and  N_8
REMARK    8  A    between atoms: C_12  and  C_13
REMARK    9  A    between atoms: C_19  and  O_20
REMARK   10  A    between atoms: C_24  and  C_25
REMARK                            x       y       z     vdW  Elec       q    Type
REMARK                         _______ _______ _______ _____ _____    ______ ____
ROOT
ATOM      1  N   UNL     1       4.603   5.656  16.538  0.00  0.00    +0.000 N 
ATOM      2  C   UNL     1       4.536   4.553  17.299  0.00  0.00    +0.000 A 
ATOM      3  C   UNL     1       3.818   4.551  18.482  0.00  0.00    +0.000 A 
ATOM      4  C   UNL     1       3.132   5.695  18.936  0.00  0.00    +0.000 A 
ATOM      5  C   UNL     1       2.386   5.721  20.150  0.00  0.00    +0.000 A 
ATOM      6  C   UNL     1       2.252   4.547  21.087  0.00  0.00    +0.000 C 
ATOM      7  C   UNL     1       1.747   6.933  20.481  0.00  0.00    +0.000 A 
ATOM      8  N   UNL     1       0.975   7.218  21.593  0.00  0.00    +0.000 N 
ATOM      9  C   UNL     1       0.511   8.506  21.577  0.00  0.00    +0.000 A 
ATOM     10  C   UNL     1      -0.292   9.181  22.508  0.00  0.00    +0.000 A 
ATOM     11  C   UNL     1      -0.625  10.511  22.242  0.00  0.00    +0.000 A 
ATOM     12  C   UNL     1      -0.169  11.121  21.083  0.00  0.00    +0.000 A 
ATOM     13  C   UNL     1       0.624  10.435  20.163  0.00  0.00    +0.000 A 
ATOM     14  C   UNL     1       0.992   9.090  20.403  0.00  0.00    +0.000 A 
ATOM     15  C   UNL     1       1.788   8.092  19.712  0.00  0.00    +0.000 A 
ATOM     16  C   UNL     1       2.548   8.068  18.508  0.00  0.00    +0.000 A 
ATOM     17  C   UNL     1       2.666   9.267  17.592  0.00  0.00    +0.000 C 
ATOM     18  C   UNL     1       3.224   6.853  18.137  0.00  0.00    +0.000 A 
ATOM     19  C   UNL     1       4.011   6.792  16.965  0.00  0.00    +0.000 A 
ATOM     20  H   UNL     1       0.780   6.564  22.336  0.00  0.00    +0.000 HD
ENDROOT
BRANCH  12  21
ATOM     21  O   UNL     1      -0.480  12.416  20.793  0.00  0.00    +0.000 OA
ATOM     22  H   UNL     1      -1.374  12.445  20.401  0.00  0.00    +0.000 HD
ENDBRANCH  12  21
BRANCH   1  23
ATOM     23  C   UNL     1       5.385   5.666  15.277  0.00  0.00    +0.000 C 
BRANCH  23  24
ATOM     24  C   UNL     1       5.368   4.270  14.605  0.00  0.00    +0.000 C 
BRANCH  24  25
ATOM     25  N   UNL     1       6.558   3.870  13.812  0.00  0.00    +0.000 NA
BRANCH  25  27
ATOM     26  C   UNL     1       4.708   3.544  12.140  0.00  0.00    +0.000 C 
ATOM     27  C   UNL     1       6.190   3.370  12.471  0.00  0.00    +0.000 C 
ENDBRANCH  25  27
BRANCH  25  28
ATOM     28  C   UNL     1       7.552   4.968  13.741  0.00  0.00    +0.000 C 
ATOM     29  C   UNL     1       7.938   5.453  12.342  0.00  0.00    +0.000 C 
ENDBRANCH  25  28
ENDBRANCH  24  25
ENDBRANCH  23  24
ENDBRANCH   1  23
TORSDOF 6
ENDMDL
MODEL 2
REMARK VINA RESULT:      -7.1      3.872      6.515
REMARK  Name = 
REMARK  10 active torsions:
REMARK  status: ('A' for Active; 'I' for Inactive)
REMARK    1  A    between atoms: C_1  and  C_2
REMARK    2  A    between atoms: C_2  and  N_3
REMARK    3  A    between atoms: N_3  and  C_4
REMARK    4  A    between atoms: N_3  and  C_6
REMARK    5  A    between atoms: C_4  and  C_5
REMARK    6  A    between atoms: C_6  and  C_7
REMARK    7  A    between atoms: C_7  and  N_8
REMARK    8  A    between atoms: C_12  and  C_13
REMARK    9  A    between atoms: C_19  and  O_20
REMARK   10  A    between atoms: C_24  and  C_25
REMARK                            x       y       z     vdW  Elec       q    Type
REMARK                         _______ _______ _______ _____ _____    ______ ____
ROOT
ATOM      1  N   UNL     1       1.791   8.439  19.471  0.00  0.00    +0.000 N 
ATOM      2  C   UNL     1       1.802   9.165  18.342  0.00  0.00    +0.000 A 
ATOM      3  C   UNL     1       1.015  10.298  18.223  0.00  0.00    +0.000 A 
ATOM      4  C   UNL     1       0.178  10.734  19.268  0.00  0.00    +0.000 A 
ATOM      5  C   UNL     1      -0.642  11.896  19.171  0.00  0.00    +0.000 A 
ATOM      6  C   UNL     1      -0.719  12.779  17.951  0.00  0.00    +0.000 C 
ATOM      7  C   UNL     1      -1.428  12.219  20.296  0.00  0.00    +0.000 A 
ATOM      8  N   UNL     1      -2.303  13.279  20.453  0.00  0.00    +0.000 N 
ATOM      9  C   UNL     1      -2.892  13.276  21.689  0.00  0.00    +0.000 A 
ATOM     10  C   UNL     1      -3.829  14.165  22.238  0.00  0.00    +0.000 A 
ATOM     11  C   UNL     1      -4.270  13.928  23.541  0.00  0.00    +0.000 A 
ATOM     12  C   UNL     1      -3.778  12.844  24.253  0.00  0.00    +0.000 A 
ATOM     13  C   UNL     1      -2.842  11.972  23.696  0.00  0.00    +0.000 A 
ATOM     14  C   UNL     1      -2.379  12.173  22.375  0.00  0.00    +0.000 A 
ATOM     15  C   UNL     1      -1.457  11.494  21.483  0.00  0.00    +0.000 A 
ATOM     16  C   UNL     1      -0.650  10.324  21.570  0.00  0.00    +0.000 A 
ATOM     17  C   UNL     1      -0.599   9.457  22.810  0.00  0.00    +0.000 C 
ATOM     18  C   UNL     1       0.163   9.954  20.442  0.00  0.00    +0.000 A 
ATOM     19  C   UNL     1       0.959   8.787  20.475  0.00  0.00    +0.000 A 
ATOM     20  H   UNL     1      -2.496  13.971  19.745  0.00  0.00    +0.000 HD
ENDROOT
BRANCH  12  21
ATOM     21  O   UNL     1      -4.186  12.588  25.529  0.00  0.00    +0.000 OA
ATOM     22  H   UNL     1      -3.405  12.594  26.115  0.00  0.00    +0.000 HD
ENDBRANCH  12  21
BRANCH   1  23
ATOM     23  C   UNL     1       2.621   7.215  19.597  0.00  0.00    +0.000 C 
BRANCH  23  24
ATOM     24  C   UNL     1       1.869   6.115  20.388  0.00  0.00    +0.000 C 
BRANCH  24  25
ATOM     25  N   UNL     1       2.137   4.700  20.029  0.00  0.00    +0.000 NA
BRANCH  25  27
ATOM     26  C   UNL     1       1.359   2.778  21.452  0.00  0.00    +0.000 C 
ATOM     27  C   UNL     1       1.009   3.813  20.384  0.00  0.00    +0.000 C 
ENDBRANCH  25  27
BRANCH  25  28
ATOM     28  C   UNL     1       2.518   4.569  18.601  0.00  0.00    +0.000 C 
ATOM     29  C   UNL     1       1.793   3.487  17.797  0.00  0.00    +0.000 C 
ENDBRANCH  25  28
ENDBRANCH  24  25
ENDBRANCH  23  24
ENDBRANCH   1  23
TORSDOF 6
ENDMDL
MODEL 3
REMARK VINA RESULT:      -7.1      0.901      1.632
REMARK  Name = 
REMARK  10 active torsions:
REMARK  status: ('A' for Active; 'I' for Inactive)
REMARK    1  A    between atoms: C_1  and  C_2
REMARK    2  A    between atoms: C_2  and  N_3
REMARK    3  A    between atoms: N_3  and  C_4
REMARK    4  A    between atoms: N_3  and  C_6
REMARK    5  A    between atoms: C_4  and  C_5
REMARK    6  A    between atoms: C_6  and  C_7
REMARK    7  A    between atoms: C_7  and  N_8
REMARK    8  A    between atoms: C_12  and  C_13
REMARK    9  A    between atoms: C_19  and  O_20
REMARK   10  A    between atoms: C_24  and  C_25
REMARK                            x       y       z     vdW  Elec       q    Type
REMARK                         _______ _______ _______ _____ _____    ______ ____
ROOT
ATOM      1  N   UNL     1       5.052   4.224  17.112  0.00  0.00    +0.000 N 
ATOM      2  C   UNL     1       4.797   3.274  18.025  0.00  0.00    +0.000 A 
ATOM      3  C   UNL     1       3.965   3.532  19.101  0.00  0.00    +0.000 A 
ATOM      4  C   UNL     1       3.355   4.789  19.284  0.00  0.00    +0.000 A 
ATOM      5  C   UNL     1       2.495   5.081  20.382  0.00  0.00    +0.000 A 
ATOM      6  C   UNL     1       2.148   4.098  21.471  0.00  0.00    +0.000 C 
ATOM      7  C   UNL     1       1.951   6.380  20.438  0.00  0.00    +0.000 A 
ATOM      8  N   UNL     1       1.101   6.912  21.393  0.00  0.00    +0.000 N 
ATOM      9  C   UNL     1       0.774   8.213  21.117  0.00  0.00    +0.000 A 
ATOM     10  C   UNL     1      -0.048   9.100  21.828  0.00  0.00    +0.000 A 
ATOM     11  C   UNL     1      -0.217  10.388  21.317  0.00  0.00    +0.000 A 
ATOM     12  C   UNL     1       0.415  10.753  20.138  0.00  0.00    +0.000 A 
ATOM     13  C   UNL     1       1.225   9.858  19.438  0.00  0.00    +0.000 A 
ATOM     14  C   UNL     1       1.428   8.548  19.930  0.00  0.00    +0.000 A 
ATOM     15  C   UNL     1       2.186   7.385  19.505  0.00  0.00    +0.000 A 
ATOM     16  C   UNL     1       3.060   7.095  18.418  0.00  0.00    +0.000 A 
ATOM     17  C   UNL     1       3.391   8.108  17.344  0.00  0.00    +0.000 C 
ATOM     18  C   UNL     1       3.644   5.784  18.327  0.00  0.00    +0.000 A 
ATOM     19  C   UNL     1       4.537   5.461  17.280  0.00  0.00    +0.000 A 
ATOM     20  H   UNL     1       0.766   6.411  22.202  0.00  0.00    +0.000 HD
ENDROOT
BRANCH  12  21
ATOM     21  O   UNL     1       0.267  12.002  19.611  0.00  0.00    +0.000 OA
ATOM     22  H   UNL     1       0.127  11.922  18.648  0.00  0.00    +0.000 HD
ENDBRANCH  12  21
BRANCH   1  23
ATOM     23  C   UNL     1       5.957   3.956  15.966  0.00  0.00    +0.000 C 
BRANCH  23  24
ATOM     24  C   UNL     1       5.211   4.130  14.620  0.00  0.00    +0.000 C 
BRANCH  24  25
ATOM     25  N   UNL     1       6.021   4.442  13.416  0.00  0.00    +0.000 NA
BRANCH  25  27
ATOM     26  C   UNL     1       8.123   5.582  12.638  0.00  0.00    +0.000 C 
ATOM     27  C   UNL     1       7.401   4.840  13.762  0.00  0.00    +0.000 C 
ENDBRANCH  25  27
BRANCH  25  28
ATOM     28  C   UNL     1       5.995   3.322  12.444  0.00  0.00    +0.000 C 
ATOM     29  C   UNL     1       4.739   3.194  11.580  0.00  0.00    +0.000 C 
ENDBRANCH  25  28
ENDBRANCH  24  25
ENDBRANCH  23  24
ENDBRANCH   1  23
TORSDOF 6
ENDMDL
MODEL 4
REMARK VINA RESULT:      -7.1      4.551     11.130
REMARK  Name = 
REMARK  10 active torsions:
REMARK  status: ('A' for Active; 'I' for Inactive)
REMARK    1  A    between atoms: C_1  and  C_2
REMARK    2  A    between atoms: C_2  and  N_3
REMARK    3  A    between atoms: N_3  and  C_4
REMARK    4  A    between atoms: N_3  and  C_6
REMARK    5  A    between atoms: C_4  and  C_5
REMARK    6  A    between atoms: C_6  and  C_7
REMARK    7  A    between atoms: C_7  and  N_8
REMARK    8  A    between atoms: C_12  and  C_13
REMARK    9  A    between atoms: C_19  and  O_20
REMARK   10  A    between atoms: C_24  and  C_25
REMARK                            x       y       z     vdW  Elec       q    Type
REMARK                         _______ _______ _______ _____ _____    ______ ____
ROOT
ATOM      1  N   UNL     1      -2.612  13.394  22.863  0.00  0.00    +0.000 N 
ATOM      2  C   UNL     1      -2.633  14.229  21.813  0.00  0.00    +0.000 A 
ATOM      3  C   UNL     1      -1.951  13.920  20.649  0.00  0.00    +0.000 A 
ATOM      4  C   UNL     1      -1.211  12.728  20.516  0.00  0.00    +0.000 A 
ATOM      5  C   UNL     1      -0.499  12.385  19.330  0.00  0.00    +0.000 A 
ATOM      6  C   UNL     1      -0.443  13.250  18.096  0.00  0.00    +0.000 C 
ATOM      7  C   UNL     1       0.196  11.159  19.335  0.00  0.00    +0.000 A 
ATOM      8  N   UNL     1       0.959  10.604  18.323  0.00  0.00    +0.000 N 
ATOM      9  C   UNL     1       1.483   9.392  18.685  0.00  0.00    +0.000 A 
ATOM     10  C   UNL     1       2.304   8.518  17.957  0.00  0.00    +0.000 A 
ATOM     11  C   UNL     1       2.699   7.328  18.571  0.00  0.00    +0.000 A 
ATOM     12  C   UNL     1       2.275   7.039  19.859  0.00  0.00    +0.000 A 
ATOM     13  C   UNL     1       1.454   7.916  20.569  0.00  0.00    +0.000 A 
ATOM     14  C   UNL     1       1.041   9.136  19.984  0.00  0.00    +0.000 A 
ATOM     15  C   UNL     1       0.232  10.266  20.402  0.00  0.00    +0.000 A 
ATOM     16  C   UNL     1      -0.466  10.620  21.592  0.00  0.00    +0.000 A 
ATOM     17  C   UNL     1      -0.498   9.730  22.815  0.00  0.00    +0.000 C 
ATOM     18  C   UNL     1      -1.183  11.867  21.632  0.00  0.00    +0.000 A 
ATOM     19  C   UNL     1      -1.867  12.270  22.801  0.00  0.00    +0.000 A 
ATOM     20  H   UNL     1       1.122  11.038  17.427  0.00  0.00    +0.000 HD
ENDROOT
BRANCH  12  21
ATOM     21  O   UNL     1       2.640   5.884  20.485  0.00  0.00    +0.000 OA
ATOM     22  H   UNL     1       3.578   5.701  20.286  0.00  0.00    +0.000 HD
ENDBRANCH  12  21
BRANCH   1  23
ATOM     23  C   UNL     1      -3.330  13.730  24.118  0.00  0.00    +0.000 C 
BRANCH  23  24
ATOM     24  C   UNL     1      -4.818  14.056  23.834  0.00  0.00    +0.000 C 
BRANCH  24  25
ATOM     25  N   UNL     1      -5.687  12.955  23.351  0.00  0.00    +0.000 NA
BRANCH  25  27
ATOM     26  C   UNL     1      -7.910  13.699  24.261  0.00  0.00    +0.000 C 
ATOM     27  C   UNL     1      -6.788  12.662  24.292  0.00  0.00    +0.000 C 
ENDBRANCH  25  27
BRANCH  25  28
ATOM     28  C   UNL     1      -6.186  13.223  21.981  0.00  0.00    +0.000 C 
ATOM     29  C   UNL     1      -5.593  12.371  20.857  0.00  0.00    +0.000 C 
ENDBRANCH  25  28
ENDBRANCH  24  25
ENDBRANCH  23  24
ENDBRANCH   1  23
TORSDOF 6
ENDMDL
MODEL 5
REMARK VINA RESULT:      -7.1      1.547      2.523
REMARK  Name = 
REMARK  10 active torsions:
REMARK  status: ('A' for Active; 'I' for Inactive)
REMARK    1  A    between atoms: C_1  and  C_2
REMARK    2  A    between atoms: C_2  and  N_3
REMARK    3  A    between atoms: N_3  and  C_4
REMARK    4  A    between atoms: N_3  and  C_6
REMARK    5  A    between atoms: C_4  and  C_5
REMARK    6  A    between atoms: C_6  and  C_7
REMARK    7  A    between atoms: C_7  and  N_8
REMARK    8  A    between atoms: C_12  and  C_13
REMARK    9  A    between atoms: C_19  and  O_20
REMARK   10  A    between atoms: C_24  and  C_25
REMARK                            x       y       z     vdW  Elec       q    Type
REMARK                         _______ _______ _______ _____ _____    ______ ____
ROOT
ATOM      1  N   UNL     1       4.496   4.549  16.863  0.00  0.00    +0.000 N 
ATOM      2  C   UNL     1       4.287   3.547  17.731  0.00  0.00    +0.000 A 
ATOM      3  C   UNL     1       3.546   3.752  18.882  0.00  0.00    +0.000 A 
ATOM      4  C   UNL     1       2.987   5.007  19.192  0.00  0.00    +0.000 A 
ATOM      5  C   UNL     1       2.222   5.245  20.371  0.00  0.00    +0.000 A 
ATOM      6  C   UNL     1       1.933   4.200  21.419  0.00  0.00    +0.000 C 
ATOM      7  C   UNL     1       1.718   6.549  20.553  0.00  0.00    +0.000 A 
ATOM      8  N   UNL     1       0.960   7.035  21.603  0.00  0.00    +0.000 N 
ATOM      9  C   UNL     1       0.647   8.358  21.438  0.00  0.00    +0.000 A 
ATOM     10  C   UNL     1      -0.094   9.214  22.267  0.00  0.00    +0.000 A 
ATOM     11  C   UNL     1      -0.267  10.536  21.854  0.00  0.00    +0.000 A 
ATOM     12  C   UNL     1       0.282  10.964  20.654  0.00  0.00    +0.000 A 
ATOM     13  C   UNL     1       1.012  10.100  19.837  0.00  0.00    +0.000 A 
ATOM     14  C   UNL     1       1.217   8.756  20.227  0.00  0.00    +0.000 A 
ATOM     15  C   UNL     1       1.909   7.608  19.670  0.00  0.00    +0.000 A 
ATOM     16  C   UNL     1       2.688   7.371  18.502  0.00  0.00    +0.000 A 
ATOM     17  C   UNL     1       2.963   8.445  17.472  0.00  0.00    +0.000 C 
ATOM     18  C   UNL     1       3.228   6.056  18.282  0.00  0.00    +0.000 A 
ATOM     19  C   UNL     1       4.029   5.783  17.150  0.00  0.00    +0.000 A 
ATOM     20  H   UNL     1       0.674   6.489  22.402  0.00  0.00    +0.000 HD
ENDROOT
BRANCH  12  21
ATOM     21  O   UNL     1       0.128  12.248  20.221  0.00  0.00    +0.000 OA
ATOM     22  H   UNL     1       0.855  12.791  20.581  0.00  0.00    +0.000 HD
ENDBRANCH  12  21
BRANCH   1  23
ATOM     23  C   UNL     1       5.302   4.337  15.635  0.00  0.00    +0.000 C 
BRANCH  23  24
ATOM     24  C   UNL     1       6.186   5.573  15.333  0.00  0.00    +0.000 C 
BRANCH  24  25
ATOM     25  N   UNL     1       7.244   5.923  16.314  0.00  0.00    +0.000 NA
BRANCH  25  27
ATOM     26  C   UNL     1       7.917   8.054  17.467  0.00  0.00    +0.000 C 
ATOM     27  C   UNL     1       6.825   7.014  17.218  0.00  0.00    +0.000 C 
ENDBRANCH  25  27
BRANCH  25  28
ATOM     28  C   UNL     1       7.701   4.727  17.063  0.00  0.00    +0.000 C 
ATOM     29  C   UNL     1       7.670   4.823  18.590  0.00  0.00    +0.000 C 
ENDBRANCH  25  28
ENDBRANCH  24  25
ENDBRANCH  23  24
ENDBRANCH   1  23
TORSDOF 6
ENDMDL
MODEL 6
REMARK VINA RESULT:      -7.0      1.213      1.891
REMARK  Name = 
REMARK  10 active torsions:
REMARK  status: ('A' for Active; 'I' for Inactive)
REMARK    1  A    between atoms: C_1  and  C_2
REMARK    2  A    between atoms: C_2  and  N_3
REMARK    3  A    between atoms: N_3  and  C_4
REMARK    4  A    between atoms: N_3  and  C_6
REMARK    5  A    between atoms: C_4  and  C_5
REMARK    6  A    between atoms: C_6  and  C_7
REMARK    7  A    between atoms: C_7  and  N_8
REMARK    8  A    between atoms: C_12  and  C_13
REMARK    9  A    between atoms: C_19  and  O_20
REMARK   10  A    between atoms: C_24  and  C_25
REMARK                            x       y       z     vdW  Elec       q    Type
REMARK                         _______ _______ _______ _____ _____    ______ ____
ROOT
ATOM      1  N   UNL     1       4.490   3.857  16.954  0.00  0.00    +0.000 N 
ATOM      2  C   UNL     1       4.227   2.940  17.898  0.00  0.00    +0.000 A 
ATOM      3  C   UNL     1       3.511   3.280  19.034  0.00  0.00    +0.000 A 
ATOM      4  C   UNL     1       3.033   4.588  19.247  0.00  0.00    +0.000 A 
ATOM      5  C   UNL     1       2.295   4.964  20.406  0.00  0.00    +0.000 A 
ATOM      6  C   UNL     1       1.951   4.023  21.534  0.00  0.00    +0.000 C 
ATOM      7  C   UNL     1       1.875   6.307  20.488  0.00  0.00    +0.000 A 
ATOM      8  N   UNL     1       1.157   6.919  21.500  0.00  0.00    +0.000 N 
ATOM      9  C   UNL     1       0.926   8.243  21.233  0.00  0.00    +0.000 A 
ATOM     10  C   UNL     1       0.247   9.205  21.996  0.00  0.00    +0.000 A 
ATOM     11  C   UNL     1       0.153  10.499  21.482  0.00  0.00    +0.000 A 
ATOM     12  C   UNL     1       0.716  10.798  20.251  0.00  0.00    +0.000 A 
ATOM     13  C   UNL     1       1.384   9.829  19.500  0.00  0.00    +0.000 A 
ATOM     14  C   UNL     1       1.509   8.509  19.993  0.00  0.00    +0.000 A 
ATOM     15  C   UNL     1       2.123   7.280  19.525  0.00  0.00    +0.000 A 
ATOM     16  C   UNL     1       2.876   6.905  18.376  0.00  0.00    +0.000 A 
ATOM     17  C   UNL     1       3.207   7.876  17.264  0.00  0.00    +0.000 C 
ATOM     18  C   UNL     1       3.331   5.545  18.256  0.00  0.00    +0.000 A 
ATOM     19  C   UNL     1       4.103   5.136  17.146  0.00  0.00    +0.000 A 
ATOM     20  H   UNL     1       0.846   6.456  22.341  0.00  0.00    +0.000 HD
ENDROOT
BRANCH  12  21
ATOM     21  O   UNL     1       0.638  12.052  19.719  0.00  0.00    +0.000 OA
ATOM     22  H   UNL     1       0.507  11.977  18.755  0.00  0.00    +0.000 HD
ENDBRANCH  12  21
BRANCH   1  23
ATOM     23  C   UNL     1       5.271   3.500  15.743  0.00  0.00    +0.000 C 
BRANCH  23  24
ATOM     24  C   UNL     1       5.405   4.717  14.793  0.00  0.00    +0.000 C 
BRANCH  24  25
ATOM     25  N   UNL     1       6.716   5.408  14.736  0.00  0.00    +0.000 NA
BRANCH  25  27
ATOM     26  C   UNL     1       7.300   6.395  16.974  0.00  0.00    +0.000 C 
ATOM     27  C   UNL     1       7.487   5.244  15.987  0.00  0.00    +0.000 C 
ENDBRANCH  25  27
BRANCH  25  28
ATOM     28  C   UNL     1       7.496   4.988  13.546  0.00  0.00    +0.000 C 
ATOM     29  C   UNL     1       6.786   4.067  12.552  0.00  0.00    +0.000 C 
ENDBRANCH  25  28
ENDBRANCH  24  25
ENDBRANCH  23  24
ENDBRANCH   1  23
TORSDOF 6
ENDMDL
MODEL 7
REMARK VINA RESULT:      -6.9      2.999      8.283
REMARK  Name = 
REMARK  10 active torsions:
REMARK  status: ('A' for Active; 'I' for Inactive)
REMARK    1  A    between atoms: C_1  and  C_2
REMARK    2  A    between atoms: C_2  and  N_3
REMARK    3  A    between atoms: N_3  and  C_4
REMARK    4  A    between atoms: N_3  and  C_6
REMARK    5  A    between atoms: C_4  and  C_5
REMARK    6  A    between atoms: C_6  and  C_7
REMARK    7  A    between atoms: C_7  and  N_8
REMARK    8  A    between atoms: C_12  and  C_13
REMARK    9  A    between atoms: C_19  and  O_20
REMARK   10  A    between atoms: C_24  and  C_25
REMARK                            x       y       z     vdW  Elec       q    Type
REMARK                         _______ _______ _______ _____ _____    ______ ____
ROOT
ATOM      1  N   UNL     1       0.575   9.481  20.653  0.00  0.00    +0.000 N 
ATOM      2  C   UNL     1       0.255   8.523  21.537  0.00  0.00    +0.000 A 
ATOM      3  C   UNL     1       0.766   7.243  21.407  0.00  0.00    +0.000 A 
ATOM      4  C   UNL     1       1.634   6.893  20.354  0.00  0.00    +0.000 A 
ATOM      5  C   UNL     1       2.173   5.583  20.197  0.00  0.00    +0.000 A 
ATOM      6  C   UNL     1       1.875   4.428  21.119  0.00  0.00    +0.000 C 
ATOM      7  C   UNL     1       3.032   5.373  19.099  0.00  0.00    +0.000 A 
ATOM      8  N   UNL     1       3.674   4.206  18.725  0.00  0.00    +0.000 N 
ATOM      9  C   UNL     1       4.436   4.381  17.600  0.00  0.00    +0.000 A 
ATOM     10  C   UNL     1       5.230   3.458  16.904  0.00  0.00    +0.000 A 
ATOM     11  C   UNL     1       5.914   3.905  15.772  0.00  0.00    +0.000 A 
ATOM     12  C   UNL     1       5.799   5.228  15.372  0.00  0.00    +0.000 A 
ATOM     13  C   UNL     1       5.010   6.137  16.077  0.00  0.00    +0.000 A 
ATOM     14  C   UNL     1       4.293   5.718  17.223  0.00  0.00    +0.000 A 
ATOM     15  C   UNL     1       3.391   6.346  18.170  0.00  0.00    +0.000 A 
ATOM     16  C   UNL     1       2.836   7.649  18.320  0.00  0.00    +0.000 A 
ATOM     17  C   UNL     1       3.153   8.786  17.373  0.00  0.00    +0.000 C 
ATOM     18  C   UNL     1       1.948   7.904  19.423  0.00  0.00    +0.000 A 
ATOM     19  C   UNL     1       1.355   9.174  19.596  0.00  0.00    +0.000 A 
ATOM     20  H   UNL     1       3.591   3.327  19.211  0.00  0.00    +0.000 HD
ENDROOT
BRANCH  12  21
ATOM     21  O   UNL     1       6.457   5.697  14.273  0.00  0.00    +0.000 OA
ATOM     22  H   UNL     1       6.491   4.990  13.601  0.00  0.00    +0.000 HD
ENDBRANCH  12  21
BRANCH   1  23
ATOM     23  C   UNL     1       0.016  10.851  20.781  0.00  0.00    +0.000 C 
BRANCH  23  24
ATOM     24  C   UNL     1       0.054  11.592  19.421  0.00  0.00    +0.000 C 
BRANCH  24  25
ATOM     25  N   UNL     1      -1.213  12.180  18.919  0.00  0.00    +0.000 NA
BRANCH  25  27
ATOM     26  C   UNL     1      -1.635  10.141  17.507  0.00  0.00    +0.000 C 
ATOM     27  C   UNL     1      -2.188  11.142  18.521  0.00  0.00    +0.000 C 
ENDBRANCH  25  27
BRANCH  25  28
ATOM     28  C   UNL     1      -1.789  13.136  19.896  0.00  0.00    +0.000 C 
ATOM     29  C   UNL     1      -3.195  12.823  20.412  0.00  0.00    +0.000 C 
ENDBRANCH  25  28
ENDBRANCH  24  25
ENDBRANCH  23  24
ENDBRANCH   1  23
TORSDOF 6
ENDMDL
MODEL 8
REMARK VINA RESULT:      -6.9      1.663      2.608
REMARK  Name = 
REMARK  10 active torsions:
REMARK  status: ('A' for Active; 'I' for Inactive)
REMARK    1  A    between atoms: C_1  and  C_2
REMARK    2  A    between atoms: C_2  and  N_3
REMARK    3  A    between atoms: N_3  and  C_4
REMARK    4  A    between atoms: N_3  and  C_6
REMARK    5  A    between atoms: C_4  and  C_5
REMARK    6  A    between atoms: C_6  and  C_7
REMARK    7  A    between atoms: C_7  and  N_8
REMARK    8  A    between atoms: C_12  and  C_13
REMARK    9  A    between atoms: C_19  and  O_20
REMARK   10  A    between atoms: C_24  and  C_25
REMARK                            x       y       z     vdW  Elec       q    Type
REMARK                         _______ _______ _______ _____ _____    ______ ____
ROOT
ATOM      1  N   UNL     1       4.588   4.446  16.917  0.00  0.00    +0.000 N 
ATOM      2  C   UNL     1       4.321   3.440  17.765  0.00  0.00    +0.000 A 
ATOM      3  C   UNL     1       3.539   3.651  18.888  0.00  0.00    +0.000 A 
ATOM      4  C   UNL     1       2.996   4.916  19.188  0.00  0.00    +0.000 A 
ATOM      5  C   UNL     1       2.189   5.160  20.337  0.00  0.00    +0.000 A 
ATOM      6  C   UNL     1       1.835   4.112  21.362  0.00  0.00    +0.000 C 
ATOM      7  C   UNL     1       1.708   6.474  20.512  0.00  0.00    +0.000 A 
ATOM      8  N   UNL     1       0.919   6.967  21.536  0.00  0.00    +0.000 N 
ATOM      9  C   UNL     1       0.643   8.298  21.372  0.00  0.00    +0.000 A 
ATOM     10  C   UNL     1      -0.111   9.163  22.179  0.00  0.00    +0.000 A 
ATOM     11  C   UNL     1      -0.238  10.493  21.773  0.00  0.00    +0.000 A 
ATOM     12  C   UNL     1       0.369  10.920  20.602  0.00  0.00    +0.000 A 
ATOM     13  C   UNL     1       1.112  10.047  19.805  0.00  0.00    +0.000 A 
ATOM     14  C   UNL     1       1.271   8.694  20.189  0.00  0.00    +0.000 A 
ATOM     15  C   UNL     1       1.958   7.536  19.649  0.00  0.00    +0.000 A 
ATOM     16  C   UNL     1       2.779   7.293  18.511  0.00  0.00    +0.000 A 
ATOM     17  C   UNL     1       3.119   8.370  17.504  0.00  0.00    +0.000 C 
ATOM     18  C   UNL     1       3.297   5.967  18.299  0.00  0.00    +0.000 A 
ATOM     19  C   UNL     1       4.137   5.687  17.197  0.00  0.00    +0.000 A 
ATOM     20  H   UNL     1       0.589   6.420  22.317  0.00  0.00    +0.000 HD
ENDROOT
BRANCH  12  21
ATOM     21  O   UNL     1       0.261  12.211  20.176  0.00  0.00    +0.000 OA
ATOM     22  H   UNL     1       0.592  12.268  19.259  0.00  0.00    +0.000 HD
ENDBRANCH  12  21
BRANCH   1  23
ATOM     23  C   UNL     1       5.438   4.227  15.720  0.00  0.00    +0.000 C 
BRANCH  23  24
ATOM     24  C   UNL     1       6.803   4.944  15.872  0.00  0.00    +0.000 C 
BRANCH  24  25
ATOM     25  N   UNL     1       6.976   5.863  17.025  0.00  0.00    +0.000 NA
BRANCH  25  27
ATOM     26  C   UNL     1       7.044   5.356  19.487  0.00  0.00    +0.000 C 
ATOM     27  C   UNL     1       7.734   5.236  18.128  0.00  0.00    +0.000 C 
ENDBRANCH  25  27
BRANCH  25  28
ATOM     28  C   UNL     1       7.577   7.152  16.601  0.00  0.00    +0.000 C 
ATOM     29  C   UNL     1       7.813   8.190  17.700  0.00  0.00    +0.000 C 
ENDBRANCH  25  28
ENDBRANCH  24  25
ENDBRANCH  23  24
ENDBRANCH   1  23
TORSDOF 6
ENDMDL
MODEL 9
REMARK VINA RESULT:      -6.9      3.307      6.264
REMARK  Name = 
REMARK  10 active torsions:
REMARK  status: ('A' for Active; 'I' for Inactive)
REMARK    1  A    between atoms: C_1  and  C_2
REMARK    2  A    between atoms: C_2  and  N_3
REMARK    3  A    between atoms: N_3  and  C_4
REMARK    4  A    between atoms: N_3  and  C_6
REMARK    5  A    between atoms: C_4  and  C_5
REMARK    6  A    between atoms: C_6  and  C_7
REMARK    7  A    between atoms: C_7  and  N_8
REMARK    8  A    between atoms: C_12  and  C_13
REMARK    9  A    between atoms: C_19  and  O_20
REMARK   10  A    between atoms: C_24  and  C_25
REMARK                            x       y       z     vdW  Elec       q    Type
REMARK                         _______ _______ _______ _____ _____    ______ ____
ROOT
ATOM      1  N   UNL     1       1.747   8.420  19.562  0.00  0.00    +0.000 N 
ATOM      2  C   UNL     1       1.807   9.150  18.437  0.00  0.00    +0.000 A 
ATOM      3  C   UNL     1       1.065  10.311  18.307  0.00  0.00    +0.000 A 
ATOM      4  C   UNL     1       0.224  10.775  19.338  0.00  0.00    +0.000 A 
ATOM      5  C   UNL     1      -0.550  11.966  19.230  0.00  0.00    +0.000 A 
ATOM      6  C   UNL     1      -0.571  12.856  18.012  0.00  0.00    +0.000 C 
ATOM      7  C   UNL     1      -1.346  12.313  20.340  0.00  0.00    +0.000 A 
ATOM      8  N   UNL     1      -2.184  13.405  20.485  0.00  0.00    +0.000 N 
ATOM      9  C   UNL     1      -2.797  13.419  21.710  0.00  0.00    +0.000 A 
ATOM     10  C   UNL     1      -3.711  14.340  22.244  0.00  0.00    +0.000 A 
ATOM     11  C   UNL     1      -4.186  14.115  23.537  0.00  0.00    +0.000 A 
ATOM     12  C   UNL     1      -3.748  13.011  24.253  0.00  0.00    +0.000 A 
ATOM     13  C   UNL     1      -2.834  12.106  23.712  0.00  0.00    +0.000 A 
ATOM     14  C   UNL     1      -2.338  12.295  22.400  0.00  0.00    +0.000 A 
ATOM     15  C   UNL     1      -1.425  11.586  21.524  0.00  0.00    +0.000 A 
ATOM     16  C   UNL     1      -0.663  10.386  21.622  0.00  0.00    +0.000 A 
ATOM     17  C   UNL     1      -0.669   9.513  22.858  0.00  0.00    +0.000 C 
ATOM     18  C   UNL     1       0.157   9.991  20.508  0.00  0.00    +0.000 A 
ATOM     19  C   UNL     1       0.909   8.795  20.551  0.00  0.00    +0.000 A 
ATOM     20  H   UNL     1      -2.337  14.106  19.776  0.00  0.00    +0.000 HD
ENDROOT
BRANCH  12  21
ATOM     21  O   UNL     1      -4.190  12.766  25.520  0.00  0.00    +0.000 OA
ATOM     22  H   UNL     1      -4.252  11.800  25.650  0.00  0.00    +0.000 HD
ENDBRANCH  12  21
BRANCH   1  23
ATOM     23  C   UNL     1       2.529   7.166  19.698  0.00  0.00    +0.000 C 
BRANCH  23  24
ATOM     24  C   UNL     1       2.481   6.339  18.389  0.00  0.00    +0.000 C 
BRANCH  24  25
ATOM     25  N   UNL     1       2.354   4.865  18.507  0.00  0.00    +0.000 NA
BRANCH  25  27
ATOM     26  C   UNL     1       3.148   2.648  17.623  0.00  0.00    +0.000 C 
ATOM     27  C   UNL     1       3.394   4.153  17.735  0.00  0.00    +0.000 C 
ENDBRANCH  25  27
BRANCH  25  28
ATOM     28  C   UNL     1       2.328   4.438  19.927  0.00  0.00    +0.000 C 
ATOM     29  C   UNL     1       1.021   3.827  20.435  0.00  0.00    +0.000 C 
ENDBRANCH  25  28
ENDBRANCH  24  25
ENDBRANCH  23  24
ENDBRANCH   1  23
TORSDOF 6
ENDMDL
