MODEL 1
REMARK VINA RESULT:      -7.7      0.000      0.000
REMARK  Name = 
REMARK  8 active torsions:
REMARK  status: ('A' for Active; 'I' for Inactive)
REMARK    1  A    between atoms: C_1  and  C_2
REMARK    2  A    between atoms: C_5  and  C_6
REMARK    3  A    between atoms: C_9  and  C_10
REMARK    4  A    between atoms: C_13  and  C_15
REMARK    5  A    between atoms: C_15  and  C_16
REMARK    6  A    between atoms: C_16  and  C_17
REMARK    7  A    between atoms: C_16  and  C_18
REMARK    8  A    between atoms: C_16  and  C_19
REMARK                            x       y       z     vdW  Elec       q    Type
REMARK                         _______ _______ _______ _____ _____    ______ ____
ROOT
ATOM      1  C   UNL     1       0.868  11.385  19.384  0.00  0.00    +0.000 C 
ATOM      2  C   UNL     1       1.815  12.565  19.178  0.00  0.00    +0.000 C 
ATOM      3  N   UNL     1       0.946  13.718  19.160  0.00  0.00    +0.000 N 
ATOM      4  C   UNL     1       1.421  14.952  19.543  0.00  0.00    +0.000 C 
ATOM      5  O   UNL     1       2.589  15.068  19.916  0.00  0.00    +0.000 OA
ATOM      6  C   UNL     1      -0.296  13.372  18.505  0.00  0.00    +0.000 C 
ATOM      7  C   UNL     1      -0.545  11.894  18.918  0.00  0.00    +0.000 C 
ATOM      8  C   UNL     1      -1.185  11.079  17.776  0.00  0.00    +0.000 C 
ATOM      9  C   UNL     1      -2.618  11.519  17.496  0.00  0.00    +0.000 C 
ATOM     10  O   UNL     1      -3.412  11.412  18.674  0.00  0.00    +0.000 OA
ATOM     11  C   UNL     1      -2.945  12.241  19.732  0.00  0.00    +0.000 C 
ATOM     12  C   UNL     1      -1.519  11.864  20.126  0.00  0.00    +0.000 C 
ENDROOT
BRANCH   1  16
ATOM     13  C   UNL     1       2.029   8.132  18.616  0.00  0.00    +0.000 A 
ATOM     14  N   UNL     1       2.425   8.717  17.504  0.00  0.00    +0.000 NA
ATOM     15  N   UNL     1       2.011  10.029  17.574  0.00  0.00    +0.000 NA
ATOM     16  C   UNL     1       1.403  10.163  18.733  0.00  0.00    +0.000 A 
ATOM     17  O   UNL     1       1.350   8.993  19.445  0.00  0.00    +0.000 OA
BRANCH  13  22
ATOM     18  C   UNL     1       2.854   2.662  20.311  0.00  0.00    +0.000 C 
ATOM     19  C   UNL     1       2.666   4.087  19.884  0.00  0.00    +0.000 A 
ATOM     20  C   UNL     1       3.043   4.510  18.607  0.00  0.00    +0.000 A 
ATOM     21  C   UNL     1       2.831   5.833  18.209  0.00  0.00    +0.000 A 
ATOM     22  C   UNL     1       2.245   6.766  19.078  0.00  0.00    +0.000 A 
ATOM     23  C   UNL     1       1.885   6.341  20.364  0.00  0.00    +0.000 A 
ATOM     24  C   UNL     1       2.092   5.015  20.762  0.00  0.00    +0.000 A 
ENDBRANCH  13  22
ENDBRANCH   1  16
BRANCH   4  25
ATOM     25  C   UNL     1       0.443  16.126  19.529  0.00  0.00    +0.000 C 
BRANCH  25  26
ATOM     26  C   UNL     1       0.800  17.289  18.557  0.00  0.00    +0.000 C 
ATOM     27  C   UNL     1      -0.379  17.610  17.619  0.00  0.00    +0.000 C 
ATOM     28  C   UNL     1       1.111  18.559  19.380  0.00  0.00    +0.000 C 
ATOM     29  C   UNL     1       2.058  16.968  17.728  0.00  0.00    +0.000 C 
ENDBRANCH  25  26
ENDBRANCH   4  25
TORSDOF 4
ENDMDL
MODEL 2
REMARK VINA RESULT:      -7.6      0.764      1.332
REMARK  Name = 
REMARK  8 active torsions:
REMARK  status: ('A' for Active; 'I' for Inactive)
REMARK    1  A    between atoms: C_1  and  C_2
REMARK    2  A    between atoms: C_5  and  C_6
REMARK    3  A    between atoms: C_9  and  C_10
REMARK    4  A    between atoms: C_13  and  C_15
REMARK    5  A    between atoms: C_15  and  C_16
REMARK    6  A    between atoms: C_16  and  C_17
REMARK    7  A    between atoms: C_16  and  C_18
REMARK    8  A    between atoms: C_16  and  C_19
REMARK                            x       y       z     vdW  Elec       q    Type
REMARK                         _______ _______ _______ _____ _____    ______ ____
ROOT
ATOM      1  C   UNL     1       1.044  11.471  19.229  0.00  0.00    +0.000 C 
ATOM      2  C   UNL     1       1.971  12.622  18.844  0.00  0.00    +0.000 C 
ATOM      3  N   UNL     1       1.108  13.780  18.821  0.00  0.00    +0.000 N 
ATOM      4  C   UNL     1       1.623  15.034  19.062  0.00  0.00    +0.000 C 
ATOM      5  O   UNL     1       2.822  15.165  19.311  0.00  0.00    +0.000 OA
ATOM      6  C   UNL     1      -0.192  13.398  18.317  0.00  0.00    +0.000 C 
ATOM      7  C   UNL     1      -0.405  11.959  18.863  0.00  0.00    +0.000 C 
ATOM      8  C   UNL     1      -1.155  11.066  17.854  0.00  0.00    +0.000 C 
ATOM      9  C   UNL     1      -2.607  11.499  17.679  0.00  0.00    +0.000 C 
ATOM     10  O   UNL     1      -3.284  11.490  18.934  0.00  0.00    +0.000 OA
ATOM     11  C   UNL     1      -2.714  12.391  19.875  0.00  0.00    +0.000 C 
ATOM     12  C   UNL     1      -1.258  12.030  20.158  0.00  0.00    +0.000 C 
ENDROOT
BRANCH   1  16
ATOM     13  C   UNL     1       1.993   8.125  18.578  0.00  0.00    +0.000 A 
ATOM     14  N   UNL     1       2.462   8.651  17.464  0.00  0.00    +0.000 NA
ATOM     15  N   UNL     1       2.141   9.990  17.489  0.00  0.00    +0.000 NA
ATOM     16  C   UNL     1       1.510  10.198  18.625  0.00  0.00    +0.000 A 
ATOM     17  O   UNL     1       1.353   9.053  19.364  0.00  0.00    +0.000 OA
BRANCH  13  22
ATOM     18  C   UNL     1       2.353   2.658  20.438  0.00  0.00    +0.000 C 
ATOM     19  C   UNL     1       2.288   4.080  19.964  0.00  0.00    +0.000 A 
ATOM     20  C   UNL     1       2.541   4.404  18.628  0.00  0.00    +0.000 A 
ATOM     21  C   UNL     1       2.443   5.728  18.192  0.00  0.00    +0.000 A 
ATOM     22  C   UNL     1       2.098   6.760  19.078  0.00  0.00    +0.000 A 
ATOM     23  C   UNL     1       1.863   6.432  20.420  0.00  0.00    +0.000 A 
ATOM     24  C   UNL     1       1.955   5.105  20.858  0.00  0.00    +0.000 A 
ENDBRANCH  13  22
ENDBRANCH   1  16
BRANCH   4  25
ATOM     25  C   UNL     1       0.651  16.214  19.052  0.00  0.00    +0.000 C 
BRANCH  25  26
ATOM     26  C   UNL     1      -0.105  16.475  20.388  0.00  0.00    +0.000 C 
ATOM     27  C   UNL     1       0.511  15.661  21.542  0.00  0.00    +0.000 C 
ATOM     28  C   UNL     1       0.009  17.972  20.751  0.00  0.00    +0.000 C 
ATOM     29  C   UNL     1      -1.606  16.152  20.262  0.00  0.00    +0.000 C 
ENDBRANCH  25  26
ENDBRANCH   4  25
TORSDOF 4
ENDMDL
MODEL 3
REMARK VINA RESULT:      -7.6      0.807      1.610
REMARK  Name = 
REMARK  8 active torsions:
REMARK  status: ('A' for Active; 'I' for Inactive)
REMARK    1  A    between atoms: C_1  and  C_2
REMARK    2  A    between atoms: C_5  and  C_6
REMARK    3  A    between atoms: C_9  and  C_10
REMARK    4  A    between atoms: C_13  and  C_15
REMARK    5  A    between atoms: C_15  and  C_16
REMARK    6  A    between atoms: C_16  and  C_17
REMARK    7  A    between atoms: C_16  and  C_18
REMARK    8  A    between atoms: C_16  and  C_19
REMARK                            x       y       z     vdW  Elec       q    Type
REMARK                         _______ _______ _______ _____ _____    ______ ____
ROOT
ATOM      1  C   UNL     1       0.855  11.311  19.134  0.00  0.00    +0.000 C 
ATOM      2  C   UNL     1       1.754  12.502  18.808  0.00  0.00    +0.000 C 
ATOM      3  N   UNL     1       0.843  13.620  18.719  0.00  0.00    +0.000 N 
ATOM      4  C   UNL     1       1.283  14.896  18.989  0.00  0.00    +0.000 C 
ATOM      5  O   UNL     1       2.454  15.083  19.321  0.00  0.00    +0.000 OA
ATOM      6  C   UNL     1      -0.400  13.179  18.127  0.00  0.00    +0.000 C 
ATOM      7  C   UNL     1      -0.586  11.732  18.665  0.00  0.00    +0.000 C 
ATOM      8  C   UNL     1      -1.222  10.805  17.610  0.00  0.00    +0.000 C 
ATOM      9  C   UNL     1      -2.676  11.171  17.332  0.00  0.00    +0.000 C 
ATOM     10  O   UNL     1      -3.438  11.134  18.536  0.00  0.00    +0.000 OA
ATOM     11  C   UNL     1      -2.977  12.062  19.510  0.00  0.00    +0.000 C 
ATOM     12  C   UNL     1      -1.530  11.768  19.896  0.00  0.00    +0.000 C 
ENDROOT
BRANCH   1  16
ATOM     13  C   UNL     1       2.033   8.021  18.580  0.00  0.00    +0.000 A 
ATOM     14  N   UNL     1       2.502   8.555  17.470  0.00  0.00    +0.000 NA
ATOM     15  N   UNL     1       2.096   9.871  17.458  0.00  0.00    +0.000 NA
ATOM     16  C   UNL     1       1.418  10.059  18.570  0.00  0.00    +0.000 A 
ATOM     17  O   UNL     1       1.312   8.921  19.327  0.00  0.00    +0.000 OA
BRANCH  13  22
ATOM     18  C   UNL     1       2.765   2.738  20.823  0.00  0.00    +0.000 C 
ATOM     19  C   UNL     1       2.550   4.099  20.231  0.00  0.00    +0.000 A 
ATOM     20  C   UNL     1       2.007   5.136  20.994  0.00  0.00    +0.000 A 
ATOM     21  C   UNL     1       1.843   6.409  20.441  0.00  0.00    +0.000 A 
ATOM     22  C   UNL     1       2.209   6.676  19.112  0.00  0.00    +0.000 A 
ATOM     23  C   UNL     1       2.736   5.627  18.346  0.00  0.00    +0.000 A 
ATOM     24  C   UNL     1       2.906   4.353  18.900  0.00  0.00    +0.000 A 
ENDBRANCH  13  22
ENDBRANCH   1  16
BRANCH   4  25
ATOM     25  C   UNL     1       0.262  16.031  18.906  0.00  0.00    +0.000 C 
BRANCH  25  26
ATOM     26  C   UNL     1      -0.345  16.492  20.263  0.00  0.00    +0.000 C 
ATOM     27  C   UNL     1       0.516  17.593  20.912  0.00  0.00    +0.000 C 
ATOM     28  C   UNL     1      -1.753  17.078  20.015  0.00  0.00    +0.000 C 
ATOM     29  C   UNL     1      -0.512  15.313  21.239  0.00  0.00    +0.000 C 
ENDBRANCH  25  26
ENDBRANCH   4  25
TORSDOF 4
ENDMDL
MODEL 4
REMARK VINA RESULT:      -7.6      0.293      1.247
REMARK  Name = 
REMARK  8 active torsions:
REMARK  status: ('A' for Active; 'I' for Inactive)
REMARK    1  A    between atoms: C_1  and  C_2
REMARK    2  A    between atoms: C_5  and  C_6
REMARK    3  A    between atoms: C_9  and  C_10
REMARK    4  A    between atoms: C_13  and  C_15
REMARK    5  A    between atoms: C_15  and  C_16
REMARK    6  A    between atoms: C_16  and  C_17
REMARK    7  A    between atoms: C_16  and  C_18
REMARK    8  A    between atoms: C_16  and  C_19
REMARK                            x       y       z     vdW  Elec       q    Type
REMARK                         _______ _______ _______ _____ _____    ______ ____
ROOT
ATOM      1  C   UNL     1       0.861  11.239  19.225  0.00  0.00    +0.000 C 
ATOM      2  C   UNL     1       1.801  12.420  18.997  0.00  0.00    +0.000 C 
ATOM      3  N   UNL     1       0.922  13.563  18.916  0.00  0.00    +0.000 N 
ATOM      4  C   UNL     1       1.377  14.815  19.265  0.00  0.00    +0.000 C 
ATOM      5  O   UNL     1       2.535  14.957  19.660  0.00  0.00    +0.000 OA
ATOM      6  C   UNL     1      -0.301  13.180  18.246  0.00  0.00    +0.000 C 
ATOM      7  C   UNL     1      -0.545  11.716  18.707  0.00  0.00    +0.000 C 
ATOM      8  C   UNL     1      -1.150  10.853  17.582  0.00  0.00    +0.000 C 
ATOM      9  C   UNL     1      -2.581  11.268  17.253  0.00  0.00    +0.000 C 
ATOM     10  O   UNL     1      -3.401  11.196  18.416  0.00  0.00    +0.000 OA
ATOM     11  C   UNL     1      -2.967  12.068  19.453  0.00  0.00    +0.000 C 
ATOM     12  C   UNL     1      -1.547  11.720  19.893  0.00  0.00    +0.000 C 
ENDROOT
BRANCH   1  16
ATOM     13  C   UNL     1       2.073   7.973  18.605  0.00  0.00    +0.000 A 
ATOM     14  N   UNL     1       2.485   8.520  17.480  0.00  0.00    +0.000 NA
ATOM     15  N   UNL     1       2.056   9.828  17.491  0.00  0.00    +0.000 NA
ATOM     16  C   UNL     1       1.422   9.999  18.631  0.00  0.00    +0.000 A 
ATOM     17  O   UNL     1       1.367   8.856  19.387  0.00  0.00    +0.000 OA
BRANCH  13  22
ATOM     18  C   UNL     1       2.967   2.692  20.794  0.00  0.00    +0.000 C 
ATOM     19  C   UNL     1       2.711   4.051  20.214  0.00  0.00    +0.000 A 
ATOM     20  C   UNL     1       2.008   5.020  20.935  0.00  0.00    +0.000 A 
ATOM     21  C   UNL     1       1.807   6.293  20.396  0.00  0.00    +0.000 A 
ATOM     22  C   UNL     1       2.294   6.628  19.123  0.00  0.00    +0.000 A 
ATOM     23  C   UNL     1       2.982   5.647  18.397  0.00  0.00    +0.000 A 
ATOM     24  C   UNL     1       3.190   4.372  18.937  0.00  0.00    +0.000 A 
ENDBRANCH  13  22
ENDBRANCH   1  16
BRANCH   4  25
ATOM     25  C   UNL     1       0.388  15.977  19.185  0.00  0.00    +0.000 C 
BRANCH  25  26
ATOM     26  C   UNL     1       0.936  17.284  18.538  0.00  0.00    +0.000 C 
ATOM     27  C   UNL     1       1.410  18.279  19.615  0.00  0.00    +0.000 C 
ATOM     28  C   UNL     1       2.149  16.938  17.647  0.00  0.00    +0.000 C 
ATOM     29  C   UNL     1      -0.116  17.952  17.633  0.00  0.00    +0.000 C 
ENDBRANCH  25  26
ENDBRANCH   4  25
TORSDOF 4
ENDMDL
MODEL 5
REMARK VINA RESULT:      -7.5      2.964      4.571
REMARK  Name = 
REMARK  8 active torsions:
REMARK  status: ('A' for Active; 'I' for Inactive)
REMARK    1  A    between atoms: C_1  and  C_2
REMARK    2  A    between atoms: C_5  and  C_6
REMARK    3  A    between atoms: C_9  and  C_10
REMARK    4  A    between atoms: C_13  and  C_15
REMARK    5  A    between atoms: C_15  and  C_16
REMARK    6  A    between atoms: C_16  and  C_17
REMARK    7  A    between atoms: C_16  and  C_18
REMARK    8  A    between atoms: C_16  and  C_19
REMARK                            x       y       z     vdW  Elec       q    Type
REMARK                         _______ _______ _______ _____ _____    ______ ____
ROOT
ATOM      1  C   UNL     1      -0.779  11.018  21.489  0.00  0.00    +0.000 C 
ATOM      2  C   UNL     1      -1.515  11.169  22.819  0.00  0.00    +0.000 C 
ATOM      3  N   UNL     1      -1.941  12.549  22.835  0.00  0.00    +0.000 N 
ATOM      4  C   UNL     1      -3.056  12.923  23.549  0.00  0.00    +0.000 C 
ATOM      5  O   UNL     1      -3.701  12.074  24.166  0.00  0.00    +0.000 OA
ATOM      6  C   UNL     1      -0.926  13.370  22.213  0.00  0.00    +0.000 C 
ATOM      7  C   UNL     1      -0.355  12.475  21.077  0.00  0.00    +0.000 C 
ATOM      8  C   UNL     1       1.162  12.681  20.891  0.00  0.00    +0.000 C 
ATOM      9  C   UNL     1       1.484  14.061  20.326  0.00  0.00    +0.000 C 
ATOM     10  O   UNL     1       0.809  14.262  19.087  0.00  0.00    +0.000 OA
ATOM     11  C   UNL     1      -0.607  14.209  19.213  0.00  0.00    +0.000 C 
ATOM     12  C   UNL     1      -1.052  12.848  19.741  0.00  0.00    +0.000 C 
ENDROOT
BRANCH   1  16
ATOM     13  C   UNL     1       1.438   8.303  21.004  0.00  0.00    +0.000 A 
ATOM     14  N   UNL     1       1.792   8.590  22.240  0.00  0.00    +0.000 NA
ATOM     15  N   UNL     1       1.060   9.692  22.621  0.00  0.00    +0.000 NA
ATOM     16  C   UNL     1       0.294   9.998  21.596  0.00  0.00    +0.000 A 
ATOM     17  O   UNL     1       0.494   9.176  20.517  0.00  0.00    +0.000 OA
BRANCH  13  22
ATOM     18  C   UNL     1       3.093   4.035  17.465  0.00  0.00    +0.000 C 
ATOM     19  C   UNL     1       2.690   5.141  18.395  0.00  0.00    +0.000 A 
ATOM     20  C   UNL     1       2.838   6.480  18.027  0.00  0.00    +0.000 A 
ATOM     21  C   UNL     1       2.427   7.500  18.889  0.00  0.00    +0.000 A 
ATOM     22  C   UNL     1       1.866   7.209  20.142  0.00  0.00    +0.000 A 
ATOM     23  C   UNL     1       1.737   5.864  20.514  0.00  0.00    +0.000 A 
ATOM     24  C   UNL     1       2.142   4.841  19.649  0.00  0.00    +0.000 A 
ENDBRANCH  13  22
ENDBRANCH   1  16
BRANCH   4  25
ATOM     25  C   UNL     1      -3.470  14.393  23.501  0.00  0.00    +0.000 C 
BRANCH  25  26
ATOM     26  C   UNL     1      -4.384  14.797  22.307  0.00  0.00    +0.000 C 
ATOM     27  C   UNL     1      -5.680  15.468  22.802  0.00  0.00    +0.000 C 
ATOM     28  C   UNL     1      -3.635  15.814  21.417  0.00  0.00    +0.000 C 
ATOM     29  C   UNL     1      -4.726  13.585  21.420  0.00  0.00    +0.000 C 
ENDBRANCH  25  26
ENDBRANCH   4  25
TORSDOF 4
ENDMDL
MODEL 6
REMARK VINA RESULT:      -7.5      1.658      2.332
REMARK  Name = 
REMARK  8 active torsions:
REMARK  status: ('A' for Active; 'I' for Inactive)
REMARK    1  A    between atoms: C_1  and  C_2
REMARK    2  A    between atoms: C_5  and  C_6
REMARK    3  A    between atoms: C_9  and  C_10
REMARK    4  A    between atoms: C_13  and  C_15
REMARK    5  A    between atoms: C_15  and  C_16
REMARK    6  A    between atoms: C_16  and  C_17
REMARK    7  A    between atoms: C_16  and  C_18
REMARK    8  A    between atoms: C_16  and  C_19
REMARK                            x       y       z     vdW  Elec       q    Type
REMARK                         _______ _______ _______ _____ _____    ______ ____
ROOT
ATOM      1  C   UNL     1       0.192  11.041  20.378  0.00  0.00    +0.000 C 
ATOM      2  C   UNL     1       1.317  12.065  20.240  0.00  0.00    +0.000 C 
ATOM      3  N   UNL     1       0.734  13.129  19.457  0.00  0.00    +0.000 N 
ATOM      4  C   UNL     1       1.200  14.418  19.581  0.00  0.00    +0.000 C 
ATOM      5  O   UNL     1       2.110  14.665  20.375  0.00  0.00    +0.000 OA
ATOM      6  C   UNL     1      -0.161  12.564  18.472  0.00  0.00    +0.000 C 
ATOM      7  C   UNL     1      -0.796  11.340  19.192  0.00  0.00    +0.000 C 
ATOM      8  C   UNL     1      -1.026  10.161  18.225  0.00  0.00    +0.000 C 
ATOM      9  C   UNL     1      -2.121  10.465  17.207  0.00  0.00    +0.000 C 
ATOM     10  O   UNL     1      -3.338  10.797  17.868  0.00  0.00    +0.000 OA
ATOM     11  C   UNL     1      -3.226  11.957  18.684  0.00  0.00    +0.000 C 
ATOM     12  C   UNL     1      -2.175  11.754  19.772  0.00  0.00    +0.000 C 
ENDROOT
BRANCH   1  16
ATOM     13  C   UNL     1       1.770   7.925  19.809  0.00  0.00    +0.000 A 
ATOM     14  N   UNL     1       1.159   7.601  20.930  0.00  0.00    +0.000 NA
ATOM     15  N   UNL     1       0.502   8.729  21.368  0.00  0.00    +0.000 NA
ATOM     16  C   UNL     1       0.743   9.666  20.477  0.00  0.00    +0.000 A 
ATOM     17  O   UNL     1       1.565   9.240  19.466  0.00  0.00    +0.000 OA
BRANCH  13  22
ATOM     18  C   UNL     1       4.947   4.551  16.345  0.00  0.00    +0.000 C 
ATOM     19  C   UNL     1       4.102   5.426  17.223  0.00  0.00    +0.000 A 
ATOM     20  C   UNL     1       3.279   4.874  18.208  0.00  0.00    +0.000 A 
ATOM     21  C   UNL     1       2.523   5.702  19.043  0.00  0.00    +0.000 A 
ATOM     22  C   UNL     1       2.564   7.099  18.909  0.00  0.00    +0.000 A 
ATOM     23  C   UNL     1       3.377   7.646  17.906  0.00  0.00    +0.000 A 
ATOM     24  C   UNL     1       4.139   6.818  17.074  0.00  0.00    +0.000 A 
ENDBRANCH  13  22
ENDBRANCH   1  16
BRANCH   4  25
ATOM     25  C   UNL     1       0.521  15.503  18.746  0.00  0.00    +0.000 C 
BRANCH  25  26
ATOM     26  C   UNL     1      -0.420  16.466  19.529  0.00  0.00    +0.000 C 
ATOM     27  C   UNL     1       0.384  17.381  20.472  0.00  0.00    +0.000 C 
ATOM     28  C   UNL     1      -1.172  17.366  18.524  0.00  0.00    +0.000 C 
ATOM     29  C   UNL     1      -1.484  15.691  20.329  0.00  0.00    +0.000 C 
ENDBRANCH  25  26
ENDBRANCH   4  25
TORSDOF 4
ENDMDL
MODEL 7
REMARK VINA RESULT:      -7.4      2.214      3.952
REMARK  Name = 
REMARK  8 active torsions:
REMARK  status: ('A' for Active; 'I' for Inactive)
REMARK    1  A    between atoms: C_1  and  C_2
REMARK    2  A    between atoms: C_5  and  C_6
REMARK    3  A    between atoms: C_9  and  C_10
REMARK    4  A    between atoms: C_13  and  C_15
REMARK    5  A    between atoms: C_15  and  C_16
REMARK    6  A    between atoms: C_16  and  C_17
REMARK    7  A    between atoms: C_16  and  C_18
REMARK    8  A    between atoms: C_16  and  C_19
REMARK                            x       y       z     vdW  Elec       q    Type
REMARK                         _______ _______ _______ _____ _____    ______ ____
ROOT
ATOM      1  C   UNL     1       0.217  10.962  19.394  0.00  0.00    +0.000 C 
ATOM      2  C   UNL     1      -0.101  10.522  20.822  0.00  0.00    +0.000 C 
ATOM      3  N   UNL     1      -0.237  11.760  21.553  0.00  0.00    +0.000 N 
ATOM      4  C   UNL     1      -1.033  11.820  22.674  0.00  0.00    +0.000 C 
ATOM      5  O   UNL     1      -1.642  10.816  23.046  0.00  0.00    +0.000 OA
ATOM      6  C   UNL     1       0.716  12.722  21.046  0.00  0.00    +0.000 C 
ATOM      7  C   UNL     1       0.787  12.421  19.523  0.00  0.00    +0.000 C 
ATOM      8  C   UNL     1       2.212  12.612  18.965  0.00  0.00    +0.000 C 
ATOM      9  C   UNL     1       2.631  14.079  18.964  0.00  0.00    +0.000 C 
ATOM     10  O   UNL     1       1.706  14.861  18.214  0.00  0.00    +0.000 OA
ATOM     11  C   UNL     1       0.390  14.828  18.753  0.00  0.00    +0.000 C 
ATOM     12  C   UNL     1      -0.152  13.401  18.770  0.00  0.00    +0.000 C 
ENDROOT
BRANCH   1  16
ATOM     13  C   UNL     1       2.146   8.131  18.510  0.00  0.00    +0.000 A 
ATOM     14  N   UNL     1       2.484   8.889  17.487  0.00  0.00    +0.000 NA
ATOM     15  N   UNL     1       1.778  10.065  17.611  0.00  0.00    +0.000 NA
ATOM     16  C   UNL     1       1.066   9.954  18.711  0.00  0.00    +0.000 A 
ATOM     17  O   UNL     1       1.225   8.740  19.329  0.00  0.00    +0.000 OA
BRANCH  13  22
ATOM     18  C   UNL     1       4.073   2.848  19.874  0.00  0.00    +0.000 C 
ATOM     19  C   UNL     1       3.594   4.229  19.538  0.00  0.00    +0.000 A 
ATOM     20  C   UNL     1       4.055   4.891  18.397  0.00  0.00    +0.000 A 
ATOM     21  C   UNL     1       3.575   6.164  18.076  0.00  0.00    +0.000 A 
ATOM     22  C   UNL     1       2.630   6.809  18.890  0.00  0.00    +0.000 A 
ATOM     23  C   UNL     1       2.186   6.148  20.043  0.00  0.00    +0.000 A 
ATOM     24  C   UNL     1       2.662   4.871  20.362  0.00  0.00    +0.000 A 
ENDBRANCH  13  22
ENDBRANCH   1  16
BRANCH   4  25
ATOM     25  C   UNL     1      -1.156  13.167  23.386  0.00  0.00    +0.000 C 
BRANCH  25  26
ATOM     26  C   UNL     1      -2.496  13.928  23.159  0.00  0.00    +0.000 C 
ATOM     27  C   UNL     1      -3.603  13.392  24.087  0.00  0.00    +0.000 C 
ATOM     28  C   UNL     1      -2.290  15.424  23.484  0.00  0.00    +0.000 C 
ATOM     29  C   UNL     1      -2.955  13.843  21.691  0.00  0.00    +0.000 C 
ENDBRANCH  25  26
ENDBRANCH   4  25
TORSDOF 4
ENDMDL
MODEL 8
REMARK VINA RESULT:      -7.4      3.230      4.402
REMARK  Name = 
REMARK  8 active torsions:
REMARK  status: ('A' for Active; 'I' for Inactive)
REMARK    1  A    between atoms: C_1  and  C_2
REMARK    2  A    between atoms: C_5  and  C_6
REMARK    3  A    between atoms: C_9  and  C_10
REMARK    4  A    between atoms: C_13  and  C_15
REMARK    5  A    between atoms: C_15  and  C_16
REMARK    6  A    between atoms: C_16  and  C_17
REMARK    7  A    between atoms: C_16  and  C_18
REMARK    8  A    between atoms: C_16  and  C_19
REMARK                            x       y       z     vdW  Elec       q    Type
REMARK                         _______ _______ _______ _____ _____    ______ ____
ROOT
ATOM      1  C   UNL     1      -0.571  11.194  21.248  0.00  0.00    +0.000 C 
ATOM      2  C   UNL     1      -1.268  11.529  22.565  0.00  0.00    +0.000 C 
ATOM      3  N   UNL     1      -1.572  12.936  22.458  0.00  0.00    +0.000 N 
ATOM      4  C   UNL     1      -2.638  13.471  23.146  0.00  0.00    +0.000 C 
ATOM      5  O   UNL     1      -3.343  12.741  23.844  0.00  0.00    +0.000 OA
ATOM      6  C   UNL     1      -0.500  13.605  21.754  0.00  0.00    +0.000 C 
ATOM      7  C   UNL     1      -0.029  12.565  20.700  0.00  0.00    +0.000 C 
ATOM      8  C   UNL     1       1.496  12.619  20.481  0.00  0.00    +0.000 C 
ATOM      9  C   UNL     1       1.927  13.908  19.790  0.00  0.00    +0.000 C 
ATOM     10  O   UNL     1       1.251  14.055  18.543  0.00  0.00    +0.000 OA
ATOM     11  C   UNL     1      -0.162  14.138  18.688  0.00  0.00    +0.000 C 
ATOM     12  C   UNL     1      -0.714  12.875  19.342  0.00  0.00    +0.000 C 
ENDROOT
BRANCH   1  16
ATOM     13  C   UNL     1       1.450   8.305  20.948  0.00  0.00    +0.000 A 
ATOM     14  N   UNL     1       1.756   8.594  22.197  0.00  0.00    +0.000 NA
ATOM     15  N   UNL     1       1.093   9.759  22.511  0.00  0.00    +0.000 NA
ATOM     16  C   UNL     1       0.412  10.098  21.438  0.00  0.00    +0.000 A 
ATOM     17  O   UNL     1       0.606   9.236  20.390  0.00  0.00    +0.000 OA
BRANCH  13  22
ATOM     18  C   UNL     1       2.949   3.830  17.601  0.00  0.00    +0.000 C 
ATOM     19  C   UNL     1       2.587   4.989  18.481  0.00  0.00    +0.000 A 
ATOM     20  C   UNL     1       2.766   6.305  18.047  0.00  0.00    +0.000 A 
ATOM     21  C   UNL     1       2.393   7.376  18.864  0.00  0.00    +0.000 A 
ATOM     22  C   UNL     1       1.839   7.160  20.135  0.00  0.00    +0.000 A 
ATOM     23  C   UNL     1       1.678   5.838  20.573  0.00  0.00    +0.000 A 
ATOM     24  C   UNL     1       2.047   4.764  19.754  0.00  0.00    +0.000 A 
ENDBRANCH  13  22
ENDBRANCH   1  16
BRANCH   4  25
ATOM     25  C   UNL     1      -2.923  14.961  22.967  0.00  0.00    +0.000 C 
BRANCH  25  26
ATOM     26  C   UNL     1      -2.501  15.875  24.155  0.00  0.00    +0.000 C 
ATOM     27  C   UNL     1      -2.018  17.250  23.653  0.00  0.00    +0.000 C 
ATOM     28  C   UNL     1      -3.721  16.108  25.073  0.00  0.00    +0.000 C 
ATOM     29  C   UNL     1      -1.406  15.217  25.015  0.00  0.00    +0.000 C 
ENDBRANCH  25  26
ENDBRANCH   4  25
TORSDOF 4
ENDMDL
MODEL 9
REMARK VINA RESULT:      -7.4      3.070      4.832
REMARK  Name = 
REMARK  8 active torsions:
REMARK  status: ('A' for Active; 'I' for Inactive)
REMARK    1  A    between atoms: C_1  and  C_2
REMARK    2  A    between atoms: C_5  and  C_6
REMARK    3  A    between atoms: C_9  and  C_10
REMARK    4  A    between atoms: C_13  and  C_15
REMARK    5  A    between atoms: C_15  and  C_16
REMARK    6  A    between atoms: C_16  and  C_17
REMARK    7  A    between atoms: C_16  and  C_18
REMARK    8  A    between atoms: C_16  and  C_19
REMARK                            x       y       z     vdW  Elec       q    Type
REMARK                         _______ _______ _______ _____ _____    ______ ____
ROOT
ATOM      1  C   UNL     1      -0.796  11.064  21.524  0.00  0.00    +0.000 C 
ATOM      2  C   UNL     1      -1.533  11.172  22.857  0.00  0.00    +0.000 C 
ATOM      3  N   UNL     1      -1.965  12.549  22.913  0.00  0.00    +0.000 N 
ATOM      4  C   UNL     1      -3.083  12.897  23.638  0.00  0.00    +0.000 C 
ATOM      5  O   UNL     1      -3.724  12.026  24.229  0.00  0.00    +0.000 OA
ATOM      6  C   UNL     1      -0.954  13.393  22.317  0.00  0.00    +0.000 C 
ATOM      7  C   UNL     1      -0.379  12.535  21.155  0.00  0.00    +0.000 C 
ATOM      8  C   UNL     1       1.137  12.753  20.976  0.00  0.00    +0.000 C 
ATOM      9  C   UNL     1       1.452  14.151  20.452  0.00  0.00    +0.000 C 
ATOM     10  O   UNL     1       0.778  14.385  19.219  0.00  0.00    +0.000 OA
ATOM     11  C   UNL     1      -0.638  14.322  19.343  0.00  0.00    +0.000 C 
ATOM     12  C   UNL     1      -1.077  12.943  19.831  0.00  0.00    +0.000 C 
ENDROOT
BRANCH   1  16
ATOM     13  C   UNL     1       1.437   8.379  20.956  0.00  0.00    +0.000 A 
ATOM     14  N   UNL     1       1.784   8.624  22.204  0.00  0.00    +0.000 NA
ATOM     15  N   UNL     1       1.044   9.709  22.618  0.00  0.00    +0.000 NA
ATOM     16  C   UNL     1       0.282  10.047  21.601  0.00  0.00    +0.000 A 
ATOM     17  O   UNL     1       0.492   9.264  20.495  0.00  0.00    +0.000 OA
BRANCH  13  22
ATOM     18  C   UNL     1       3.232   4.091  17.511  0.00  0.00    +0.000 C 
ATOM     19  C   UNL     1       2.740   5.202  18.392  0.00  0.00    +0.000 A 
ATOM     20  C   UNL     1       2.229   4.936  19.665  0.00  0.00    +0.000 A 
ATOM     21  C   UNL     1       1.806   5.983  20.488  0.00  0.00    +0.000 A 
ATOM     22  C   UNL     1       1.876   7.318  20.059  0.00  0.00    +0.000 A 
ATOM     23  C   UNL     1       2.373   7.576  18.774  0.00  0.00    +0.000 A 
ATOM     24  C   UNL     1       2.802   6.529  17.950  0.00  0.00    +0.000 A 
ENDBRANCH  13  22
ENDBRANCH   1  16
BRANCH   4  25
ATOM     25  C   UNL     1      -3.503  14.366  23.633  0.00  0.00    +0.000 C 
BRANCH  25  26
ATOM     26  C   UNL     1      -4.735  14.711  22.745  0.00  0.00    +0.000 C 
ATOM     27  C   UNL     1      -5.033  16.223  22.773  0.00  0.00    +0.000 C 
ATOM     28  C   UNL     1      -4.431  14.316  21.283  0.00  0.00    +0.000 C 
ATOM     29  C   UNL     1      -5.985  13.922  23.177  0.00  0.00    +0.000 C 
ENDBRANCH  25  26
ENDBRANCH   4  25
TORSDOF 4
ENDMDL
