MODEL 1
REMARK VINA RESULT:      -6.3      0.000      0.000
REMARK  Name = 
REMARK  19 active torsions:
REMARK  status: ('A' for Active; 'I' for Inactive)
REMARK    1  A    between atoms: C_1  and  C_2
REMARK    2  A    between atoms: C_2  and  C_3
REMARK    3  A    between atoms: C_3  and  C_4
REMARK    4  A    between atoms: C_4  and  C_5
REMARK    5  A    between atoms: C_5  and  C_6
REMARK    6  A    between atoms: C_6  and  C_7
REMARK    7  A    between atoms: C_7  and  C_8
REMARK    8  A    between atoms: C_8  and  C_9
REMARK    9  A    between atoms: C_9  and  C_10
REMARK   10  A    between atoms: C_10  and  C_11
REMARK   11  A    between atoms: C_11  and  C_12
REMARK   12  A    between atoms: C_12  and  C_13
REMARK   13  A    between atoms: C_13  and  C_14
REMARK   14  A    between atoms: C_14  and  C_15
REMARK   15  A    between atoms: C_15  and  C_16
REMARK   16  A    between atoms: C_16  and  C_17
REMARK   17  A    between atoms: C_18  and  C_19
REMARK   18  A    between atoms: C_19  and  O_21
REMARK   19  A    between atoms: O_21  and  C_22
REMARK                            x       y       z     vdW  Elec       q    Type
REMARK                         _______ _______ _______ _____ _____    ______ ____
ROOT
ATOM      1  C   UNL     1       1.293   2.534  18.638  0.00  0.00    +0.000 C 
ENDROOT
BRANCH   1   2
ATOM      2  C   UNL     1       2.144   3.147  17.536  0.00  0.00    +0.000 C 
BRANCH   2   3
ATOM      3  C   UNL     1       3.618   3.013  17.876  0.00  0.00    +0.000 C 
BRANCH   3   4
ATOM      4  C   UNL     1       4.478   3.484  16.712  0.00  0.00    +0.000 C 
BRANCH   4   5
ATOM      5  C   UNL     1       5.488   4.495  17.156  0.00  0.00    +0.000 C 
ATOM      6  C   UNL     1       6.412   5.111  16.387  0.00  0.00    +0.000 C 
ATOM      7  C   UNL     1       7.027   6.093  17.307  0.00  0.00    +0.000 C 
ATOM      8  O   UNL     1       7.775   6.987  16.929  0.00  0.00    +0.000 OA
ATOM      9  C   UNL     1       6.628   5.878  18.738  0.00  0.00    +0.000 C 
ATOM     10  C   UNL     1       5.443   4.941  18.597  0.00  0.00    +0.000 C 
BRANCH   6  11
ATOM     11  C   UNL     1       6.723   4.920  14.932  0.00  0.00    +0.000 C 
ATOM     12  O   UNL     1       7.735   5.315  14.393  0.00  0.00    +0.000 OA
BRANCH  11  13
ATOM     13  O   UNL     1       5.725   4.240  14.288  0.00  0.00    +0.000 OA
ATOM     14  C   UNL     1       6.072   3.694  12.997  0.00  0.00    +0.000 C 
ENDBRANCH  11  13
ENDBRANCH   6  11
ENDBRANCH   4   5
ENDBRANCH   3   4
ENDBRANCH   2   3
ENDBRANCH   1   2
BRANCH   1  15
ATOM     15  C   UNL     1       1.979   2.684  19.975  0.00  0.00    +0.000 C 
BRANCH  15  16
ATOM     16  C   UNL     1       1.306   3.780  20.779  0.00  0.00    +0.000 C 
BRANCH  16  17
ATOM     17  C   UNL     1       2.163   5.031  20.756  0.00  0.00    +0.000 C 
BRANCH  17  18
ATOM     18  C   UNL     1       1.718   5.939  19.627  0.00  0.00    +0.000 C 
BRANCH  18  19
ATOM     19  C   UNL     1       2.657   7.126  19.519  0.00  0.00    +0.000 C 
BRANCH  19  20
ATOM     20  C   UNL     1       2.774   7.562  18.072  0.00  0.00    +0.000 C 
BRANCH  20  21
ATOM     21  C   UNL     1       1.672   8.548  17.739  0.00  0.00    +0.000 C 
BRANCH  21  22
ATOM     22  C   UNL     1       2.124   9.959  18.066  0.00  0.00    +0.000 C 
BRANCH  22  23
ATOM     23  C   UNL     1       0.968  10.747  18.653  0.00  0.00    +0.000 C 
BRANCH  23  24
ATOM     24  C   UNL     1       0.029   9.815  19.397  0.00  0.00    +0.000 C 
BRANCH  24  26
ATOM     25  C   UNL     1       0.065   8.682  21.611  0.00  0.00    +0.000 C 
ATOM     26  C   UNL     1       0.173  10.013  20.898  0.00  0.00    +0.000 C 
ENDBRANCH  24  26
ENDBRANCH  23  24
ENDBRANCH  22  23
ENDBRANCH  21  22
ENDBRANCH  20  21
ENDBRANCH  19  20
ENDBRANCH  18  19
ENDBRANCH  17  18
ENDBRANCH  16  17
ENDBRANCH  15  16
ENDBRANCH   1  15
TORSDOF 17
ENDMDL
MODEL 2
REMARK VINA RESULT:      -6.0      5.228      8.084
REMARK  Name = 
REMARK  19 active torsions:
REMARK  status: ('A' for Active; 'I' for Inactive)
REMARK    1  A    between atoms: C_1  and  C_2
REMARK    2  A    between atoms: C_2  and  C_3
REMARK    3  A    between atoms: C_3  and  C_4
REMARK    4  A    between atoms: C_4  and  C_5
REMARK    5  A    between atoms: C_5  and  C_6
REMARK    6  A    between atoms: C_6  and  C_7
REMARK    7  A    between atoms: C_7  and  C_8
REMARK    8  A    between atoms: C_8  and  C_9
REMARK    9  A    between atoms: C_9  and  C_10
REMARK   10  A    between atoms: C_10  and  C_11
REMARK   11  A    between atoms: C_11  and  C_12
REMARK   12  A    between atoms: C_12  and  C_13
REMARK   13  A    between atoms: C_13  and  C_14
REMARK   14  A    between atoms: C_14  and  C_15
REMARK   15  A    between atoms: C_15  and  C_16
REMARK   16  A    between atoms: C_16  and  C_17
REMARK   17  A    between atoms: C_18  and  C_19
REMARK   18  A    between atoms: C_19  and  O_21
REMARK   19  A    between atoms: O_21  and  C_22
REMARK                            x       y       z     vdW  Elec       q    Type
REMARK                         _______ _______ _______ _____ _____    ______ ____
ROOT
ATOM      1  C   UNL     1       8.078   7.615  18.179  0.00  0.00    +0.000 C 
ENDROOT
BRANCH   1   2
ATOM      2  C   UNL     1       7.789   9.064  17.821  0.00  0.00    +0.000 C 
BRANCH   2   3
ATOM      3  C   UNL     1       8.936   9.954  18.270  0.00  0.00    +0.000 C 
BRANCH   3   4
ATOM      4  C   UNL     1       8.511  11.416  18.257  0.00  0.00    +0.000 C 
BRANCH   4   5
ATOM      5  C   UNL     1       9.679  12.319  18.012  0.00  0.00    +0.000 C 
ATOM      6  C   UNL     1       9.721  13.658  18.188  0.00  0.00    +0.000 C 
ATOM      7  C   UNL     1      11.139  13.995  17.936  0.00  0.00    +0.000 C 
ATOM      8  O   UNL     1      11.623  15.090  18.194  0.00  0.00    +0.000 OA
ATOM      9  C   UNL     1      11.911  12.853  17.343  0.00  0.00    +0.000 C 
ATOM     10  C   UNL     1      10.980  11.680  17.590  0.00  0.00    +0.000 C 
BRANCH   6  11
ATOM     11  C   UNL     1       8.629  14.600  18.603  0.00  0.00    +0.000 C 
ATOM     12  O   UNL     1       8.527  15.078  19.713  0.00  0.00    +0.000 OA
BRANCH  11  13
ATOM     13  O   UNL     1       7.766  14.855  17.574  0.00  0.00    +0.000 OA
ATOM     14  C   UNL     1       6.367  14.644  17.865  0.00  0.00    +0.000 C 
ENDBRANCH  11  13
ENDBRANCH   6  11
ENDBRANCH   4   5
ENDBRANCH   3   4
ENDBRANCH   2   3
ENDBRANCH   1   2
BRANCH   1  15
ATOM     15  C   UNL     1       7.347   6.686  17.239  0.00  0.00    +0.000 C 
BRANCH  15  16
ATOM     16  C   UNL     1       7.154   5.334  17.900  0.00  0.00    +0.000 C 
BRANCH  16  17
ATOM     17  C   UNL     1       6.253   5.480  19.110  0.00  0.00    +0.000 C 
BRANCH  17  18
ATOM     18  C   UNL     1       5.208   4.381  19.110  0.00  0.00    +0.000 C 
BRANCH  18  19
ATOM     19  C   UNL     1       4.487   4.356  17.776  0.00  0.00    +0.000 C 
BRANCH  19  20
ATOM     20  C   UNL     1       3.365   5.375  17.775  0.00  0.00    +0.000 C 
BRANCH  20  21
ATOM     21  C   UNL     1       2.028   4.672  17.896  0.00  0.00    +0.000 C 
BRANCH  21  22
ATOM     22  C   UNL     1       2.172   3.215  17.496  0.00  0.00    +0.000 C 
BRANCH  22  23
ATOM     23  C   UNL     1       1.701   2.321  18.628  0.00  0.00    +0.000 C 
BRANCH  23  24
ATOM     24  C   UNL     1       0.836   3.115  19.590  0.00  0.00    +0.000 C 
BRANCH  24  26
ATOM     25  C   UNL     1       2.279   3.775  21.506  0.00  0.00    +0.000 C 
ATOM     26  C   UNL     1       1.223   2.801  21.027  0.00  0.00    +0.000 C 
ENDBRANCH  24  26
ENDBRANCH  23  24
ENDBRANCH  22  23
ENDBRANCH  21  22
ENDBRANCH  20  21
ENDBRANCH  19  20
ENDBRANCH  18  19
ENDBRANCH  17  18
ENDBRANCH  16  17
ENDBRANCH  15  16
ENDBRANCH   1  15
TORSDOF 17
ENDMDL
MODEL 3
REMARK VINA RESULT:      -6.0      1.135      2.671
REMARK  Name = 
REMARK  19 active torsions:
REMARK  status: ('A' for Active; 'I' for Inactive)
REMARK    1  A    between atoms: C_1  and  C_2
REMARK    2  A    between atoms: C_2  and  C_3
REMARK    3  A    between atoms: C_3  and  C_4
REMARK    4  A    between atoms: C_4  and  C_5
REMARK    5  A    between atoms: C_5  and  C_6
REMARK    6  A    between atoms: C_6  and  C_7
REMARK    7  A    between atoms: C_7  and  C_8
REMARK    8  A    between atoms: C_8  and  C_9
REMARK    9  A    between atoms: C_9  and  C_10
REMARK   10  A    between atoms: C_10  and  C_11
REMARK   11  A    between atoms: C_11  and  C_12
REMARK   12  A    between atoms: C_12  and  C_13
REMARK   13  A    between atoms: C_13  and  C_14
REMARK   14  A    between atoms: C_14  and  C_15
REMARK   15  A    between atoms: C_15  and  C_16
REMARK   16  A    between atoms: C_16  and  C_17
REMARK   17  A    between atoms: C_18  and  C_19
REMARK   18  A    between atoms: C_19  and  O_21
REMARK   19  A    between atoms: O_21  and  C_22
REMARK                            x       y       z     vdW  Elec       q    Type
REMARK                         _______ _______ _______ _____ _____    ______ ____
ROOT
ATOM      1  C   UNL     1       2.424   2.320  17.742  0.00  0.00    +0.000 C 
ENDROOT
BRANCH   1   2
ATOM      2  C   UNL     1       3.901   2.030  17.963  0.00  0.00    +0.000 C 
BRANCH   2   3
ATOM      3  C   UNL     1       4.701   3.321  17.920  0.00  0.00    +0.000 C 
BRANCH   3   4
ATOM      4  C   UNL     1       4.177   4.234  16.821  0.00  0.00    +0.000 C 
BRANCH   4   5
ATOM      5  C   UNL     1       5.198   4.430  15.744  0.00  0.00    +0.000 C 
ATOM      6  C   UNL     1       6.231   5.301  15.755  0.00  0.00    +0.000 C 
ATOM      7  C   UNL     1       6.978   4.964  14.523  0.00  0.00    +0.000 C 
ATOM      8  O   UNL     1       8.096   5.401  14.279  0.00  0.00    +0.000 OA
ATOM      9  C   UNL     1       6.224   4.031  13.623  0.00  0.00    +0.000 C 
ATOM     10  C   UNL     1       5.130   3.520  14.542  0.00  0.00    +0.000 C 
BRANCH   6  11
ATOM     11  C   UNL     1       6.600   6.331  16.781  0.00  0.00    +0.000 C 
ATOM     12  O   UNL     1       5.993   7.366  16.958  0.00  0.00    +0.000 OA
BRANCH  11  13
ATOM     13  O   UNL     1       7.704   5.956  17.496  0.00  0.00    +0.000 OA
ATOM     14  C   UNL     1       7.466   5.613  18.879  0.00  0.00    +0.000 C 
ENDBRANCH  11  13
ENDBRANCH   6  11
ENDBRANCH   4   5
ENDBRANCH   3   4
ENDBRANCH   2   3
ENDBRANCH   1   2
BRANCH   1  15
ATOM     15  C   UNL     1       1.637   2.025  18.998  0.00  0.00    +0.000 C 
BRANCH  15  16
ATOM     16  C   UNL     1       0.818   3.241  19.388  0.00  0.00    +0.000 C 
BRANCH  16  17
ATOM     17  C   UNL     1       1.219   3.705  20.775  0.00  0.00    +0.000 C 
BRANCH  17  18
ATOM     18  C   UNL     1       1.463   5.201  20.767  0.00  0.00    +0.000 C 
BRANCH  18  19
ATOM     19  C   UNL     1       2.650   5.525  19.880  0.00  0.00    +0.000 C 
BRANCH  19  20
ATOM     20  C   UNL     1       2.196   6.347  18.690  0.00  0.00    +0.000 C 
BRANCH  20  21
ATOM     21  C   UNL     1       2.443   7.819  18.955  0.00  0.00    +0.000 C 
BRANCH  21  22
ATOM     22  C   UNL     1       2.068   8.635  17.732  0.00  0.00    +0.000 C 
BRANCH  22  23
ATOM     23  C   UNL     1       1.561  10.000  18.158  0.00  0.00    +0.000 C 
BRANCH  23  24
ATOM     24  C   UNL     1       0.046   9.984  18.250  0.00  0.00    +0.000 C 
BRANCH  24  26
ATOM     25  C   UNL     1      -0.612  11.229  20.300  0.00  0.00    +0.000 C 
ATOM     26  C   UNL     1      -0.391   9.856  19.701  0.00  0.00    +0.000 C 
ENDBRANCH  24  26
ENDBRANCH  23  24
ENDBRANCH  22  23
ENDBRANCH  21  22
ENDBRANCH  20  21
ENDBRANCH  19  20
ENDBRANCH  18  19
ENDBRANCH  17  18
ENDBRANCH  16  17
ENDBRANCH  15  16
ENDBRANCH   1  15
TORSDOF 17
ENDMDL
MODEL 4
REMARK VINA RESULT:      -6.0      1.242      2.785
REMARK  Name = 
REMARK  19 active torsions:
REMARK  status: ('A' for Active; 'I' for Inactive)
REMARK    1  A    between atoms: C_1  and  C_2
REMARK    2  A    between atoms: C_2  and  C_3
REMARK    3  A    between atoms: C_3  and  C_4
REMARK    4  A    between atoms: C_4  and  C_5
REMARK    5  A    between atoms: C_5  and  C_6
REMARK    6  A    between atoms: C_6  and  C_7
REMARK    7  A    between atoms: C_7  and  C_8
REMARK    8  A    between atoms: C_8  and  C_9
REMARK    9  A    between atoms: C_9  and  C_10
REMARK   10  A    between atoms: C_10  and  C_11
REMARK   11  A    between atoms: C_11  and  C_12
REMARK   12  A    between atoms: C_12  and  C_13
REMARK   13  A    between atoms: C_13  and  C_14
REMARK   14  A    between atoms: C_14  and  C_15
REMARK   15  A    between atoms: C_15  and  C_16
REMARK   16  A    between atoms: C_16  and  C_17
REMARK   17  A    between atoms: C_18  and  C_19
REMARK   18  A    between atoms: C_19  and  O_21
REMARK   19  A    between atoms: O_21  and  C_22
REMARK                            x       y       z     vdW  Elec       q    Type
REMARK                         _______ _______ _______ _____ _____    ______ ____
ROOT
ATOM      1  C   UNL     1       1.921   2.359  18.184  0.00  0.00    +0.000 C 
ENDROOT
BRANCH   1   2
ATOM      2  C   UNL     1       3.286   2.695  18.763  0.00  0.00    +0.000 C 
BRANCH   2   3
ATOM      3  C   UNL     1       4.306   2.849  17.647  0.00  0.00    +0.000 C 
BRANCH   3   4
ATOM      4  C   UNL     1       4.755   4.299  17.534  0.00  0.00    +0.000 C 
BRANCH   4   5
ATOM      5  C   UNL     1       5.516   4.534  16.267  0.00  0.00    +0.000 C 
ATOM      6  C   UNL     1       6.561   5.373  16.092  0.00  0.00    +0.000 C 
ATOM      7  C   UNL     1       6.997   5.094  14.706  0.00  0.00    +0.000 C 
ATOM      8  O   UNL     1       8.050   5.513  14.239  0.00  0.00    +0.000 OA
ATOM      9  C   UNL     1       6.021   4.243  13.949  0.00  0.00    +0.000 C 
ATOM     10  C   UNL     1       5.140   3.706  15.062  0.00  0.00    +0.000 C 
BRANCH   6  11
ATOM     11  C   UNL     1       7.195   6.323  17.064  0.00  0.00    +0.000 C 
ATOM     12  O   UNL     1       7.055   7.528  17.030  0.00  0.00    +0.000 OA
BRANCH  11  13
ATOM     13  O   UNL     1       7.947   5.662  17.996  0.00  0.00    +0.000 OA
ATOM     14  C   UNL     1       7.445   5.708  19.350  0.00  0.00    +0.000 C 
ENDBRANCH  11  13
ENDBRANCH   6  11
ENDBRANCH   4   5
ENDBRANCH   3   4
ENDBRANCH   2   3
ENDBRANCH   1   2
BRANCH   1  15
ATOM     15  C   UNL     1       0.842   2.582  19.218  0.00  0.00    +0.000 C 
BRANCH  15  16
ATOM     16  C   UNL     1       1.390   3.419  20.359  0.00  0.00    +0.000 C 
BRANCH  16  17
ATOM     17  C   UNL     1       1.084   4.883  20.113  0.00  0.00    +0.000 C 
BRANCH  17  18
ATOM     18  C   UNL     1       2.209   5.742  20.654  0.00  0.00    +0.000 C 
BRANCH  18  19
ATOM     19  C   UNL     1       2.201   7.095  19.968  0.00  0.00    +0.000 C 
BRANCH  19  20
ATOM     20  C   UNL     1       2.462   6.923  18.484  0.00  0.00    +0.000 C 
BRANCH  20  21
ATOM     21  C   UNL     1       2.269   8.246  17.770  0.00  0.00    +0.000 C 
BRANCH  21  22
ATOM     22  C   UNL     1       1.538   9.220  18.674  0.00  0.00    +0.000 C 
BRANCH  22  23
ATOM     23  C   UNL     1       0.329   9.786  17.953  0.00  0.00    +0.000 C 
BRANCH  23  24
ATOM     24  C   UNL     1      -0.712  10.236  18.961  0.00  0.00    +0.000 C 
BRANCH  24  26
ATOM     25  C   UNL     1      -2.267  11.224  17.290  0.00  0.00    +0.000 C 
ATOM     26  C   UNL     1      -1.386  11.514  18.487  0.00  0.00    +0.000 C 
ENDBRANCH  24  26
ENDBRANCH  23  24
ENDBRANCH  22  23
ENDBRANCH  21  22
ENDBRANCH  20  21
ENDBRANCH  19  20
ENDBRANCH  18  19
ENDBRANCH  17  18
ENDBRANCH  16  17
ENDBRANCH  15  16
ENDBRANCH   1  15
TORSDOF 17
ENDMDL
MODEL 5
REMARK VINA RESULT:      -5.9      1.224      2.671
REMARK  Name = 
REMARK  19 active torsions:
REMARK  status: ('A' for Active; 'I' for Inactive)
REMARK    1  A    between atoms: C_1  and  C_2
REMARK    2  A    between atoms: C_2  and  C_3
REMARK    3  A    between atoms: C_3  and  C_4
REMARK    4  A    between atoms: C_4  and  C_5
REMARK    5  A    between atoms: C_5  and  C_6
REMARK    6  A    between atoms: C_6  and  C_7
REMARK    7  A    between atoms: C_7  and  C_8
REMARK    8  A    between atoms: C_8  and  C_9
REMARK    9  A    between atoms: C_9  and  C_10
REMARK   10  A    between atoms: C_10  and  C_11
REMARK   11  A    between atoms: C_11  and  C_12
REMARK   12  A    between atoms: C_12  and  C_13
REMARK   13  A    between atoms: C_13  and  C_14
REMARK   14  A    between atoms: C_14  and  C_15
REMARK   15  A    between atoms: C_15  and  C_16
REMARK   16  A    between atoms: C_16  and  C_17
REMARK   17  A    between atoms: C_18  and  C_19
REMARK   18  A    between atoms: C_19  and  O_21
REMARK   19  A    between atoms: O_21  and  C_22
REMARK                            x       y       z     vdW  Elec       q    Type
REMARK                         _______ _______ _______ _____ _____    ______ ____
ROOT
ATOM      1  C   UNL     1       1.425   3.053  18.217  0.00  0.00    +0.000 C 
ENDROOT
BRANCH   1   2
ATOM      2  C   UNL     1       2.605   2.600  17.371  0.00  0.00    +0.000 C 
BRANCH   2   3
ATOM      3  C   UNL     1       3.356   3.806  16.830  0.00  0.00    +0.000 C 
BRANCH   3   4
ATOM      4  C   UNL     1       4.852   3.646  17.059  0.00  0.00    +0.000 C 
BRANCH   4   5
ATOM      5  C   UNL     1       5.636   4.129  15.879  0.00  0.00    +0.000 C 
ATOM      6  C   UNL     1       6.653   5.018  15.890  0.00  0.00    +0.000 C 
ATOM      7  C   UNL     1       7.136   5.006  14.491  0.00  0.00    +0.000 C 
ATOM      8  O   UNL     1       8.184   5.535  14.141  0.00  0.00    +0.000 OA
ATOM      9  C   UNL     1       6.212   4.273  13.564  0.00  0.00    +0.000 C 
ATOM     10  C   UNL     1       5.323   3.518  14.535  0.00  0.00    +0.000 C 
BRANCH   6  11
ATOM     11  C   UNL     1       7.226   5.799  17.036  0.00  0.00    +0.000 C 
ATOM     12  O   UNL     1       7.278   5.395  18.178  0.00  0.00    +0.000 OA
BRANCH  11  13
ATOM     13  O   UNL     1       7.686   7.023  16.631  0.00  0.00    +0.000 OA
ATOM     14  C   UNL     1       7.700   8.051  17.645  0.00  0.00    +0.000 C 
ENDBRANCH  11  13
ENDBRANCH   6  11
ENDBRANCH   4   5
ENDBRANCH   3   4
ENDBRANCH   2   3
ENDBRANCH   1   2
BRANCH   1  15
ATOM     15  C   UNL     1       1.777   2.990  19.685  0.00  0.00    +0.000 C 
BRANCH  15  16
ATOM     16  C   UNL     1       0.921   3.972  20.462  0.00  0.00    +0.000 C 
BRANCH  16  17
ATOM     17  C   UNL     1       1.662   5.285  20.618  0.00  0.00    +0.000 C 
BRANCH  17  18
ATOM     18  C   UNL     1       3.130   5.089  20.294  0.00  0.00    +0.000 C 
BRANCH  18  19
ATOM     19  C   UNL     1       3.591   6.159  19.322  0.00  0.00    +0.000 C 
BRANCH  19  20
ATOM     20  C   UNL     1       2.502   7.198  19.144  0.00  0.00    +0.000 C 
BRANCH  20  21
ATOM     21  C   UNL     1       2.681   7.912  17.819  0.00  0.00    +0.000 C 
BRANCH  21  22
ATOM     22  C   UNL     1       1.953   9.242  17.846  0.00  0.00    +0.000 C 
BRANCH  22  23
ATOM     23  C   UNL     1       1.128   9.353  19.115  0.00  0.00    +0.000 C 
BRANCH  23  24
ATOM     24  C   UNL     1      -0.095  10.215  18.864  0.00  0.00    +0.000 C 
BRANCH  24  26
ATOM     25  C   UNL     1       0.665  12.117  20.274  0.00  0.00    +0.000 C 
ATOM     26  C   UNL     1       0.287  11.686  18.873  0.00  0.00    +0.000 C 
ENDBRANCH  24  26
ENDBRANCH  23  24
ENDBRANCH  22  23
ENDBRANCH  21  22
ENDBRANCH  20  21
ENDBRANCH  19  20
ENDBRANCH  18  19
ENDBRANCH  17  18
ENDBRANCH  16  17
ENDBRANCH  15  16
ENDBRANCH   1  15
TORSDOF 17
ENDMDL
MODEL 6
REMARK VINA RESULT:      -5.9      4.095      8.066
REMARK  Name = 
REMARK  19 active torsions:
REMARK  status: ('A' for Active; 'I' for Inactive)
REMARK    1  A    between atoms: C_1  and  C_2
REMARK    2  A    between atoms: C_2  and  C_3
REMARK    3  A    between atoms: C_3  and  C_4
REMARK    4  A    between atoms: C_4  and  C_5
REMARK    5  A    between atoms: C_5  and  C_6
REMARK    6  A    between atoms: C_6  and  C_7
REMARK    7  A    between atoms: C_7  and  C_8
REMARK    8  A    between atoms: C_8  and  C_9
REMARK    9  A    between atoms: C_9  and  C_10
REMARK   10  A    between atoms: C_10  and  C_11
REMARK   11  A    between atoms: C_11  and  C_12
REMARK   12  A    between atoms: C_12  and  C_13
REMARK   13  A    between atoms: C_13  and  C_14
REMARK   14  A    between atoms: C_14  and  C_15
REMARK   15  A    between atoms: C_15  and  C_16
REMARK   16  A    between atoms: C_16  and  C_17
REMARK   17  A    between atoms: C_18  and  C_19
REMARK   18  A    between atoms: C_19  and  O_21
REMARK   19  A    between atoms: O_21  and  C_22
REMARK                            x       y       z     vdW  Elec       q    Type
REMARK                         _______ _______ _______ _____ _____    ______ ____
ROOT
ATOM      1  C   UNL     1       3.546   6.993  17.635  0.00  0.00    +0.000 C 
ENDROOT
BRANCH   1   2
ATOM      2  C   UNL     1       3.015   8.417  17.570  0.00  0.00    +0.000 C 
BRANCH   2   3
ATOM      3  C   UNL     1       1.582   8.465  18.073  0.00  0.00    +0.000 C 
BRANCH   3   4
ATOM      4  C   UNL     1       1.433   9.532  19.148  0.00  0.00    +0.000 C 
BRANCH   4   5
ATOM      5  C   UNL     1       0.105  10.217  19.053  0.00  0.00    +0.000 C 
ATOM      6  C   UNL     1      -0.473  11.000  19.990  0.00  0.00    +0.000 C 
ATOM      7  C   UNL     1      -1.684  11.512  19.311  0.00  0.00    +0.000 C 
ATOM      8  O   UNL     1      -2.372  12.419  19.765  0.00  0.00    +0.000 OA
ATOM      9  C   UNL     1      -1.965  10.809  18.016  0.00  0.00    +0.000 C 
ATOM     10  C   UNL     1      -0.654  10.092  17.755  0.00  0.00    +0.000 C 
BRANCH   6  11
ATOM     11  C   UNL     1       0.002  11.344  21.371  0.00  0.00    +0.000 C 
ATOM     12  O   UNL     1       0.982  12.018  21.607  0.00  0.00    +0.000 OA
BRANCH  11  13
ATOM     13  O   UNL     1      -0.811  10.807  22.331  0.00  0.00    +0.000 OA
ATOM     14  C   UNL     1      -0.298   9.632  22.997  0.00  0.00    +0.000 C 
ENDBRANCH  11  13
ENDBRANCH   6  11
ENDBRANCH   4   5
ENDBRANCH   3   4
ENDBRANCH   2   3
ENDBRANCH   1   2
BRANCH   1  15
ATOM     15  C   UNL     1       5.053   6.989  17.522  0.00  0.00    +0.000 C 
BRANCH  15  16
ATOM     16  C   UNL     1       5.596   5.637  17.944  0.00  0.00    +0.000 C 
BRANCH  16  17
ATOM     17  C   UNL     1       4.768   5.088  19.089  0.00  0.00    +0.000 C 
BRANCH  17  18
ATOM     18  C   UNL     1       4.592   3.591  18.925  0.00  0.00    +0.000 C 
BRANCH  18  19
ATOM     19  C   UNL     1       4.206   3.271  17.493  0.00  0.00    +0.000 C 
BRANCH  19  20
ATOM     20  C   UNL     1       2.697   3.194  17.370  0.00  0.00    +0.000 C 
BRANCH  20  21
ATOM     21  C   UNL     1       2.167   2.065  18.231  0.00  0.00    +0.000 C 
BRANCH  21  22
ATOM     22  C   UNL     1       1.112   2.594  19.185  0.00  0.00    +0.000 C 
BRANCH  22  23
ATOM     23  C   UNL     1       1.581   2.425  20.618  0.00  0.00    +0.000 C 
BRANCH  23  24
ATOM     24  C   UNL     1       1.824   3.785  21.247  0.00  0.00    +0.000 C 
BRANCH  24  26
ATOM     25  C   UNL     1       1.753   6.232  20.807  0.00  0.00    +0.000 C 
ATOM     26  C   UNL     1       1.219   4.880  20.383  0.00  0.00    +0.000 C 
ENDBRANCH  24  26
ENDBRANCH  23  24
ENDBRANCH  22  23
ENDBRANCH  21  22
ENDBRANCH  20  21
ENDBRANCH  19  20
ENDBRANCH  18  19
ENDBRANCH  17  18
ENDBRANCH  16  17
ENDBRANCH  15  16
ENDBRANCH   1  15
TORSDOF 17
ENDMDL
MODEL 7
REMARK VINA RESULT:      -5.8      3.630      8.013
REMARK  Name = 
REMARK  19 active torsions:
REMARK  status: ('A' for Active; 'I' for Inactive)
REMARK    1  A    between atoms: C_1  and  C_2
REMARK    2  A    between atoms: C_2  and  C_3
REMARK    3  A    between atoms: C_3  and  C_4
REMARK    4  A    between atoms: C_4  and  C_5
REMARK    5  A    between atoms: C_5  and  C_6
REMARK    6  A    between atoms: C_6  and  C_7
REMARK    7  A    between atoms: C_7  and  C_8
REMARK    8  A    between atoms: C_8  and  C_9
REMARK    9  A    between atoms: C_9  and  C_10
REMARK   10  A    between atoms: C_10  and  C_11
REMARK   11  A    between atoms: C_11  and  C_12
REMARK   12  A    between atoms: C_12  and  C_13
REMARK   13  A    between atoms: C_13  and  C_14
REMARK   14  A    between atoms: C_14  and  C_15
REMARK   15  A    between atoms: C_15  and  C_16
REMARK   16  A    between atoms: C_16  and  C_17
REMARK   17  A    between atoms: C_18  and  C_19
REMARK   18  A    between atoms: C_19  and  O_21
REMARK   19  A    between atoms: O_21  and  C_22
REMARK                            x       y       z     vdW  Elec       q    Type
REMARK                         _______ _______ _______ _____ _____    ______ ____
ROOT
ATOM      1  C   UNL     1       1.155   3.528  20.076  0.00  0.00    +0.000 C 
ENDROOT
BRANCH   1   2
ATOM      2  C   UNL     1       2.124   4.546  20.656  0.00  0.00    +0.000 C 
BRANCH   2   3
ATOM      3  C   UNL     1       2.061   5.841  19.864  0.00  0.00    +0.000 C 
BRANCH   3   4
ATOM      4  C   UNL     1       1.909   7.031  20.801  0.00  0.00    +0.000 C 
BRANCH   4   5
ATOM      5  C   UNL     1       1.457   8.251  20.061  0.00  0.00    +0.000 C 
ATOM      6  C   UNL     1       0.628   9.216  20.517  0.00  0.00    +0.000 C 
ATOM      7  C   UNL     1       0.648  10.226  19.437  0.00  0.00    +0.000 C 
ATOM      8  O   UNL     1       0.176  11.350  19.563  0.00  0.00    +0.000 OA
ATOM      9  C   UNL     1       1.313   9.728  18.187  0.00  0.00    +0.000 C 
ATOM     10  C   UNL     1       2.028   8.485  18.684  0.00  0.00    +0.000 C 
BRANCH   6  11
ATOM     11  C   UNL     1      -0.102   9.307  21.825  0.00  0.00    +0.000 C 
ATOM     12  O   UNL     1      -0.836   8.444  22.258  0.00  0.00    +0.000 OA
BRANCH  11  13
ATOM     13  O   UNL     1       0.167  10.483  22.471  0.00  0.00    +0.000 OA
ATOM     14  C   UNL     1      -0.987  11.232  22.909  0.00  0.00    +0.000 C 
ENDBRANCH  11  13
ENDBRANCH   6  11
ENDBRANCH   4   5
ENDBRANCH   3   4
ENDBRANCH   2   3
ENDBRANCH   1   2
BRANCH   1  15
ATOM     15  C   UNL     1       1.296   3.466  18.573  0.00  0.00    +0.000 C 
BRANCH  15  16
ATOM     16  C   UNL     1       2.564   2.718  18.206  0.00  0.00    +0.000 C 
BRANCH  16  17
ATOM     17  C   UNL     1       3.222   3.381  17.012  0.00  0.00    +0.000 C 
BRANCH  17  18
ATOM     18  C   UNL     1       4.567   3.953  17.418  0.00  0.00    +0.000 C 
BRANCH  18  19
ATOM     19  C   UNL     1       4.512   5.468  17.390  0.00  0.00    +0.000 C 
BRANCH  19  20
ATOM     20  C   UNL     1       5.065   5.980  16.074  0.00  0.00    +0.000 C 
BRANCH  20  21
ATOM     21  C   UNL     1       6.385   5.301  15.769  0.00  0.00    +0.000 C 
BRANCH  21  22
ATOM     22  C   UNL     1       6.471   4.978  14.289  0.00  0.00    +0.000 C 
BRANCH  22  23
ATOM     23  C   UNL     1       6.106   3.523  14.058  0.00  0.00    +0.000 C 
BRANCH  23  24
ATOM     24  C   UNL     1       6.017   3.242  12.569  0.00  0.00    +0.000 C 
BRANCH  24  26
ATOM     25  C   UNL     1       3.989   3.041  11.143  0.00  0.00    +0.000 C 
ATOM     26  C   UNL     1       4.841   3.989  11.962  0.00  0.00    +0.000 C 
ENDBRANCH  24  26
ENDBRANCH  23  24
ENDBRANCH  22  23
ENDBRANCH  21  22
ENDBRANCH  20  21
ENDBRANCH  19  20
ENDBRANCH  18  19
ENDBRANCH  17  18
ENDBRANCH  16  17
ENDBRANCH  15  16
ENDBRANCH   1  15
TORSDOF 17
ENDMDL
MODEL 8
REMARK VINA RESULT:      -5.8      4.044      8.299
REMARK  Name = 
REMARK  19 active torsions:
REMARK  status: ('A' for Active; 'I' for Inactive)
REMARK    1  A    between atoms: C_1  and  C_2
REMARK    2  A    between atoms: C_2  and  C_3
REMARK    3  A    between atoms: C_3  and  C_4
REMARK    4  A    between atoms: C_4  and  C_5
REMARK    5  A    between atoms: C_5  and  C_6
REMARK    6  A    between atoms: C_6  and  C_7
REMARK    7  A    between atoms: C_7  and  C_8
REMARK    8  A    between atoms: C_8  and  C_9
REMARK    9  A    between atoms: C_9  and  C_10
REMARK   10  A    between atoms: C_10  and  C_11
REMARK   11  A    between atoms: C_11  and  C_12
REMARK   12  A    between atoms: C_12  and  C_13
REMARK   13  A    between atoms: C_13  and  C_14
REMARK   14  A    between atoms: C_14  and  C_15
REMARK   15  A    between atoms: C_15  and  C_16
REMARK   16  A    between atoms: C_16  and  C_17
REMARK   17  A    between atoms: C_18  and  C_19
REMARK   18  A    between atoms: C_19  and  O_21
REMARK   19  A    between atoms: O_21  and  C_22
REMARK                            x       y       z     vdW  Elec       q    Type
REMARK                         _______ _______ _______ _____ _____    ______ ____
ROOT
ATOM      1  C   UNL     1       3.230   7.124  17.723  0.00  0.00    +0.000 C 
ENDROOT
BRANCH   1   2
ATOM      2  C   UNL     1       2.855   8.596  17.651  0.00  0.00    +0.000 C 
BRANCH   2   3
ATOM      3  C   UNL     1       1.365   8.770  17.892  0.00  0.00    +0.000 C 
BRANCH   3   4
ATOM      4  C   UNL     1       1.119   9.497  19.206  0.00  0.00    +0.000 C 
BRANCH   4   5
ATOM      5  C   UNL     1      -0.167  10.261  19.172  0.00  0.00    +0.000 C 
ATOM      6  C   UNL     1      -0.613  11.141  20.096  0.00  0.00    +0.000 C 
ATOM      7  C   UNL     1      -1.845  11.687  19.485  0.00  0.00    +0.000 C 
ATOM      8  O   UNL     1      -2.434  12.666  19.927  0.00  0.00    +0.000 OA
ATOM      9  C   UNL     1      -2.280  10.921  18.270  0.00  0.00    +0.000 C 
ATOM     10  C   UNL     1      -1.042  10.103  17.953  0.00  0.00    +0.000 C 
BRANCH   6  11
ATOM     11  C   UNL     1       0.000  11.543  21.405  0.00  0.00    +0.000 C 
ATOM     12  O   UNL     1       0.992  12.232  21.510  0.00  0.00    +0.000 OA
BRANCH  11  13
ATOM     13  O   UNL     1      -0.701  11.037  22.465  0.00  0.00    +0.000 OA
ATOM     14  C   UNL     1      -0.245   9.761  22.964  0.00  0.00    +0.000 C 
ENDBRANCH  11  13
ENDBRANCH   6  11
ENDBRANCH   4   5
ENDBRANCH   3   4
ENDBRANCH   2   3
ENDBRANCH   1   2
BRANCH   1  15
ATOM     15  C   UNL     1       4.716   6.950  17.516  0.00  0.00    +0.000 C 
BRANCH  15  16
ATOM     16  C   UNL     1       4.997   6.625  16.061  0.00  0.00    +0.000 C 
BRANCH  16  17
ATOM     17  C   UNL     1       5.820   5.355  15.970  0.00  0.00    +0.000 C 
BRANCH  17  18
ATOM     18  C   UNL     1       4.902   4.157  15.825  0.00  0.00    +0.000 C 
BRANCH  18  19
ATOM     19  C   UNL     1       4.694   3.500  17.176  0.00  0.00    +0.000 C 
BRANCH  19  20
ATOM     20  C   UNL     1       3.211   3.397  17.476  0.00  0.00    +0.000 C 
BRANCH  20  21
ATOM     21  C   UNL     1       2.905   2.054  18.109  0.00  0.00    +0.000 C 
BRANCH  21  22
ATOM     22  C   UNL     1       1.463   2.021  18.580  0.00  0.00    +0.000 C 
BRANCH  22  23
ATOM     23  C   UNL     1       1.054   3.394  19.081  0.00  0.00    +0.000 C 
BRANCH  23  24
ATOM     24  C   UNL     1       1.068   3.416  20.599  0.00  0.00    +0.000 C 
BRANCH  24  26
ATOM     25  C   UNL     1       1.874   5.769  20.596  0.00  0.00    +0.000 C 
ATOM     26  C   UNL     1       2.143   4.367  21.101  0.00  0.00    +0.000 C 
ENDBRANCH  24  26
ENDBRANCH  23  24
ENDBRANCH  22  23
ENDBRANCH  21  22
ENDBRANCH  20  21
ENDBRANCH  19  20
ENDBRANCH  18  19
ENDBRANCH  17  18
ENDBRANCH  16  17
ENDBRANCH  15  16
ENDBRANCH   1  15
TORSDOF 17
ENDMDL
MODEL 9
REMARK VINA RESULT:      -5.7      1.244      1.981
REMARK  Name = 
REMARK  19 active torsions:
REMARK  status: ('A' for Active; 'I' for Inactive)
REMARK    1  A    between atoms: C_1  and  C_2
REMARK    2  A    between atoms: C_2  and  C_3
REMARK    3  A    between atoms: C_3  and  C_4
REMARK    4  A    between atoms: C_4  and  C_5
REMARK    5  A    between atoms: C_5  and  C_6
REMARK    6  A    between atoms: C_6  and  C_7
REMARK    7  A    between atoms: C_7  and  C_8
REMARK    8  A    between atoms: C_8  and  C_9
REMARK    9  A    between atoms: C_9  and  C_10
REMARK   10  A    between atoms: C_10  and  C_11
REMARK   11  A    between atoms: C_11  and  C_12
REMARK   12  A    between atoms: C_12  and  C_13
REMARK   13  A    between atoms: C_13  and  C_14
REMARK   14  A    between atoms: C_14  and  C_15
REMARK   15  A    between atoms: C_15  and  C_16
REMARK   16  A    between atoms: C_16  and  C_17
REMARK   17  A    between atoms: C_18  and  C_19
REMARK   18  A    between atoms: C_19  and  O_21
REMARK   19  A    between atoms: O_21  and  C_22
REMARK                            x       y       z     vdW  Elec       q    Type
REMARK                         _______ _______ _______ _____ _____    ______ ____
ROOT
ATOM      1  C   UNL     1       2.209   1.927  18.019  0.00  0.00    +0.000 C 
ENDROOT
BRANCH   1   2
ATOM      2  C   UNL     1       3.583   2.437  18.426  0.00  0.00    +0.000 C 
BRANCH   2   3
ATOM      3  C   UNL     1       4.204   3.232  17.290  0.00  0.00    +0.000 C 
BRANCH   3   4
ATOM      4  C   UNL     1       4.076   4.726  17.554  0.00  0.00    +0.000 C 
BRANCH   4   5
ATOM      5  C   UNL     1       5.418   5.366  17.716  0.00  0.00    +0.000 C 
ATOM      6  C   UNL     1       6.117   6.034  16.771  0.00  0.00    +0.000 C 
ATOM      7  C   UNL     1       7.282   6.563  17.515  0.00  0.00    +0.000 C 
ATOM      8  O   UNL     1       8.051   7.396  17.050  0.00  0.00    +0.000 OA
ATOM      9  C   UNL     1       7.408   5.977  18.891  0.00  0.00    +0.000 C 
ATOM     10  C   UNL     1       6.046   5.338  19.088  0.00  0.00    +0.000 C 
BRANCH   6  11
ATOM     11  C   UNL     1       5.791   6.262  15.325  0.00  0.00    +0.000 C 
ATOM     12  O   UNL     1       4.914   7.003  14.933  0.00  0.00    +0.000 OA
BRANCH  11  13
ATOM     13  O   UNL     1       6.607   5.534  14.503  0.00  0.00    +0.000 OA
ATOM     14  C   UNL     1       6.193   4.172  14.261  0.00  0.00    +0.000 C 
ENDBRANCH  11  13
ENDBRANCH   6  11
ENDBRANCH   4   5
ENDBRANCH   3   4
ENDBRANCH   2   3
ENDBRANCH   1   2
BRANCH   1  15
ATOM     15  C   UNL     1       1.192   2.246  19.089  0.00  0.00    +0.000 C 
BRANCH  15  16
ATOM     16  C   UNL     1       1.145   3.744  19.323  0.00  0.00    +0.000 C 
BRANCH  16  17
ATOM     17  C   UNL     1       1.329   4.038  20.798  0.00  0.00    +0.000 C 
BRANCH  17  18
ATOM     18  C   UNL     1       1.745   5.484  20.987  0.00  0.00    +0.000 C 
BRANCH  18  19
ATOM     19  C   UNL     1       2.029   6.119  19.639  0.00  0.00    +0.000 C 
BRANCH  19  20
ATOM     20  C   UNL     1       2.129   7.624  19.789  0.00  0.00    +0.000 C 
BRANCH  20  21
ATOM     21  C   UNL     1       1.434   8.064  21.062  0.00  0.00    +0.000 C 
BRANCH  21  22
ATOM     22  C   UNL     1       0.328   9.048  20.734  0.00  0.00    +0.000 C 
BRANCH  22  23
ATOM     23  C   UNL     1       0.855  10.125  19.804  0.00  0.00    +0.000 C 
BRANCH  23  24
ATOM     24  C   UNL     1      -0.050  10.253  18.593  0.00  0.00    +0.000 C 
BRANCH  24  26
ATOM     25  C   UNL     1       0.192  12.728  18.582  0.00  0.00    +0.000 C 
ATOM     26  C   UNL     1      -0.793  11.579  18.629  0.00  0.00    +0.000 C 
ENDBRANCH  24  26
ENDBRANCH  23  24
ENDBRANCH  22  23
ENDBRANCH  21  22
ENDBRANCH  20  21
ENDBRANCH  19  20
ENDBRANCH  18  19
ENDBRANCH  17  18
ENDBRANCH  16  17
ENDBRANCH  15  16
ENDBRANCH   1  15
TORSDOF 17
ENDMDL
