MODEL 1
REMARK VINA RESULT:      -4.5      0.000      0.000
REMARK  Name = 
REMARK  4 active torsions:
REMARK  status: ('A' for Active; 'I' for Inactive)
REMARK    1  A    between atoms: C_1  and  C_2
REMARK    2  A    between atoms: C_2  and  C_3
REMARK    3  A    between atoms: C_3  and  C_4
REMARK    4  A    between atoms: C_4  and  N_5
REMARK                            x       y       z     vdW  Elec       q    Type
REMARK                         _______ _______ _______ _____ _____    ______ ____
ROOT
ATOM      1  N   UNL     1       3.566   3.577  18.517  0.00  0.00    +0.000 N 
ATOM      2  C   UNL     1       4.632   3.769  19.325  0.00  0.00    +0.000 A 
ATOM      3  C   UNL     1       5.480   4.856  19.131  0.00  0.00    +0.000 A 
ATOM      4  C   UNL     1       5.232   5.738  18.085  0.00  0.00    +0.000 A 
ATOM      5  C   UNL     1       4.147   5.517  17.254  0.00  0.00    +0.000 A 
ATOM      6  C   UNL     1       3.314   4.430  17.495  0.00  0.00    +0.000 A 
ENDROOT
BRANCH   1   7
ATOM      7  C   UNL     1       2.612   2.478  18.806  0.00  0.00    +0.000 C 
BRANCH   7   8
ATOM      8  C   UNL     1       1.209   3.025  19.020  0.00  0.00    +0.000 C 
BRANCH   8  10
ATOM      9  C   UNL     1       1.646   2.775  21.523  0.00  0.00    +0.000 C 
ATOM     10  C   UNL     1       1.044   3.623  20.414  0.00  0.00    +0.000 C 
ENDBRANCH   8  10
ENDBRANCH   7   8
ENDBRANCH   1   7
TORSDOF 3
ENDMDL
MODEL 2
REMARK VINA RESULT:      -4.5      1.578      2.195
REMARK  Name = 
REMARK  4 active torsions:
REMARK  status: ('A' for Active; 'I' for Inactive)
REMARK    1  A    between atoms: C_1  and  C_2
REMARK    2  A    between atoms: C_2  and  C_3
REMARK    3  A    between atoms: C_3  and  C_4
REMARK    4  A    between atoms: C_4  and  N_5
REMARK                            x       y       z     vdW  Elec       q    Type
REMARK                         _______ _______ _______ _____ _____    ______ ____
ROOT
ATOM      1  N   UNL     1       3.665   5.088  17.624  0.00  0.00    +0.000 N 
ATOM      2  C   UNL     1       4.092   6.346  17.381  0.00  0.00    +0.000 A 
ATOM      3  C   UNL     1       5.034   6.594  16.385  0.00  0.00    +0.000 A 
ATOM      4  C   UNL     1       5.547   5.531  15.650  0.00  0.00    +0.000 A 
ATOM      5  C   UNL     1       5.115   4.245  15.925  0.00  0.00    +0.000 A 
ATOM      6  C   UNL     1       4.158   4.044  16.914  0.00  0.00    +0.000 A 
ENDROOT
BRANCH   1   7
ATOM      7  C   UNL     1       2.582   4.856  18.611  0.00  0.00    +0.000 C 
BRANCH   7   8
ATOM      8  C   UNL     1       1.486   3.986  18.013  0.00  0.00    +0.000 C 
BRANCH   8  10
ATOM      9  C   UNL     1       1.078   3.335  20.448  0.00  0.00    +0.000 C 
ATOM     10  C   UNL     1       1.027   2.907  18.990  0.00  0.00    +0.000 C 
ENDBRANCH   8  10
ENDBRANCH   7   8
ENDBRANCH   1   7
TORSDOF 3
ENDMDL
MODEL 3
REMARK VINA RESULT:      -4.5      0.969      4.164
REMARK  Name = 
REMARK  4 active torsions:
REMARK  status: ('A' for Active; 'I' for Inactive)
REMARK    1  A    between atoms: C_1  and  C_2
REMARK    2  A    between atoms: C_2  and  C_3
REMARK    3  A    between atoms: C_3  and  C_4
REMARK    4  A    between atoms: C_4  and  N_5
REMARK                            x       y       z     vdW  Elec       q    Type
REMARK                         _______ _______ _______ _____ _____    ______ ____
ROOT
ATOM      1  N   UNL     1       3.024   3.093  19.103  0.00  0.00    +0.000 N 
ATOM      2  C   UNL     1       1.724   3.410  18.917  0.00  0.00    +0.000 A 
ATOM      3  C   UNL     1       0.827   3.373  19.982  0.00  0.00    +0.000 A 
ATOM      4  C   UNL     1       1.276   2.989  21.240  0.00  0.00    +0.000 A 
ATOM      5  C   UNL     1       2.607   2.647  21.411  0.00  0.00    +0.000 A 
ATOM      6  C   UNL     1       3.473   2.717  20.326  0.00  0.00    +0.000 A 
ENDROOT
BRANCH   1   7
ATOM      7  C   UNL     1       3.987   3.245  17.985  0.00  0.00    +0.000 C 
BRANCH   7   8
ATOM      8  C   UNL     1       3.910   4.645  17.394  0.00  0.00    +0.000 C 
BRANCH   8  10
ATOM      9  C   UNL     1       5.855   5.290  18.916  0.00  0.00    +0.000 C 
ATOM     10  C   UNL     1       4.508   5.687  18.334  0.00  0.00    +0.000 C 
ENDBRANCH   8  10
ENDBRANCH   7   8
ENDBRANCH   1   7
TORSDOF 3
ENDMDL
MODEL 4
REMARK VINA RESULT:      -4.5      1.319      4.627
REMARK  Name = 
REMARK  4 active torsions:
REMARK  status: ('A' for Active; 'I' for Inactive)
REMARK    1  A    between atoms: C_1  and  C_2
REMARK    2  A    between atoms: C_2  and  C_3
REMARK    3  A    between atoms: C_3  and  C_4
REMARK    4  A    between atoms: C_4  and  N_5
REMARK                            x       y       z     vdW  Elec       q    Type
REMARK                         _______ _______ _______ _____ _____    ______ ____
ROOT
ATOM      1  N   UNL     1       3.307   3.400  19.371  0.00  0.00    +0.000 N 
ATOM      2  C   UNL     1       2.108   3.949  19.076  0.00  0.00    +0.000 A 
ATOM      3  C   UNL     1       1.048   3.859  19.975  0.00  0.00    +0.000 A 
ATOM      4  C   UNL     1       1.227   3.182  21.176  0.00  0.00    +0.000 A 
ATOM      5  C   UNL     1       2.455   2.607  21.455  0.00  0.00    +0.000 A 
ATOM      6  C   UNL     1       3.493   2.738  20.539  0.00  0.00    +0.000 A 
ENDROOT
BRANCH   1   7
ATOM      7  C   UNL     1       4.455   3.601  18.453  0.00  0.00    +0.000 C 
BRANCH   7   8
ATOM      8  C   UNL     1       4.070   4.519  17.302  0.00  0.00    +0.000 C 
BRANCH   8  10
ATOM      9  C   UNL     1       5.431   5.668  15.473  0.00  0.00    +0.000 C 
ATOM     10  C   UNL     1       5.009   4.354  16.111  0.00  0.00    +0.000 C 
ENDBRANCH   8  10
ENDBRANCH   7   8
ENDBRANCH   1   7
TORSDOF 3
ENDMDL
MODEL 5
REMARK VINA RESULT:      -4.5      0.575      1.680
REMARK  Name = 
REMARK  4 active torsions:
REMARK  status: ('A' for Active; 'I' for Inactive)
REMARK    1  A    between atoms: C_1  and  C_2
REMARK    2  A    between atoms: C_2  and  C_3
REMARK    3  A    between atoms: C_3  and  C_4
REMARK    4  A    between atoms: C_4  and  N_5
REMARK                            x       y       z     vdW  Elec       q    Type
REMARK                         _______ _______ _______ _____ _____    ______ ____
ROOT
ATOM      1  N   UNL     1       3.696   3.373  18.407  0.00  0.00    +0.000 N 
ATOM      2  C   UNL     1       3.353   4.259  17.447  0.00  0.00    +0.000 A 
ATOM      3  C   UNL     1       4.081   5.434  17.275  0.00  0.00    +0.000 A 
ATOM      4  C   UNL     1       5.159   5.698  18.111  0.00  0.00    +0.000 A 
ATOM      5  C   UNL     1       5.487   4.790  19.104  0.00  0.00    +0.000 A 
ATOM      6  C   UNL     1       4.745   3.620  19.229  0.00  0.00    +0.000 A 
ENDROOT
BRANCH   1   7
ATOM      7  C   UNL     1       2.979   2.078  18.504  0.00  0.00    +0.000 C 
BRANCH   7   8
ATOM      8  C   UNL     1       1.503   2.300  18.798  0.00  0.00    +0.000 C 
BRANCH   8  10
ATOM      9  C   UNL     1       1.012   4.192  20.441  0.00  0.00    +0.000 C 
ATOM     10  C   UNL     1       1.272   2.706  20.250  0.00  0.00    +0.000 C 
ENDBRANCH   8  10
ENDBRANCH   7   8
ENDBRANCH   1   7
TORSDOF 3
ENDMDL
MODEL 6
REMARK VINA RESULT:      -4.5      1.376      1.639
REMARK  Name = 
REMARK  4 active torsions:
REMARK  status: ('A' for Active; 'I' for Inactive)
REMARK    1  A    between atoms: C_1  and  C_2
REMARK    2  A    between atoms: C_2  and  C_3
REMARK    3  A    between atoms: C_3  and  C_4
REMARK    4  A    between atoms: C_4  and  N_5
REMARK                            x       y       z     vdW  Elec       q    Type
REMARK                         _______ _______ _______ _____ _____    ______ ____
ROOT
ATOM      1  N   UNL     1       3.594   4.450  17.782  0.00  0.00    +0.000 N 
ATOM      2  C   UNL     1       4.407   3.988  16.808  0.00  0.00    +0.000 A 
ATOM      3  C   UNL     1       5.168   4.868  16.044  0.00  0.00    +0.000 A 
ATOM      4  C   UNL     1       5.074   6.235  16.279  0.00  0.00    +0.000 A 
ATOM      5  C   UNL     1       4.221   6.696  17.268  0.00  0.00    +0.000 A 
ATOM      6  C   UNL     1       3.493   5.781  18.021  0.00  0.00    +0.000 A 
ENDROOT
BRANCH   1   7
ATOM      7  C   UNL     1       2.875   3.493  18.659  0.00  0.00    +0.000 C 
BRANCH   7   8
ATOM      8  C   UNL     1       1.420   3.903  18.825  0.00  0.00    +0.000 C 
BRANCH   8  10
ATOM      9  C   UNL     1       1.345   2.859  21.154  0.00  0.00    +0.000 C 
ATOM     10  C   UNL     1       1.048   4.078  20.294  0.00  0.00    +0.000 C 
ENDBRANCH   8  10
ENDBRANCH   7   8
ENDBRANCH   1   7
TORSDOF 3
ENDMDL
MODEL 7
REMARK VINA RESULT:      -4.5      1.304      1.597
REMARK  Name = 
REMARK  4 active torsions:
REMARK  status: ('A' for Active; 'I' for Inactive)
REMARK    1  A    between atoms: C_1  and  C_2
REMARK    2  A    between atoms: C_2  and  C_3
REMARK    3  A    between atoms: C_3  and  C_4
REMARK    4  A    between atoms: C_4  and  N_5
REMARK                            x       y       z     vdW  Elec       q    Type
REMARK                         _______ _______ _______ _____ _____    ______ ____
ROOT
ATOM      1  N   UNL     1       3.721   4.448  17.955  0.00  0.00    +0.000 N 
ATOM      2  C   UNL     1       3.660   5.772  18.214  0.00  0.00    +0.000 A 
ATOM      3  C   UNL     1       4.307   6.686  17.386  0.00  0.00    +0.000 A 
ATOM      4  C   UNL     1       5.035   6.224  16.296  0.00  0.00    +0.000 A 
ATOM      5  C   UNL     1       5.105   4.863  16.054  0.00  0.00    +0.000 A 
ATOM      6  C   UNL     1       4.427   3.986  16.894  0.00  0.00    +0.000 A 
ENDROOT
BRANCH   1   7
ATOM      7  C   UNL     1       2.936   3.498  18.780  0.00  0.00    +0.000 C 
BRANCH   7   8
ATOM      8  C   UNL     1       1.464   3.885  18.794  0.00  0.00    +0.000 C 
BRANCH   8  10
ATOM      9  C   UNL     1       1.477   2.970  21.178  0.00  0.00    +0.000 C 
ATOM     10  C   UNL     1       0.929   4.014  20.217  0.00  0.00    +0.000 C 
ENDBRANCH   8  10
ENDBRANCH   7   8
ENDBRANCH   1   7
TORSDOF 3
ENDMDL
MODEL 8
REMARK VINA RESULT:      -4.4      1.150      4.203
REMARK  Name = 
REMARK  4 active torsions:
REMARK  status: ('A' for Active; 'I' for Inactive)
REMARK    1  A    between atoms: C_1  and  C_2
REMARK    2  A    between atoms: C_2  and  C_3
REMARK    3  A    between atoms: C_3  and  C_4
REMARK    4  A    between atoms: C_4  and  N_5
REMARK                            x       y       z     vdW  Elec       q    Type
REMARK                         _______ _______ _______ _____ _____    ______ ____
ROOT
ATOM      1  N   UNL     1       2.688   3.457  18.713  0.00  0.00    +0.000 N 
ATOM      2  C   UNL     1       3.377   2.848  19.703  0.00  0.00    +0.000 A 
ATOM      3  C   UNL     1       2.826   2.725  20.977  0.00  0.00    +0.000 A 
ATOM      4  C   UNL     1       1.564   3.251  21.229  0.00  0.00    +0.000 A 
ATOM      5  C   UNL     1       0.878   3.890  20.209  0.00  0.00    +0.000 A 
ATOM      6  C   UNL     1       1.457   3.973  18.947  0.00  0.00    +0.000 A 
ENDROOT
BRANCH   1   7
ATOM      7  C   UNL     1       3.243   3.481  17.337  0.00  0.00    +0.000 C 
BRANCH   7   8
ATOM      8  C   UNL     1       4.619   4.130  17.323  0.00  0.00    +0.000 C 
BRANCH   8  10
ATOM      9  C   UNL     1       5.173   6.223  15.971  0.00  0.00    +0.000 C 
ATOM     10  C   UNL     1       4.525   5.649  17.220  0.00  0.00    +0.000 C 
ENDBRANCH   8  10
ENDBRANCH   7   8
ENDBRANCH   1   7
TORSDOF 3
ENDMDL
MODEL 9
REMARK VINA RESULT:      -4.4      2.111      4.621
REMARK  Name = 
REMARK  4 active torsions:
REMARK  status: ('A' for Active; 'I' for Inactive)
REMARK    1  A    between atoms: C_1  and  C_2
REMARK    2  A    between atoms: C_2  and  C_3
REMARK    3  A    between atoms: C_3  and  C_4
REMARK    4  A    between atoms: C_4  and  N_5
REMARK                            x       y       z     vdW  Elec       q    Type
REMARK                         _______ _______ _______ _____ _____    ______ ____
ROOT
ATOM      1  N   UNL     1       4.505   4.498  17.677  0.00  0.00    +0.000 N 
ATOM      2  C   UNL     1       3.940   3.308  17.379  0.00  0.00    +0.000 A 
ATOM      3  C   UNL     1       2.555   3.158  17.393  0.00  0.00    +0.000 A 
ATOM      4  C   UNL     1       1.754   4.242  17.734  0.00  0.00    +0.000 A 
ATOM      5  C   UNL     1       2.348   5.450  18.056  0.00  0.00    +0.000 A 
ATOM      6  C   UNL     1       3.734   5.562  18.010  0.00  0.00    +0.000 A 
ENDROOT
BRANCH   1   7
ATOM      7  C   UNL     1       5.973   4.669  17.549  0.00  0.00    +0.000 C 
BRANCH   7   8
ATOM      8  C   UNL     1       6.302   5.941  16.781  0.00  0.00    +0.000 C 
BRANCH   8  10
ATOM      9  C   UNL     1       7.825   6.177  18.817  0.00  0.00    +0.000 C 
ATOM     10  C   UNL     1       7.322   6.799  17.523  0.00  0.00    +0.000 C 
ENDBRANCH   8  10
ENDBRANCH   7   8
ENDBRANCH   1   7
TORSDOF 3
ENDMDL
