MODEL 1
REMARK VINA RESULT:      -6.4      0.000      0.000
REMARK  Name = 
REMARK  5 active torsions:
REMARK  status: ('A' for Active; 'I' for Inactive)
REMARK    1  A    between atoms: C_1  and  O_2
REMARK    2  A    between atoms: O_2  and  C_3
REMARK    3  A    between atoms: C_3  and  C_5
REMARK    4  A    between atoms: C_7  and  C_8
REMARK    5  A    between atoms: C_16  and  C_17
REMARK                            x       y       z     vdW  Elec       q    Type
REMARK                         _______ _______ _______ _____ _____    ______ ____
ROOT
ATOM      1  C   UNL     1       5.735   4.539  18.159  0.00  0.00    +0.000 A 
ATOM      2  S   UNL     1       5.201   4.026  16.612  0.00  0.00    +0.000 S 
ATOM      3  C   UNL     1       6.603   4.694  15.879  0.00  0.00    +0.000 A 
ATOM      4  N   UNL     1       7.447   5.248  16.725  0.00  0.00    +0.000 NA
ATOM      5  C   UNL     1       6.957   5.182  18.027  0.00  0.00    +0.000 A 
ATOM      6  C   UNL     1       7.783   5.778  19.111  0.00  0.00    +0.000 C 
ENDROOT
BRANCH   3   7
ATOM      7  C   UNL     1       6.818   4.601  14.423  0.00  0.00    +0.000 A 
ATOM      8  C   UNL     1       7.688   5.469  13.738  0.00  0.00    +0.000 A 
ATOM      9  C   UNL     1       7.887   5.352  12.360  0.00  0.00    +0.000 A 
ATOM     10  C   UNL     1       7.220   4.363  11.643  0.00  0.00    +0.000 A 
ATOM     11  C   UNL     1       6.362   3.491  12.309  0.00  0.00    +0.000 A 
ATOM     12 BR   UNL     1       5.468   2.140  11.334  0.00  0.00    +0.000 Br
ATOM     13  C   UNL     1       6.162   3.602  13.687  0.00  0.00    +0.000 A 
ENDBRANCH   3   7
BRANCH   1  14
ATOM     14  C   UNL     1       4.969   4.289  19.363  0.00  0.00    +0.000 C 
ATOM     15  O   UNL     1       4.905   3.217  19.952  0.00  0.00    +0.000 OA
BRANCH  14  17
ATOM     16  C   UNL     1       2.902   5.417  19.548  0.00  0.00    +0.000 C 
ATOM     17  O   UNL     1       4.310   5.418  19.769  0.00  0.00    +0.000 OA
ENDBRANCH  14  17
ENDBRANCH   1  14
TORSDOF 3
ENDMDL
MODEL 2
REMARK VINA RESULT:      -6.4      6.071      7.512
REMARK  Name = 
REMARK  5 active torsions:
REMARK  status: ('A' for Active; 'I' for Inactive)
REMARK    1  A    between atoms: C_1  and  O_2
REMARK    2  A    between atoms: O_2  and  C_3
REMARK    3  A    between atoms: C_3  and  C_5
REMARK    4  A    between atoms: C_7  and  C_8
REMARK    5  A    between atoms: C_16  and  C_17
REMARK                            x       y       z     vdW  Elec       q    Type
REMARK                         _______ _______ _______ _____ _____    ______ ____
ROOT
ATOM      1  C   UNL     1       3.253   3.850  19.884  0.00  0.00    +0.000 A 
ATOM      2  S   UNL     1       3.599   5.279  19.001  0.00  0.00    +0.000 S 
ATOM      3  C   UNL     1       2.291   6.094  19.758  0.00  0.00    +0.000 A 
ATOM      4  N   UNL     1       1.638   5.368  20.643  0.00  0.00    +0.000 NA
ATOM      5  C   UNL     1       2.165   4.082  20.713  0.00  0.00    +0.000 A 
ATOM      6  C   UNL     1       1.532   3.123  21.658  0.00  0.00    +0.000 C 
ENDROOT
BRANCH   3   7
ATOM      7  C   UNL     1       1.983   7.500  19.438  0.00  0.00    +0.000 A 
ATOM      8  C   UNL     1       2.273   8.063  18.182  0.00  0.00    +0.000 A 
ATOM      9  C   UNL     1       1.958   9.394  17.897  0.00  0.00    +0.000 A 
ATOM     10  C   UNL     1       1.346  10.186  18.864  0.00  0.00    +0.000 A 
ATOM     11  C   UNL     1       1.046   9.640  20.110  0.00  0.00    +0.000 A 
ATOM     12 BR   UNL     1       0.202  10.715  21.417  0.00  0.00    +0.000 Br
ATOM     13  C   UNL     1       1.355   8.309  20.399  0.00  0.00    +0.000 A 
ENDBRANCH   3   7
BRANCH   1  14
ATOM     14  C   UNL     1       4.034   2.639  19.733  0.00  0.00    +0.000 C 
ATOM     15  O   UNL     1       5.183   2.483  20.126  0.00  0.00    +0.000 OA
BRANCH  14  17
ATOM     16  C   UNL     1       3.070   1.923  17.698  0.00  0.00    +0.000 C 
ATOM     17  O   UNL     1       3.318   1.672  19.080  0.00  0.00    +0.000 OA
ENDBRANCH  14  17
ENDBRANCH   1  14
TORSDOF 3
ENDMDL
MODEL 3
REMARK VINA RESULT:      -6.3      2.514      3.640
REMARK  Name = 
REMARK  5 active torsions:
REMARK  status: ('A' for Active; 'I' for Inactive)
REMARK    1  A    between atoms: C_1  and  O_2
REMARK    2  A    between atoms: O_2  and  C_3
REMARK    3  A    between atoms: C_3  and  C_5
REMARK    4  A    between atoms: C_7  and  C_8
REMARK    5  A    between atoms: C_16  and  C_17
REMARK                            x       y       z     vdW  Elec       q    Type
REMARK                         _______ _______ _______ _____ _____    ______ ____
ROOT
ATOM      1  C   UNL     1       2.113   3.824  18.825  0.00  0.00    +0.000 A 
ATOM      2  S   UNL     1       3.085   3.131  17.595  0.00  0.00    +0.000 S 
ATOM      3  C   UNL     1       3.999   4.579  17.467  0.00  0.00    +0.000 A 
ATOM      4  N   UNL     1       3.634   5.528  18.305  0.00  0.00    +0.000 NA
ATOM      5  C   UNL     1       2.549   5.117  19.074  0.00  0.00    +0.000 A 
ATOM      6  C   UNL     1       1.998   6.078  20.066  0.00  0.00    +0.000 C 
ENDROOT
BRANCH   3   7
ATOM      7  C   UNL     1       5.114   4.693  16.508  0.00  0.00    +0.000 A 
ATOM      8  C   UNL     1       6.323   5.332  16.838  0.00  0.00    +0.000 A 
ATOM      9  C   UNL     1       7.371   5.415  15.918  0.00  0.00    +0.000 A 
ATOM     10  C   UNL     1       7.228   4.859  14.650  0.00  0.00    +0.000 A 
ATOM     11  C   UNL     1       6.039   4.217  14.311  0.00  0.00    +0.000 A 
ATOM     12 BR   UNL     1       5.854   3.450  12.593  0.00  0.00    +0.000 Br
ATOM     13  C   UNL     1       4.990   4.128  15.229  0.00  0.00    +0.000 A 
ENDBRANCH   3   7
BRANCH   1  14
ATOM     14  C   UNL     1       1.031   3.095  19.458  0.00  0.00    +0.000 C 
ATOM     15  O   UNL     1       0.242   2.357  18.883  0.00  0.00    +0.000 OA
BRANCH  14  17
ATOM     16  C   UNL     1       1.887   2.552  21.592  0.00  0.00    +0.000 C 
ATOM     17  O   UNL     1       0.997   3.340  20.805  0.00  0.00    +0.000 OA
ENDBRANCH  14  17
ENDBRANCH   1  14
TORSDOF 3
ENDMDL
MODEL 4
REMARK VINA RESULT:      -6.3      3.401      6.398
REMARK  Name = 
REMARK  5 active torsions:
REMARK  status: ('A' for Active; 'I' for Inactive)
REMARK    1  A    between atoms: C_1  and  O_2
REMARK    2  A    between atoms: O_2  and  C_3
REMARK    3  A    between atoms: C_3  and  C_5
REMARK    4  A    between atoms: C_7  and  C_8
REMARK    5  A    between atoms: C_16  and  C_17
REMARK                            x       y       z     vdW  Elec       q    Type
REMARK                         _______ _______ _______ _____ _____    ______ ____
ROOT
ATOM      1  C   UNL     1       6.207   5.189  16.050  0.00  0.00    +0.000 A 
ATOM      2  S   UNL     1       4.777   4.317  16.418  0.00  0.00    +0.000 S 
ATOM      3  C   UNL     1       4.549   5.244  17.846  0.00  0.00    +0.000 A 
ATOM      4  N   UNL     1       5.461   6.175  18.040  0.00  0.00    +0.000 NA
ATOM      5  C   UNL     1       6.422   6.144  17.033  0.00  0.00    +0.000 A 
ATOM      6  C   UNL     1       7.538   7.124  17.108  0.00  0.00    +0.000 C 
ENDROOT
BRANCH   3   7
ATOM      7  C   UNL     1       3.395   5.006  18.732  0.00  0.00    +0.000 A 
ATOM      8  C   UNL     1       3.007   5.928  19.721  0.00  0.00    +0.000 A 
ATOM      9  C   UNL     1       1.900   5.687  20.539  0.00  0.00    +0.000 A 
ATOM     10  C   UNL     1       1.161   4.519  20.381  0.00  0.00    +0.000 A 
ATOM     11  C   UNL     1       1.528   3.600  19.401  0.00  0.00    +0.000 A 
ATOM     12 BR   UNL     1       0.513   2.020  19.181  0.00  0.00    +0.000 Br
ATOM     13  C   UNL     1       2.632   3.838  18.578  0.00  0.00    +0.000 A 
ENDBRANCH   3   7
BRANCH   1  14
ATOM     14  C   UNL     1       6.999   4.911  14.869  0.00  0.00    +0.000 C 
ATOM     15  O   UNL     1       7.898   5.621  14.435  0.00  0.00    +0.000 OA
BRANCH  14  17
ATOM     16  C   UNL     1       6.348   3.807  12.885  0.00  0.00    +0.000 C 
ATOM     17  O   UNL     1       6.612   3.735  14.284  0.00  0.00    +0.000 OA
ENDBRANCH  14  17
ENDBRANCH   1  14
TORSDOF 3
ENDMDL
MODEL 5
REMARK VINA RESULT:      -6.1      3.869      6.804
REMARK  Name = 
REMARK  5 active torsions:
REMARK  status: ('A' for Active; 'I' for Inactive)
REMARK    1  A    between atoms: C_1  and  O_2
REMARK    2  A    between atoms: O_2  and  C_3
REMARK    3  A    between atoms: C_3  and  C_5
REMARK    4  A    between atoms: C_7  and  C_8
REMARK    5  A    between atoms: C_16  and  C_17
REMARK                            x       y       z     vdW  Elec       q    Type
REMARK                         _______ _______ _______ _____ _____    ______ ____
ROOT
ATOM      1  C   UNL     1       6.146   5.162  16.107  0.00  0.00    +0.000 A 
ATOM      2  S   UNL     1       4.661   4.403  16.504  0.00  0.00    +0.000 S 
ATOM      3  C   UNL     1       4.539   5.336  17.941  0.00  0.00    +0.000 A 
ATOM      4  N   UNL     1       5.526   6.191  18.118  0.00  0.00    +0.000 NA
ATOM      5  C   UNL     1       6.457   6.091  17.089  0.00  0.00    +0.000 A 
ATOM      6  C   UNL     1       7.649   6.981  17.142  0.00  0.00    +0.000 C 
ENDROOT
BRANCH   3   7
ATOM      7  C   UNL     1       3.390   5.183  18.852  0.00  0.00    +0.000 A 
ATOM      8  C   UNL     1       2.818   3.929  19.132  0.00  0.00    +0.000 A 
ATOM      9  C   UNL     1       1.739   3.807  20.011  0.00  0.00    +0.000 A 
ATOM     10  C   UNL     1       1.213   4.939  20.627  0.00  0.00    +0.000 A 
ATOM     11  C   UNL     1       1.774   6.187  20.366  0.00  0.00    +0.000 A 
ATOM     12 BR   UNL     1       1.066   7.721  21.215  0.00  0.00    +0.000 Br
ATOM     13  C   UNL     1       2.856   6.313  19.490  0.00  0.00    +0.000 A 
ENDBRANCH   3   7
BRANCH   1  14
ATOM     14  C   UNL     1       6.887   4.830  14.907  0.00  0.00    +0.000 C 
ATOM     15  O   UNL     1       7.810   5.486  14.439  0.00  0.00    +0.000 OA
BRANCH  14  17
ATOM     16  C   UNL     1       6.282   3.693  12.927  0.00  0.00    +0.000 C 
ATOM     17  O   UNL     1       6.420   3.672  14.346  0.00  0.00    +0.000 OA
ENDBRANCH  14  17
ENDBRANCH   1  14
TORSDOF 3
ENDMDL
MODEL 6
REMARK VINA RESULT:      -6.1      2.369      3.578
REMARK  Name = 
REMARK  5 active torsions:
REMARK  status: ('A' for Active; 'I' for Inactive)
REMARK    1  A    between atoms: C_1  and  O_2
REMARK    2  A    between atoms: O_2  and  C_3
REMARK    3  A    between atoms: C_3  and  C_5
REMARK    4  A    between atoms: C_7  and  C_8
REMARK    5  A    between atoms: C_16  and  C_17
REMARK                            x       y       z     vdW  Elec       q    Type
REMARK                         _______ _______ _______ _____ _____    ______ ____
ROOT
ATOM      1  C   UNL     1       2.918   4.208  19.408  0.00  0.00    +0.000 A 
ATOM      2  S   UNL     1       4.377   4.956  18.907  0.00  0.00    +0.000 S 
ATOM      3  C   UNL     1       4.255   4.217  17.362  0.00  0.00    +0.000 A 
ATOM      4  N   UNL     1       3.180   3.473  17.198  0.00  0.00    +0.000 NA
ATOM      5  C   UNL     1       2.417   3.445  18.363  0.00  0.00    +0.000 A 
ATOM      6  C   UNL     1       1.170   2.634  18.355  0.00  0.00    +0.000 C 
ENDROOT
BRANCH   3   7
ATOM      7  C   UNL     1       5.276   4.452  16.323  0.00  0.00    +0.000 A 
ATOM      8  C   UNL     1       6.453   5.179  16.581  0.00  0.00    +0.000 A 
ATOM      9  C   UNL     1       7.412   5.376  15.585  0.00  0.00    +0.000 A 
ATOM     10  C   UNL     1       7.212   4.849  14.312  0.00  0.00    +0.000 A 
ATOM     11  C   UNL     1       6.054   4.121  14.044  0.00  0.00    +0.000 A 
ATOM     12 BR   UNL     1       5.791   3.395  12.318  0.00  0.00    +0.000 Br
ATOM     13  C   UNL     1       5.094   3.918  15.038  0.00  0.00    +0.000 A 
ENDBRANCH   3   7
BRANCH   1  14
ATOM     14  C   UNL     1       2.362   4.405  20.731  0.00  0.00    +0.000 C 
ATOM     15  O   UNL     1       1.760   5.403  21.106  0.00  0.00    +0.000 OA
BRANCH  14  17
ATOM     16  C   UNL     1       1.446   2.569  21.901  0.00  0.00    +0.000 C 
ATOM     17  O   UNL     1       2.600   3.319  21.530  0.00  0.00    +0.000 OA
ENDBRANCH  14  17
ENDBRANCH   1  14
TORSDOF 3
ENDMDL
MODEL 7
REMARK VINA RESULT:      -6.1      6.267      7.465
REMARK  Name = 
REMARK  5 active torsions:
REMARK  status: ('A' for Active; 'I' for Inactive)
REMARK    1  A    between atoms: C_1  and  O_2
REMARK    2  A    between atoms: O_2  and  C_3
REMARK    3  A    between atoms: C_3  and  C_5
REMARK    4  A    between atoms: C_7  and  C_8
REMARK    5  A    between atoms: C_16  and  C_17
REMARK                            x       y       z     vdW  Elec       q    Type
REMARK                         _______ _______ _______ _____ _____    ______ ____
ROOT
ATOM      1  C   UNL     1       3.246   3.815  19.562  0.00  0.00    +0.000 A 
ATOM      2  S   UNL     1       3.418   5.218  18.592  0.00  0.00    +0.000 S 
ATOM      3  C   UNL     1       2.343   6.085  19.611  0.00  0.00    +0.000 A 
ATOM      4  N   UNL     1       1.891   5.394  20.638  0.00  0.00    +0.000 NA
ATOM      5  C   UNL     1       2.385   4.093  20.613  0.00  0.00    +0.000 A 
ATOM      6  C   UNL     1       1.960   3.169  21.699  0.00  0.00    +0.000 C 
ENDROOT
BRANCH   3   7
ATOM      7  C   UNL     1       2.008   7.496  19.340  0.00  0.00    +0.000 A 
ATOM      8  C   UNL     1       2.273   8.103  18.099  0.00  0.00    +0.000 A 
ATOM      9  C   UNL     1       1.933   9.437  17.860  0.00  0.00    +0.000 A 
ATOM     10  C   UNL     1       1.320  10.188  18.859  0.00  0.00    +0.000 A 
ATOM     11  C   UNL     1       1.046   9.598  20.091  0.00  0.00    +0.000 A 
ATOM     12 BR   UNL     1       0.201  10.617  21.442  0.00  0.00    +0.000 Br
ATOM     13  C   UNL     1       1.380   8.263  20.333  0.00  0.00    +0.000 A 
ENDBRANCH   3   7
BRANCH   1  14
ATOM     14  C   UNL     1       3.938   2.577  19.261  0.00  0.00    +0.000 C 
ATOM     15  O   UNL     1       3.562   1.733  18.458  0.00  0.00    +0.000 OA
BRANCH  14  17
ATOM     16  C   UNL     1       5.126   1.355  20.897  0.00  0.00    +0.000 C 
ATOM     17  O   UNL     1       5.084   2.464  20.001  0.00  0.00    +0.000 OA
ENDBRANCH  14  17
ENDBRANCH   1  14
TORSDOF 3
ENDMDL
MODEL 8
REMARK VINA RESULT:      -6.1      5.013      7.714
REMARK  Name = 
REMARK  5 active torsions:
REMARK  status: ('A' for Active; 'I' for Inactive)
REMARK    1  A    between atoms: C_1  and  O_2
REMARK    2  A    between atoms: O_2  and  C_3
REMARK    3  A    between atoms: C_3  and  C_5
REMARK    4  A    between atoms: C_7  and  C_8
REMARK    5  A    between atoms: C_16  and  C_17
REMARK                            x       y       z     vdW  Elec       q    Type
REMARK                         _______ _______ _______ _____ _____    ______ ____
ROOT
ATOM      1  C   UNL     1       3.819   5.163  18.854  0.00  0.00    +0.000 A 
ATOM      2  S   UNL     1       2.668   5.860  19.916  0.00  0.00    +0.000 S 
ATOM      3  C   UNL     1       2.577   7.267  18.935  0.00  0.00    +0.000 A 
ATOM      4  N   UNL     1       3.334   7.227  17.857  0.00  0.00    +0.000 NA
ATOM      5  C   UNL     1       4.060   6.040  17.807  0.00  0.00    +0.000 A 
ATOM      6  C   UNL     1       4.981   5.838  16.655  0.00  0.00    +0.000 C 
ENDROOT
BRANCH   3   7
ATOM      7  C   UNL     1       1.687   8.387  19.291  0.00  0.00    +0.000 A 
ATOM      8  C   UNL     1       1.263   9.337  18.343  0.00  0.00    +0.000 A 
ATOM      9  C   UNL     1       0.406  10.381  18.701  0.00  0.00    +0.000 A 
ATOM     10  C   UNL     1      -0.042  10.493  20.014  0.00  0.00    +0.000 A 
ATOM     11  C   UNL     1       0.363   9.556  20.961  0.00  0.00    +0.000 A 
ATOM     12 BR   UNL     1      -0.260   9.704  22.740  0.00  0.00    +0.000 Br
ATOM     13  C   UNL     1       1.216   8.507  20.607  0.00  0.00    +0.000 A 
ENDBRANCH   3   7
BRANCH   1  14
ATOM     14  C   UNL     1       4.392   3.852  19.086  0.00  0.00    +0.000 C 
ATOM     15  O   UNL     1       5.579   3.620  19.273  0.00  0.00    +0.000 OA
BRANCH  14  17
ATOM     16  C   UNL     1       2.981   2.486  17.773  0.00  0.00    +0.000 C 
ATOM     17  O   UNL     1       3.423   2.884  19.068  0.00  0.00    +0.000 OA
ENDBRANCH  14  17
ENDBRANCH   1  14
TORSDOF 3
ENDMDL
MODEL 9
REMARK VINA RESULT:      -6.1      5.027      7.789
REMARK  Name = 
REMARK  5 active torsions:
REMARK  status: ('A' for Active; 'I' for Inactive)
REMARK    1  A    between atoms: C_1  and  O_2
REMARK    2  A    between atoms: O_2  and  C_3
REMARK    3  A    between atoms: C_3  and  C_5
REMARK    4  A    between atoms: C_7  and  C_8
REMARK    5  A    between atoms: C_16  and  C_17
REMARK                            x       y       z     vdW  Elec       q    Type
REMARK                         _______ _______ _______ _____ _____    ______ ____
ROOT
ATOM      1  C   UNL     1       4.192   4.989  18.484  0.00  0.00    +0.000 A 
ATOM      2  S   UNL     1       3.866   6.635  18.133  0.00  0.00    +0.000 S 
ATOM      3  C   UNL     1       2.650   6.679  19.344  0.00  0.00    +0.000 A 
ATOM      4  N   UNL     1       2.499   5.548  20.004  0.00  0.00    +0.000 NA
ATOM      5  C   UNL     1       3.360   4.571  19.512  0.00  0.00    +0.000 A 
ATOM      6  C   UNL     1       3.309   3.222  20.138  0.00  0.00    +0.000 C 
ENDROOT
BRANCH   3   7
ATOM      7  C   UNL     1       1.887   7.912  19.613  0.00  0.00    +0.000 A 
ATOM      8  C   UNL     1       1.658   8.882  18.620  0.00  0.00    +0.000 A 
ATOM      9  C   UNL     1       0.919  10.036  18.894  0.00  0.00    +0.000 A 
ATOM     10  C   UNL     1       0.395  10.239  20.167  0.00  0.00    +0.000 A 
ATOM     11  C   UNL     1       0.607   9.284  21.159  0.00  0.00    +0.000 A 
ATOM     12 BR   UNL     1      -0.118   9.557  22.883  0.00  0.00    +0.000 Br
ATOM     13  C   UNL     1       1.342   8.127  20.888  0.00  0.00    +0.000 A 
ENDBRANCH   3   7
BRANCH   1  14
ATOM     14  C   UNL     1       5.203   4.232  17.773  0.00  0.00    +0.000 C 
ATOM     15  O   UNL     1       5.024   3.614  16.732  0.00  0.00    +0.000 OA
BRANCH  14  17
ATOM     16  C   UNL     1       7.528   4.620  17.604  0.00  0.00    +0.000 C 
ATOM     17  O   UNL     1       6.407   4.292  18.422  0.00  0.00    +0.000 OA
ENDBRANCH  14  17
ENDBRANCH   1  14
TORSDOF 3
ENDMDL
