MODEL 1
REMARK VINA RESULT:      -7.5      0.000      0.000
REMARK  Name = 
REMARK  11 active torsions:
REMARK  status: ('A' for Active; 'I' for Inactive)
REMARK    1  A    between atoms: C_1  and  C_2
REMARK    2  A    between atoms: C_4  and  C_5
REMARK    3  A    between atoms: N_7  and  N_8
REMARK    4  A    between atoms: C_9  and  C_10
REMARK    5  A    between atoms: C_10  and  C_11
REMARK    6  A    between atoms: C_10  and  C_12
REMARK    7  A    between atoms: C_10  and  C_13
REMARK    8  A    between atoms: N_15  and  C_16
REMARK    9  A    between atoms: C_19  and  C_20
REMARK   10  A    between atoms: C_20  and  C_21
REMARK   11  A    between atoms: C_20  and  C_22
REMARK                            x       y       z     vdW  Elec       q    Type
REMARK                         _______ _______ _______ _____ _____    ______ ____
ROOT
ATOM      1  C   UNL     1       1.709   9.363  17.854  0.00  0.00    +0.000 C 
ATOM      2  C   UNL     1       1.350   9.288  19.296  0.00  0.00    +0.000 A 
ATOM      3  C   UNL     1       0.775  10.260  20.081  0.00  0.00    +0.000 A 
ATOM      4  C   UNL     1       0.450   9.632  21.304  0.00  0.00    +0.000 A 
ATOM      5  N   UNL     1       0.780   8.325  21.281  0.00  0.00    +0.000 NA
ATOM      6  N   UNL     1       1.442   8.156  20.095  0.00  0.00    +0.000 N 
ENDROOT
BRANCH   6   7
ATOM      7  C   UNL     1       2.093   6.922  19.815  0.00  0.00    +0.000 A 
ATOM      8  C   UNL     1       1.816   5.795  20.595  0.00  0.00    +0.000 A 
ATOM      9  C   UNL     1       2.398   4.561  20.278  0.00  0.00    +0.000 A 
ATOM     10  C   UNL     1       3.291   4.440  19.201  0.00  0.00    +0.000 A 
ATOM     11  C   UNL     1       3.616   5.591  18.474  0.00  0.00    +0.000 A 
ATOM     12  C   UNL     1       3.023   6.820  18.774  0.00  0.00    +0.000 A 
BRANCH  10  13
ATOM     13  C   UNL     1       3.873   3.085  18.834  0.00  0.00    +0.000 C 
ATOM     14  C   UNL     1       4.337   2.322  20.080  0.00  0.00    +0.000 C 
ATOM     15  C   UNL     1       2.888   2.240  18.022  0.00  0.00    +0.000 C 
ENDBRANCH  10  13
ENDBRANCH   6   7
BRANCH   4  16
ATOM     16  C   UNL     1      -0.190  10.292  22.455  0.00  0.00    +0.000 C 
ATOM     17  O   UNL     1       0.050   9.938  23.609  0.00  0.00    +0.000 OA
ATOM     18  N   UNL     1      -1.067  11.308  22.104  0.00  0.00    +0.000 N 
ATOM     19  H   UNL     1      -1.195  11.508  21.116  0.00  0.00    +0.000 HD
BRANCH  18  20
ATOM     20  N   UNL     1      -1.774  11.955  23.076  0.00  0.00    +0.000 NA
ATOM     21  C   UNL     1      -2.867  12.544  22.717  0.00  0.00    +0.000 C 
BRANCH  21  22
ATOM     22  C   UNL     1      -3.708  13.311  23.737  0.00  0.00    +0.000 C 
ATOM     23  C   UNL     1      -4.325  12.299  24.709  0.00  0.00    +0.000 C 
ATOM     24  C   UNL     1      -2.801  14.279  24.508  0.00  0.00    +0.000 C 
ATOM     25  C   UNL     1      -4.822  14.109  23.041  0.00  0.00    +0.000 C 
ENDBRANCH  21  22
ENDBRANCH  18  20
ENDBRANCH   4  16
TORSDOF 5
ENDMDL
MODEL 2
REMARK VINA RESULT:      -7.4      3.131      4.969
REMARK  Name = 
REMARK  11 active torsions:
REMARK  status: ('A' for Active; 'I' for Inactive)
REMARK    1  A    between atoms: C_1  and  C_2
REMARK    2  A    between atoms: C_4  and  C_5
REMARK    3  A    between atoms: N_7  and  N_8
REMARK    4  A    between atoms: C_9  and  C_10
REMARK    5  A    between atoms: C_10  and  C_11
REMARK    6  A    between atoms: C_10  and  C_12
REMARK    7  A    between atoms: C_10  and  C_13
REMARK    8  A    between atoms: N_15  and  C_16
REMARK    9  A    between atoms: C_19  and  C_20
REMARK   10  A    between atoms: C_20  and  C_21
REMARK   11  A    between atoms: C_20  and  C_22
REMARK                            x       y       z     vdW  Elec       q    Type
REMARK                         _______ _______ _______ _____ _____    ______ ____
ROOT
ATOM      1  C   UNL     1       3.250   3.430  19.898  0.00  0.00    +0.000 C 
ATOM      2  C   UNL     1       2.876   4.848  19.649  0.00  0.00    +0.000 A 
ATOM      3  C   UNL     1       2.090   5.670  20.424  0.00  0.00    +0.000 A 
ATOM      4  C   UNL     1       2.212   6.963  19.868  0.00  0.00    +0.000 A 
ATOM      5  N   UNL     1       3.051   6.961  18.814  0.00  0.00    +0.000 NA
ATOM      6  N   UNL     1       3.354   5.642  18.614  0.00  0.00    +0.000 N 
ENDROOT
BRANCH   6   7
ATOM      7  C   UNL     1       4.087   5.247  17.460  0.00  0.00    +0.000 A 
ATOM      8  C   UNL     1       4.704   6.217  16.662  0.00  0.00    +0.000 A 
ATOM      9  C   UNL     1       5.488   5.830  15.568  0.00  0.00    +0.000 A 
ATOM     10  C   UNL     1       5.642   4.475  15.233  0.00  0.00    +0.000 A 
ATOM     11  C   UNL     1       4.959   3.520  15.996  0.00  0.00    +0.000 A 
ATOM     12  C   UNL     1       4.193   3.899  17.100  0.00  0.00    +0.000 A 
BRANCH  10  13
ATOM     13  C   UNL     1       6.539   4.066  14.077  0.00  0.00    +0.000 C 
ATOM     14  C   UNL     1       5.717   3.599  12.871  0.00  0.00    +0.000 C 
ATOM     15  C   UNL     1       7.497   5.190  13.671  0.00  0.00    +0.000 C 
ENDBRANCH  10  13
ENDBRANCH   6   7
BRANCH   4  16
ATOM     16  C   UNL     1       1.541   8.172  20.376  0.00  0.00    +0.000 C 
ATOM     17  O   UNL     1       1.309   8.318  21.576  0.00  0.00    +0.000 OA
ATOM     18  N   UNL     1       1.204   9.085  19.387  0.00  0.00    +0.000 N 
ATOM     19  H   UNL     1       1.437   8.855  18.425  0.00  0.00    +0.000 HD
BRANCH  18  20
ATOM     20  N   UNL     1       0.519  10.218  19.719  0.00  0.00    +0.000 NA
ATOM     21  C   UNL     1      -0.256  10.724  18.817  0.00  0.00    +0.000 C 
BRANCH  21  22
ATOM     22  C   UNL     1      -1.042  12.005  19.098  0.00  0.00    +0.000 C 
ATOM     23  C   UNL     1      -2.506  11.763  18.713  0.00  0.00    +0.000 C 
ATOM     24  C   UNL     1      -0.950  12.332  20.593  0.00  0.00    +0.000 C 
ATOM     25  C   UNL     1      -0.480  13.182  18.287  0.00  0.00    +0.000 C 
ENDBRANCH  21  22
ENDBRANCH  18  20
ENDBRANCH   4  16
TORSDOF 5
ENDMDL
MODEL 3
REMARK VINA RESULT:      -7.3      0.220      1.008
REMARK  Name = 
REMARK  11 active torsions:
REMARK  status: ('A' for Active; 'I' for Inactive)
REMARK    1  A    between atoms: C_1  and  C_2
REMARK    2  A    between atoms: C_4  and  C_5
REMARK    3  A    between atoms: N_7  and  N_8
REMARK    4  A    between atoms: C_9  and  C_10
REMARK    5  A    between atoms: C_10  and  C_11
REMARK    6  A    between atoms: C_10  and  C_12
REMARK    7  A    between atoms: C_10  and  C_13
REMARK    8  A    between atoms: N_15  and  C_16
REMARK    9  A    between atoms: C_19  and  C_20
REMARK   10  A    between atoms: C_20  and  C_21
REMARK   11  A    between atoms: C_20  and  C_22
REMARK                            x       y       z     vdW  Elec       q    Type
REMARK                         _______ _______ _______ _____ _____    ______ ____
ROOT
ATOM      1  C   UNL     1       1.823   9.259  17.880  0.00  0.00    +0.000 C 
ATOM      2  C   UNL     1       1.435   9.184  19.314  0.00  0.00    +0.000 A 
ATOM      3  C   UNL     1       0.876  10.168  20.097  0.00  0.00    +0.000 A 
ATOM      4  C   UNL     1       0.508   9.541  21.309  0.00  0.00    +0.000 A 
ATOM      5  N   UNL     1       0.799   8.225  21.280  0.00  0.00    +0.000 NA
ATOM      6  N   UNL     1       1.476   8.044  20.106  0.00  0.00    +0.000 N 
ENDROOT
BRANCH   6   7
ATOM      7  C   UNL     1       2.095   6.793  19.827  0.00  0.00    +0.000 A 
ATOM      8  C   UNL     1       3.048   6.699  18.808  0.00  0.00    +0.000 A 
ATOM      9  C   UNL     1       3.713   5.488  18.578  0.00  0.00    +0.000 A 
ATOM     10  C   UNL     1       3.415   4.345  19.337  0.00  0.00    +0.000 A 
ATOM     11  C   UNL     1       2.407   4.435  20.305  0.00  0.00    +0.000 A 
ATOM     12  C   UNL     1       1.755   5.645  20.551  0.00  0.00    +0.000 A 
BRANCH  10  13
ATOM     13  C   UNL     1       4.183   3.053  19.115  0.00  0.00    +0.000 C 
ATOM     14  C   UNL     1       4.354   2.274  20.424  0.00  0.00    +0.000 C 
ATOM     15  C   UNL     1       3.525   2.173  18.049  0.00  0.00    +0.000 C 
ENDBRANCH  10  13
ENDBRANCH   6   7
BRANCH   4  16
ATOM     16  C   UNL     1      -0.132  10.212  22.453  0.00  0.00    +0.000 C 
ATOM     17  O   UNL     1       0.139   9.897  23.611  0.00  0.00    +0.000 OA
ATOM     18  N   UNL     1      -1.047  11.190  22.091  0.00  0.00    +0.000 N 
ATOM     19  H   UNL     1      -1.199  11.359  21.100  0.00  0.00    +0.000 HD
BRANCH  18  20
ATOM     20  N   UNL     1      -1.758  11.841  23.057  0.00  0.00    +0.000 NA
ATOM     21  C   UNL     1      -2.731  12.596  22.666  0.00  0.00    +0.000 C 
BRANCH  21  22
ATOM     22  C   UNL     1      -3.562  13.379  23.682  0.00  0.00    +0.000 C 
ATOM     23  C   UNL     1      -4.226  12.378  24.634  0.00  0.00    +0.000 C 
ATOM     24  C   UNL     1      -2.638  14.310  24.476  0.00  0.00    +0.000 C 
ATOM     25  C   UNL     1      -4.640  14.218  22.978  0.00  0.00    +0.000 C 
ENDBRANCH  21  22
ENDBRANCH  18  20
ENDBRANCH   4  16
TORSDOF 5
ENDMDL
MODEL 4
REMARK VINA RESULT:      -7.3      0.470      1.398
REMARK  Name = 
REMARK  11 active torsions:
REMARK  status: ('A' for Active; 'I' for Inactive)
REMARK    1  A    between atoms: C_1  and  C_2
REMARK    2  A    between atoms: C_4  and  C_5
REMARK    3  A    between atoms: N_7  and  N_8
REMARK    4  A    between atoms: C_9  and  C_10
REMARK    5  A    between atoms: C_10  and  C_11
REMARK    6  A    between atoms: C_10  and  C_12
REMARK    7  A    between atoms: C_10  and  C_13
REMARK    8  A    between atoms: N_15  and  C_16
REMARK    9  A    between atoms: C_19  and  C_20
REMARK   10  A    between atoms: C_20  and  C_21
REMARK   11  A    between atoms: C_20  and  C_22
REMARK                            x       y       z     vdW  Elec       q    Type
REMARK                         _______ _______ _______ _____ _____    ______ ____
ROOT
ATOM      1  C   UNL     1       1.580   9.674  17.887  0.00  0.00    +0.000 C 
ATOM      2  C   UNL     1       1.225   9.542  19.326  0.00  0.00    +0.000 A 
ATOM      3  C   UNL     1       0.619  10.470  20.141  0.00  0.00    +0.000 A 
ATOM      4  C   UNL     1       0.317   9.794  21.344  0.00  0.00    +0.000 A 
ATOM      5  N   UNL     1       0.690   8.500  21.280  0.00  0.00    +0.000 NA
ATOM      6  N   UNL     1       1.355   8.389  20.090  0.00  0.00    +0.000 N 
ENDROOT
BRANCH   6   7
ATOM      7  C   UNL     1       2.046   7.187  19.771  0.00  0.00    +0.000 A 
ATOM      8  C   UNL     1       2.845   7.127  18.624  0.00  0.00    +0.000 A 
ATOM      9  C   UNL     1       3.586   5.971  18.345  0.00  0.00    +0.000 A 
ATOM     10  C   UNL     1       3.515   4.848  19.185  0.00  0.00    +0.000 A 
ATOM     11  C   UNL     1       2.655   4.896  20.288  0.00  0.00    +0.000 A 
ATOM     12  C   UNL     1       1.930   6.053  20.582  0.00  0.00    +0.000 A 
BRANCH  10  13
ATOM     13  C   UNL     1       4.366   3.621  18.900  0.00  0.00    +0.000 C 
ATOM     14  C   UNL     1       4.064   2.492  19.892  0.00  0.00    +0.000 C 
ATOM     15  C   UNL     1       4.199   3.131  17.460  0.00  0.00    +0.000 C 
ENDBRANCH  10  13
ENDBRANCH   6   7
BRANCH   4  16
ATOM     16  C   UNL     1      -0.343  10.396  22.515  0.00  0.00    +0.000 C 
ATOM     17  O   UNL     1      -0.041  10.062  23.661  0.00  0.00    +0.000 OA
ATOM     18  N   UNL     1      -1.311  11.337  22.193  0.00  0.00    +0.000 N 
ATOM     19  H   UNL     1      -1.484  11.527  21.210  0.00  0.00    +0.000 HD
BRANCH  18  20
ATOM     20  N   UNL     1      -2.042  11.921  23.187  0.00  0.00    +0.000 NA
ATOM     21  C   UNL     1      -3.040  12.660  22.829  0.00  0.00    +0.000 C 
BRANCH  21  22
ATOM     22  C   UNL     1      -3.896  13.370  23.877  0.00  0.00    +0.000 C 
ATOM     23  C   UNL     1      -5.033  14.100  23.153  0.00  0.00    +0.000 C 
ATOM     24  C   UNL     1      -4.482  12.327  24.836  0.00  0.00    +0.000 C 
ATOM     25  C   UNL     1      -3.059  14.379  24.678  0.00  0.00    +0.000 C 
ENDBRANCH  21  22
ENDBRANCH  18  20
ENDBRANCH   4  16
TORSDOF 5
ENDMDL
MODEL 5
REMARK VINA RESULT:      -7.3      3.469      5.631
REMARK  Name = 
REMARK  11 active torsions:
REMARK  status: ('A' for Active; 'I' for Inactive)
REMARK    1  A    between atoms: C_1  and  C_2
REMARK    2  A    between atoms: C_4  and  C_5
REMARK    3  A    between atoms: N_7  and  N_8
REMARK    4  A    between atoms: C_9  and  C_10
REMARK    5  A    between atoms: C_10  and  C_11
REMARK    6  A    between atoms: C_10  and  C_12
REMARK    7  A    between atoms: C_10  and  C_13
REMARK    8  A    between atoms: N_15  and  C_16
REMARK    9  A    between atoms: C_19  and  C_20
REMARK   10  A    between atoms: C_20  and  C_21
REMARK   11  A    between atoms: C_20  and  C_22
REMARK                            x       y       z     vdW  Elec       q    Type
REMARK                         _______ _______ _______ _____ _____    ______ ____
ROOT
ATOM      1  C   UNL     1       4.358   3.221  19.551  0.00  0.00    +0.000 C 
ATOM      2  C   UNL     1       3.733   4.539  19.264  0.00  0.00    +0.000 A 
ATOM      3  C   UNL     1       2.869   5.262  20.054  0.00  0.00    +0.000 A 
ATOM      4  C   UNL     1       2.734   6.524  19.433  0.00  0.00    +0.000 A 
ATOM      5  N   UNL     1       3.493   6.600  18.322  0.00  0.00    +0.000 NA
ATOM      6  N   UNL     1       4.003   5.341  18.162  0.00  0.00    +0.000 N 
ENDROOT
BRANCH   6   7
ATOM      7  C   UNL     1       4.719   5.009  16.978  0.00  0.00    +0.000 A 
ATOM      8  C   UNL     1       4.910   3.666  16.633  0.00  0.00    +0.000 A 
ATOM      9  C   UNL     1       5.549   3.334  15.432  0.00  0.00    +0.000 A 
ATOM     10  C   UNL     1       6.037   4.333  14.574  0.00  0.00    +0.000 A 
ATOM     11  C   UNL     1       5.905   5.670  14.967  0.00  0.00    +0.000 A 
ATOM     12  C   UNL     1       5.250   6.007  16.154  0.00  0.00    +0.000 A 
BRANCH  10  13
ATOM     13  C   UNL     1       6.680   3.960  13.248  0.00  0.00    +0.000 C 
ATOM     14  C   UNL     1       5.645   3.399  12.267  0.00  0.00    +0.000 C 
ATOM     15  C   UNL     1       7.428   5.141  12.624  0.00  0.00    +0.000 C 
ENDBRANCH  10  13
ENDBRANCH   6   7
BRANCH   4  16
ATOM     16  C   UNL     1       1.900   7.631  19.931  0.00  0.00    +0.000 C 
ATOM     17  O   UNL     1       1.329   7.561  21.018  0.00  0.00    +0.000 OA
ATOM     18  N   UNL     1       1.826   8.712  19.064  0.00  0.00    +0.000 N 
ATOM     19  H   UNL     1       2.333   8.656  18.185  0.00  0.00    +0.000 HD
BRANCH  18  20
ATOM     20  N   UNL     1       1.031   9.776  19.380  0.00  0.00    +0.000 NA
ATOM     21  C   UNL     1       0.225  10.203  18.463  0.00  0.00    +0.000 C 
BRANCH  21  22
ATOM     22  C   UNL     1      -0.683  11.404  18.725  0.00  0.00    +0.000 C 
ATOM     23  C   UNL     1       0.145  12.681  18.537  0.00  0.00    +0.000 C 
ATOM     24  C   UNL     1      -1.839  11.387  17.717  0.00  0.00    +0.000 C 
ATOM     25  C   UNL     1      -1.254  11.361  20.150  0.00  0.00    +0.000 C 
ENDBRANCH  21  22
ENDBRANCH  18  20
ENDBRANCH   4  16
TORSDOF 5
ENDMDL
MODEL 6
REMARK VINA RESULT:      -7.3      3.021      4.785
REMARK  Name = 
REMARK  11 active torsions:
REMARK  status: ('A' for Active; 'I' for Inactive)
REMARK    1  A    between atoms: C_1  and  C_2
REMARK    2  A    between atoms: C_4  and  C_5
REMARK    3  A    between atoms: N_7  and  N_8
REMARK    4  A    between atoms: C_9  and  C_10
REMARK    5  A    between atoms: C_10  and  C_11
REMARK    6  A    between atoms: C_10  and  C_12
REMARK    7  A    between atoms: C_10  and  C_13
REMARK    8  A    between atoms: N_15  and  C_16
REMARK    9  A    between atoms: C_19  and  C_20
REMARK   10  A    between atoms: C_20  and  C_21
REMARK   11  A    between atoms: C_20  and  C_22
REMARK                            x       y       z     vdW  Elec       q    Type
REMARK                         _______ _______ _______ _____ _____    ______ ____
ROOT
ATOM      1  C   UNL     1       3.155   3.633  20.179  0.00  0.00    +0.000 C 
ATOM      2  C   UNL     1       2.757   5.026  19.843  0.00  0.00    +0.000 A 
ATOM      3  C   UNL     1       1.935   5.871  20.553  0.00  0.00    +0.000 A 
ATOM      4  C   UNL     1       2.042   7.135  19.930  0.00  0.00    +0.000 A 
ATOM      5  N   UNL     1       2.906   7.093  18.897  0.00  0.00    +0.000 NA
ATOM      6  N   UNL     1       3.242   5.772  18.777  0.00  0.00    +0.000 N 
ENDROOT
BRANCH   6   7
ATOM      7  C   UNL     1       4.011   5.332  17.663  0.00  0.00    +0.000 A 
ATOM      8  C   UNL     1       4.085   3.968  17.364  0.00  0.00    +0.000 A 
ATOM      9  C   UNL     1       4.779   3.535  16.227  0.00  0.00    +0.000 A 
ATOM     10  C   UNL     1       5.438   4.452  15.392  0.00  0.00    +0.000 A 
ATOM     11  C   UNL     1       5.418   5.806  15.744  0.00  0.00    +0.000 A 
ATOM     12  C   UNL     1       4.710   6.245  16.865  0.00  0.00    +0.000 A 
BRANCH  10  13
ATOM     13  C   UNL     1       6.141   3.975  14.132  0.00  0.00    +0.000 C 
ATOM     14  C   UNL     1       5.142   3.730  12.995  0.00  0.00    +0.000 C 
ATOM     15  C   UNL     1       7.236   4.946  13.685  0.00  0.00    +0.000 C 
ENDBRANCH  10  13
ENDBRANCH   6   7
BRANCH   4  16
ATOM     16  C   UNL     1       1.334   8.354  20.354  0.00  0.00    +0.000 C 
ATOM     17  O   UNL     1       0.827   8.442  21.472  0.00  0.00    +0.000 OA
ATOM     18  N   UNL     1       1.294   9.347  19.386  0.00  0.00    +0.000 N 
ATOM     19  H   UNL     1       1.740   9.161  18.492  0.00  0.00    +0.000 HD
BRANCH  18  20
ATOM     20  N   UNL     1       0.610  10.502  19.632  0.00  0.00    +0.000 NA
ATOM     21  C   UNL     1      -0.515  10.663  19.016  0.00  0.00    +0.000 C 
BRANCH  21  22
ATOM     22  C   UNL     1      -1.335  11.938  19.215  0.00  0.00    +0.000 C 
ATOM     23  C   UNL     1      -0.624  13.084  18.487  0.00  0.00    +0.000 C 
ATOM     24  C   UNL     1      -2.732  11.735  18.616  0.00  0.00    +0.000 C 
ATOM     25  C   UNL     1      -1.469  12.276  20.708  0.00  0.00    +0.000 C 
ENDBRANCH  21  22
ENDBRANCH  18  20
ENDBRANCH   4  16
TORSDOF 5
ENDMDL
MODEL 7
REMARK VINA RESULT:      -7.2      3.347      5.450
REMARK  Name = 
REMARK  11 active torsions:
REMARK  status: ('A' for Active; 'I' for Inactive)
REMARK    1  A    between atoms: C_1  and  C_2
REMARK    2  A    between atoms: C_4  and  C_5
REMARK    3  A    between atoms: N_7  and  N_8
REMARK    4  A    between atoms: C_9  and  C_10
REMARK    5  A    between atoms: C_10  and  C_11
REMARK    6  A    between atoms: C_10  and  C_12
REMARK    7  A    between atoms: C_10  and  C_13
REMARK    8  A    between atoms: N_15  and  C_16
REMARK    9  A    between atoms: C_19  and  C_20
REMARK   10  A    between atoms: C_20  and  C_21
REMARK   11  A    between atoms: C_20  and  C_22
REMARK                            x       y       z     vdW  Elec       q    Type
REMARK                         _______ _______ _______ _____ _____    ______ ____
ROOT
ATOM      1  C   UNL     1       4.087   3.318  19.664  0.00  0.00    +0.000 C 
ATOM      2  C   UNL     1       3.496   4.654  19.385  0.00  0.00    +0.000 A 
ATOM      3  C   UNL     1       2.669   5.404  20.189  0.00  0.00    +0.000 A 
ATOM      4  C   UNL     1       2.559   6.668  19.567  0.00  0.00    +0.000 A 
ATOM      5  N   UNL     1       3.299   6.719  18.442  0.00  0.00    +0.000 NA
ATOM      6  N   UNL     1       3.768   5.445  18.276  0.00  0.00    +0.000 N 
ENDROOT
BRANCH   6   7
ATOM      7  C   UNL     1       4.452   5.089  17.079  0.00  0.00    +0.000 A 
ATOM      8  C   UNL     1       4.991   6.088  16.262  0.00  0.00    +0.000 A 
ATOM      9  C   UNL     1       5.728   5.741  15.123  0.00  0.00    +0.000 A 
ATOM     10  C   UNL     1       5.909   4.396  14.762  0.00  0.00    +0.000 A 
ATOM     11  C   UNL     1       5.302   3.410  15.548  0.00  0.00    +0.000 A 
ATOM     12  C   UNL     1       4.583   3.750  16.696  0.00  0.00    +0.000 A 
BRANCH  10  13
ATOM     13  C   UNL     1       6.757   4.032  13.555  0.00  0.00    +0.000 C 
ATOM     14  C   UNL     1       5.896   3.463  12.421  0.00  0.00    +0.000 C 
ATOM     15  C   UNL     1       7.584   5.220  13.057  0.00  0.00    +0.000 C 
ENDBRANCH  10  13
ENDBRANCH   6   7
BRANCH   4  16
ATOM     16  C   UNL     1       1.767   7.800  20.077  0.00  0.00    +0.000 C 
ATOM     17  O   UNL     1       1.326   7.804  21.226  0.00  0.00    +0.000 OA
ATOM     18  N   UNL     1       1.575   8.814  19.151  0.00  0.00    +0.000 N 
ATOM     19  H   UNL     1       1.979   8.699  18.225  0.00  0.00    +0.000 HD
BRANCH  18  20
ATOM     20  N   UNL     1       0.802   9.891  19.479  0.00  0.00    +0.000 NA
ATOM     21  C   UNL     1       0.835  10.906  18.680  0.00  0.00    +0.000 C 
BRANCH  21  22
ATOM     22  C   UNL     1       0.019  12.162  18.984  0.00  0.00    +0.000 C 
ATOM     23  C   UNL     1      -0.312  12.167  20.481  0.00  0.00    +0.000 C 
ATOM     24  C   UNL     1       0.854  13.400  18.637  0.00  0.00    +0.000 C 
ATOM     25  C   UNL     1      -1.281  12.183  18.166  0.00  0.00    +0.000 C 
ENDBRANCH  21  22
ENDBRANCH  18  20
ENDBRANCH   4  16
TORSDOF 5
ENDMDL
MODEL 8
REMARK VINA RESULT:      -7.2      2.005      9.046
REMARK  Name = 
REMARK  11 active torsions:
REMARK  status: ('A' for Active; 'I' for Inactive)
REMARK    1  A    between atoms: C_1  and  C_2
REMARK    2  A    between atoms: C_4  and  C_5
REMARK    3  A    between atoms: N_7  and  N_8
REMARK    4  A    between atoms: C_9  and  C_10
REMARK    5  A    between atoms: C_10  and  C_11
REMARK    6  A    between atoms: C_10  and  C_12
REMARK    7  A    between atoms: C_10  and  C_13
REMARK    8  A    between atoms: N_15  and  C_16
REMARK    9  A    between atoms: C_19  and  C_20
REMARK   10  A    between atoms: C_20  and  C_21
REMARK   11  A    between atoms: C_20  and  C_22
REMARK                            x       y       z     vdW  Elec       q    Type
REMARK                         _______ _______ _______ _____ _____    ______ ____
ROOT
ATOM      1  C   UNL     1       0.883  12.492  18.806  0.00  0.00    +0.000 C 
ATOM      2  C   UNL     1       0.889  11.080  19.272  0.00  0.00    +0.000 A 
ATOM      3  C   UNL     1       1.633  10.027  18.790  0.00  0.00    +0.000 A 
ATOM      4  C   UNL     1       1.434   8.961  19.696  0.00  0.00    +0.000 A 
ATOM      5  N   UNL     1       0.627   9.331  20.709  0.00  0.00    +0.000 NA
ATOM      6  N   UNL     1       0.202  10.587  20.375  0.00  0.00    +0.000 N 
ENDROOT
BRANCH   6   7
ATOM      7  C   UNL     1      -0.814  11.223  21.142  0.00  0.00    +0.000 A 
ATOM      8  C   UNL     1      -0.873  11.017  22.525  0.00  0.00    +0.000 A 
ATOM      9  C   UNL     1      -1.824  11.698  23.296  0.00  0.00    +0.000 A 
ATOM     10  C   UNL     1      -2.751  12.566  22.697  0.00  0.00    +0.000 A 
ATOM     11  C   UNL     1      -2.728  12.705  21.304  0.00  0.00    +0.000 A 
ATOM     12  C   UNL     1      -1.768  12.045  20.534  0.00  0.00    +0.000 A 
BRANCH  10  13
ATOM     13  C   UNL     1      -3.742  13.340  23.551  0.00  0.00    +0.000 C 
ATOM     14  C   UNL     1      -4.833  13.986  22.690  0.00  0.00    +0.000 C 
ATOM     15  C   UNL     1      -4.366  12.463  24.640  0.00  0.00    +0.000 C 
ENDBRANCH  10  13
ENDBRANCH   6   7
BRANCH   4  16
ATOM     16  C   UNL     1       2.040   7.624  19.580  0.00  0.00    +0.000 C 
ATOM     17  O   UNL     1       2.721   7.314  18.603  0.00  0.00    +0.000 OA
ATOM     18  N   UNL     1       1.758   6.784  20.648  0.00  0.00    +0.000 N 
ATOM     19  H   UNL     1       1.174   7.144  21.398  0.00  0.00    +0.000 HD
BRANCH  18  20
ATOM     20  N   UNL     1       2.207   5.495  20.630  0.00  0.00    +0.000 NA
ATOM     21  C   UNL     1       1.382   4.589  20.217  0.00  0.00    +0.000 C 
BRANCH  21  22
ATOM     22  C   UNL     1       1.795   3.118  20.187  0.00  0.00    +0.000 C 
ATOM     23  C   UNL     1       3.272   3.042  19.782  0.00  0.00    +0.000 C 
ATOM     24  C   UNL     1       1.614   2.518  21.587  0.00  0.00    +0.000 C 
ATOM     25  C   UNL     1       0.941   2.328  19.184  0.00  0.00    +0.000 C 
ENDBRANCH  21  22
ENDBRANCH  18  20
ENDBRANCH   4  16
TORSDOF 5
ENDMDL
MODEL 9
REMARK VINA RESULT:      -7.2      0.599      1.104
REMARK  Name = 
REMARK  11 active torsions:
REMARK  status: ('A' for Active; 'I' for Inactive)
REMARK    1  A    between atoms: C_1  and  C_2
REMARK    2  A    between atoms: C_4  and  C_5
REMARK    3  A    between atoms: N_7  and  N_8
REMARK    4  A    between atoms: C_9  and  C_10
REMARK    5  A    between atoms: C_10  and  C_11
REMARK    6  A    between atoms: C_10  and  C_12
REMARK    7  A    between atoms: C_10  and  C_13
REMARK    8  A    between atoms: N_15  and  C_16
REMARK    9  A    between atoms: C_19  and  C_20
REMARK   10  A    between atoms: C_20  and  C_21
REMARK   11  A    between atoms: C_20  and  C_22
REMARK                            x       y       z     vdW  Elec       q    Type
REMARK                         _______ _______ _______ _____ _____    ______ ____
ROOT
ATOM      1  C   UNL     1       1.862   8.856  17.786  0.00  0.00    +0.000 C 
ATOM      2  C   UNL     1       1.513   8.884  19.232  0.00  0.00    +0.000 A 
ATOM      3  C   UNL     1       0.927   9.903  19.947  0.00  0.00    +0.000 A 
ATOM      4  C   UNL     1       0.618   9.363  21.215  0.00  0.00    +0.000 A 
ATOM      5  N   UNL     1       0.969   8.064  21.287  0.00  0.00    +0.000 NA
ATOM      6  N   UNL     1       1.626   7.816  20.113  0.00  0.00    +0.000 N 
ENDROOT
BRANCH   6   7
ATOM      7  C   UNL     1       2.296   6.575  19.921  0.00  0.00    +0.000 A 
ATOM      8  C   UNL     1       1.819   5.422  20.552  0.00  0.00    +0.000 A 
ATOM      9  C   UNL     1       2.428   4.185  20.308  0.00  0.00    +0.000 A 
ATOM     10  C   UNL     1       3.543   4.085  19.460  0.00  0.00    +0.000 A 
ATOM     11  C   UNL     1       4.055   5.258  18.894  0.00  0.00    +0.000 A 
ATOM     12  C   UNL     1       3.438   6.490  19.118  0.00  0.00    +0.000 A 
BRANCH  10  13
ATOM     13  C   UNL     1       4.162   2.729  19.161  0.00  0.00    +0.000 C 
ATOM     14  C   UNL     1       4.513   1.980  20.452  0.00  0.00    +0.000 C 
ATOM     15  C   UNL     1       3.258   1.872  18.271  0.00  0.00    +0.000 C 
ENDBRANCH  10  13
ENDBRANCH   6   7
BRANCH   4  16
ATOM     16  C   UNL     1      -0.025  10.098  22.318  0.00  0.00    +0.000 C 
ATOM     17  O   UNL     1       0.299   9.905  23.489  0.00  0.00    +0.000 OA
ATOM     18  N   UNL     1      -1.006  10.987  21.904  0.00  0.00    +0.000 N 
ATOM     19  H   UNL     1      -1.198  11.058  20.908  0.00  0.00    +0.000 HD
BRANCH  18  20
ATOM     20  N   UNL     1      -1.724  11.682  22.834  0.00  0.00    +0.000 NA
ATOM     21  C   UNL     1      -2.109  12.873  22.513  0.00  0.00    +0.000 C 
BRANCH  21  22
ATOM     22  C   UNL     1      -2.897  13.729  23.505  0.00  0.00    +0.000 C 
ATOM     23  C   UNL     1      -3.759  14.714  22.709  0.00  0.00    +0.000 C 
ATOM     24  C   UNL     1      -3.800  12.818  24.346  0.00  0.00    +0.000 C 
ATOM     25  C   UNL     1      -1.951  14.501  24.436  0.00  0.00    +0.000 C 
ENDBRANCH  21  22
ENDBRANCH  18  20
ENDBRANCH   4  16
TORSDOF 5
ENDMDL
