MODEL 1
REMARK VINA RESULT:      -6.9      0.000      0.000
REMARK  Name = 
REMARK  1 active torsions:
REMARK  status: ('A' for Active; 'I' for Inactive)
REMARK    1  A    between atoms: C_5  and  C_6
REMARK                            x       y       z     vdW  Elec       q    Type
REMARK                         _______ _______ _______ _____ _____    ______ ____
ROOT
ATOM      1  C   UNL     1       5.540   4.124  17.666  0.00  0.00    +0.000 C 
ATOM      2  C   UNL     1       5.882   5.644  17.621  0.00  0.00    +0.000 C 
ATOM      3  C   UNL     1       7.072   5.959  16.689  0.00  0.00    +0.000 C 
ATOM      4  C   UNL     1       6.945   5.206  15.419  0.00  0.00    +0.000 A 
ATOM      5  N   UNL     1       7.635   5.476  14.273  0.00  0.00    +0.000 NA
ATOM      6  C   UNL     1       7.226   4.569  13.411  0.00  0.00    +0.000 A 
ATOM      7  N   UNL     1       6.302   3.720  13.961  0.00  0.00    +0.000 N 
ATOM      8  C   UNL     1       6.119   4.120  15.252  0.00  0.00    +0.000 A 
ATOM      9  C   UNL     1       5.196   3.547  16.259  0.00  0.00    +0.000 C 
ATOM     10  H   UNL     1       5.845   2.953  13.487  0.00  0.00    +0.000 HD
ENDROOT
BRANCH   1  15
ATOM     11 CL   UNL     1       1.097   2.920  21.587  0.00  0.00    +0.000 Cl
ATOM     12  C   UNL     1       2.365   3.264  20.476  0.00  0.00    +0.000 A 
ATOM     13  C   UNL     1       2.885   4.552  20.399  0.00  0.00    +0.000 A 
ATOM     14  C   UNL     1       3.913   4.833  19.495  0.00  0.00    +0.000 A 
ATOM     15  C   UNL     1       4.428   3.828  18.660  0.00  0.00    +0.000 A 
ATOM     16  C   UNL     1       3.891   2.535  18.752  0.00  0.00    +0.000 A 
ATOM     17  C   UNL     1       2.864   2.253  19.657  0.00  0.00    +0.000 A 
ENDBRANCH   1  15
TORSDOF 1
ENDMDL
MODEL 2
REMARK VINA RESULT:      -6.8      3.382      4.267
REMARK  Name = 
REMARK  1 active torsions:
REMARK  status: ('A' for Active; 'I' for Inactive)
REMARK    1  A    between atoms: C_5  and  C_6
REMARK                            x       y       z     vdW  Elec       q    Type
REMARK                         _______ _______ _______ _____ _____    ______ ____
ROOT
ATOM      1  C   UNL     1       3.170   6.390  17.496  0.00  0.00    +0.000 C 
ATOM      2  C   UNL     1       3.227   4.955  18.101  0.00  0.00    +0.000 C 
ATOM      3  C   UNL     1       3.870   3.930  17.142  0.00  0.00    +0.000 C 
ATOM      4  C   UNL     1       5.085   4.502  16.515  0.00  0.00    +0.000 A 
ATOM      5  N   UNL     1       6.051   3.783  15.872  0.00  0.00    +0.000 NA
ATOM      6  C   UNL     1       6.927   4.679  15.470  0.00  0.00    +0.000 A 
ATOM      7  N   UNL     1       6.558   5.951  15.824  0.00  0.00    +0.000 N 
ATOM      8  C   UNL     1       5.375   5.846  16.492  0.00  0.00    +0.000 A 
ATOM      9  C   UNL     1       4.580   6.932  17.110  0.00  0.00    +0.000 C 
ATOM     10  H   UNL     1       7.078   6.796  15.628  0.00  0.00    +0.000 HD
ENDROOT
BRANCH   1  15
ATOM     11 CL   UNL     1       0.284  10.212  21.188  0.00  0.00    +0.000 Cl
ATOM     12  C   UNL     1       1.109   9.129  20.137  0.00  0.00    +0.000 A 
ATOM     13  C   UNL     1       1.293   9.469  18.800  0.00  0.00    +0.000 A 
ATOM     14  C   UNL     1       1.961   8.588  17.945  0.00  0.00    +0.000 A 
ATOM     15  C   UNL     1       2.450   7.360  18.419  0.00  0.00    +0.000 A 
ATOM     16  C   UNL     1       2.256   7.035  19.770  0.00  0.00    +0.000 A 
ATOM     17  C   UNL     1       1.589   7.916  20.626  0.00  0.00    +0.000 A 
ENDBRANCH   1  15
TORSDOF 1
ENDMDL
MODEL 3
REMARK VINA RESULT:      -6.8      3.403      4.358
REMARK  Name = 
REMARK  1 active torsions:
REMARK  status: ('A' for Active; 'I' for Inactive)
REMARK    1  A    between atoms: C_5  and  C_6
REMARK                            x       y       z     vdW  Elec       q    Type
REMARK                         _______ _______ _______ _____ _____    ______ ____
ROOT
ATOM      1  C   UNL     1       3.172   6.416  17.505  0.00  0.00    +0.000 C 
ATOM      2  C   UNL     1       3.181   4.963  18.068  0.00  0.00    +0.000 C 
ATOM      3  C   UNL     1       3.838   3.954  17.102  0.00  0.00    +0.000 C 
ATOM      4  C   UNL     1       5.085   4.520  16.535  0.00  0.00    +0.000 A 
ATOM      5  N   UNL     1       6.059   3.802  15.905  0.00  0.00    +0.000 NA
ATOM      6  C   UNL     1       6.966   4.692  15.561  0.00  0.00    +0.000 A 
ATOM      7  N   UNL     1       6.609   5.959  15.940  0.00  0.00    +0.000 N 
ATOM      8  C   UNL     1       5.401   5.858  16.563  0.00  0.00    +0.000 A 
ATOM      9  C   UNL     1       4.605   6.941  17.185  0.00  0.00    +0.000 C 
ATOM     10  H   UNL     1       7.151   6.799  15.789  0.00  0.00    +0.000 HD
ENDROOT
BRANCH   1  15
ATOM     11 CL   UNL     1       0.274  10.256  21.168  0.00  0.00    +0.000 Cl
ATOM     12  C   UNL     1       1.094   9.160  20.127  0.00  0.00    +0.000 A 
ATOM     13  C   UNL     1       1.574   7.955  20.632  0.00  0.00    +0.000 A 
ATOM     14  C   UNL     1       2.243   7.065  19.788  0.00  0.00    +0.000 A 
ATOM     15  C   UNL     1       2.438   7.372  18.431  0.00  0.00    +0.000 A 
ATOM     16  C   UNL     1       1.946   8.591  17.940  0.00  0.00    +0.000 A 
ATOM     17  C   UNL     1       1.276   9.481  18.783  0.00  0.00    +0.000 A 
ENDBRANCH   1  15
TORSDOF 1
ENDMDL
MODEL 4
REMARK VINA RESULT:      -6.8      0.588      1.060
REMARK  Name = 
REMARK  1 active torsions:
REMARK  status: ('A' for Active; 'I' for Inactive)
REMARK    1  A    between atoms: C_5  and  C_6
REMARK                            x       y       z     vdW  Elec       q    Type
REMARK                         _______ _______ _______ _____ _____    ______ ____
ROOT
ATOM      1  C   UNL     1       5.483   4.084  17.677  0.00  0.00    +0.000 C 
ATOM      2  C   UNL     1       5.806   5.609  17.645  0.00  0.00    +0.000 C 
ATOM      3  C   UNL     1       6.997   5.946  16.722  0.00  0.00    +0.000 C 
ATOM      4  C   UNL     1       6.887   5.200  15.446  0.00  0.00    +0.000 A 
ATOM      5  N   UNL     1       7.580   5.488  14.306  0.00  0.00    +0.000 NA
ATOM      6  C   UNL     1       7.187   4.582  13.435  0.00  0.00    +0.000 A 
ATOM      7  N   UNL     1       6.271   3.717  13.973  0.00  0.00    +0.000 N 
ATOM      8  C   UNL     1       6.076   4.105  15.266  0.00  0.00    +0.000 A 
ATOM      9  C   UNL     1       5.155   3.513  16.264  0.00  0.00    +0.000 C 
ATOM     10  H   UNL     1       5.826   2.947  13.492  0.00  0.00    +0.000 HD
ENDROOT
BRANCH   1  15
ATOM     11 CL   UNL     1       1.045   2.868  21.600  0.00  0.00    +0.000 Cl
ATOM     12  C   UNL     1       2.307   3.209  20.482  0.00  0.00    +0.000 A 
ATOM     13  C   UNL     1       3.500   2.495  20.549  0.00  0.00    +0.000 A 
ATOM     14  C   UNL     1       4.527   2.773  19.642  0.00  0.00    +0.000 A 
ATOM     15  C   UNL     1       4.369   3.767  18.662  0.00  0.00    +0.000 A 
ATOM     16  C   UNL     1       3.159   4.475  18.610  0.00  0.00    +0.000 A 
ATOM     17  C   UNL     1       2.132   4.197  19.515  0.00  0.00    +0.000 A 
ENDBRANCH   1  15
TORSDOF 1
ENDMDL
MODEL 5
REMARK VINA RESULT:      -6.7      5.248      7.027
REMARK  Name = 
REMARK  1 active torsions:
REMARK  status: ('A' for Active; 'I' for Inactive)
REMARK    1  A    between atoms: C_5  and  C_6
REMARK                            x       y       z     vdW  Elec       q    Type
REMARK                         _______ _______ _______ _____ _____    ______ ____
ROOT
ATOM      1  C   UNL     1       2.257   7.137  18.297  0.00  0.00    +0.000 C 
ATOM      2  C   UNL     1       2.301   8.600  17.759  0.00  0.00    +0.000 C 
ATOM      3  C   UNL     1       1.213   9.498  18.386  0.00  0.00    +0.000 C 
ATOM      4  C   UNL     1       1.131   9.265  19.847  0.00  0.00    +0.000 A 
ATOM      5  N   UNL     1       0.513  10.091  20.741  0.00  0.00    +0.000 NA
ATOM      6  C   UNL     1       0.674   9.504  21.909  0.00  0.00    +0.000 A 
ATOM      7  N   UNL     1       1.366   8.327  21.799  0.00  0.00    +0.000 N 
ATOM      8  C   UNL     1       1.660   8.164  20.478  0.00  0.00    +0.000 A 
ATOM      9  C   UNL     1       2.427   7.066  19.845  0.00  0.00    +0.000 C 
ATOM     10  H   UNL     1       1.613   7.710  22.562  0.00  0.00    +0.000 HD
ENDROOT
BRANCH   1  15
ATOM     11 CL   UNL     1       6.306   3.641  15.480  0.00  0.00    +0.000 Cl
ATOM     12  C   UNL     1       5.156   4.633  16.287  0.00  0.00    +0.000 A 
ATOM     13  C   UNL     1       4.092   4.046  16.965  0.00  0.00    +0.000 A 
ATOM     14  C   UNL     1       3.155   4.852  17.618  0.00  0.00    +0.000 A 
ATOM     15  C   UNL     1       3.274   6.251  17.598  0.00  0.00    +0.000 A 
ATOM     16  C   UNL     1       4.354   6.825  16.910  0.00  0.00    +0.000 A 
ATOM     17  C   UNL     1       5.291   6.020  16.257  0.00  0.00    +0.000 A 
ENDBRANCH   1  15
TORSDOF 1
ENDMDL
MODEL 6
REMARK VINA RESULT:      -6.7      5.264      6.974
REMARK  Name = 
REMARK  1 active torsions:
REMARK  status: ('A' for Active; 'I' for Inactive)
REMARK    1  A    between atoms: C_5  and  C_6
REMARK                            x       y       z     vdW  Elec       q    Type
REMARK                         _______ _______ _______ _____ _____    ______ ____
ROOT
ATOM      1  C   UNL     1       2.220   7.158  18.323  0.00  0.00    +0.000 C 
ATOM      2  C   UNL     1       2.243   8.618  17.777  0.00  0.00    +0.000 C 
ATOM      3  C   UNL     1       1.156   9.509  18.414  0.00  0.00    +0.000 C 
ATOM      4  C   UNL     1       1.095   9.282  19.878  0.00  0.00    +0.000 A 
ATOM      5  N   UNL     1       0.482  10.107  20.776  0.00  0.00    +0.000 NA
ATOM      6  C   UNL     1       0.662   9.527  21.944  0.00  0.00    +0.000 A 
ATOM      7  N   UNL     1       1.364   8.356  21.831  0.00  0.00    +0.000 N 
ATOM      8  C   UNL     1       1.642   8.190  20.507  0.00  0.00    +0.000 A 
ATOM      9  C   UNL     1       2.411   7.095  19.869  0.00  0.00    +0.000 C 
ATOM     10  H   UNL     1       1.626   7.745  22.593  0.00  0.00    +0.000 HD
ENDROOT
BRANCH   1  15
ATOM     11 CL   UNL     1       6.262   3.625  15.542  0.00  0.00    +0.000 Cl
ATOM     12  C   UNL     1       5.110   4.632  16.328  0.00  0.00    +0.000 A 
ATOM     13  C   UNL     1       5.257   6.015  16.281  0.00  0.00    +0.000 A 
ATOM     14  C   UNL     1       4.323   6.834  16.922  0.00  0.00    +0.000 A 
ATOM     15  C   UNL     1       3.236   6.277  17.615  0.00  0.00    +0.000 A 
ATOM     16  C   UNL     1       3.105   4.881  17.651  0.00  0.00    +0.000 A 
ATOM     17  C   UNL     1       4.037   4.061  17.009  0.00  0.00    +0.000 A 
ENDBRANCH   1  15
TORSDOF 1
ENDMDL
MODEL 7
REMARK VINA RESULT:      -6.7      3.264      3.976
REMARK  Name = 
REMARK  1 active torsions:
REMARK  status: ('A' for Active; 'I' for Inactive)
REMARK    1  A    between atoms: C_5  and  C_6
REMARK                            x       y       z     vdW  Elec       q    Type
REMARK                         _______ _______ _______ _____ _____    ______ ____
ROOT
ATOM      1  C   UNL     1       3.864   6.137  17.944  0.00  0.00    +0.000 C 
ATOM      2  C   UNL     1       4.953   5.686  18.965  0.00  0.00    +0.000 C 
ATOM      3  C   UNL     1       5.872   4.579  18.404  0.00  0.00    +0.000 C 
ATOM      4  C   UNL     1       6.269   4.895  17.012  0.00  0.00    +0.000 A 
ATOM      5  N   UNL     1       7.301   4.309  16.337  0.00  0.00    +0.000 NA
ATOM      6  C   UNL     1       7.290   4.875  15.148  0.00  0.00    +0.000 A 
ATOM      7  N   UNL     1       6.285   5.799  15.029  0.00  0.00    +0.000 N 
ATOM      8  C   UNL     1       5.623   5.814  16.221  0.00  0.00    +0.000 A 
ATOM      9  C   UNL     1       4.477   6.669  16.613  0.00  0.00    +0.000 C 
ATOM     10  H   UNL     1       6.088   6.360  14.212  0.00  0.00    +0.000 HD
ENDROOT
BRANCH   1  15
ATOM     11 CL   UNL     1       0.066  10.164  20.376  0.00  0.00    +0.000 Cl
ATOM     12  C   UNL     1       1.151   9.023  19.684  0.00  0.00    +0.000 A 
ATOM     13  C   UNL     1       1.624   9.216  18.389  0.00  0.00    +0.000 A 
ATOM     14  C   UNL     1       2.503   8.288  17.825  0.00  0.00    +0.000 A 
ATOM     15  C   UNL     1       2.916   7.158  18.551  0.00  0.00    +0.000 A 
ATOM     16  C   UNL     1       2.429   6.981  19.855  0.00  0.00    +0.000 A 
ATOM     17  C   UNL     1       1.551   7.909  20.420  0.00  0.00    +0.000 A 
ENDBRANCH   1  15
TORSDOF 1
ENDMDL
MODEL 8
REMARK VINA RESULT:      -6.6      4.223      5.553
REMARK  Name = 
REMARK  1 active torsions:
REMARK  status: ('A' for Active; 'I' for Inactive)
REMARK    1  A    between atoms: C_5  and  C_6
REMARK                            x       y       z     vdW  Elec       q    Type
REMARK                         _______ _______ _______ _____ _____    ______ ____
ROOT
ATOM      1  C   UNL     1       2.911   5.539  18.351  0.00  0.00    +0.000 C 
ATOM      2  C   UNL     1       1.777   4.607  17.827  0.00  0.00    +0.000 C 
ATOM      3  C   UNL     1       2.305   3.240  17.343  0.00  0.00    +0.000 C 
ATOM      4  C   UNL     1       3.300   2.703  18.301  0.00  0.00    +0.000 A 
ATOM      5  N   UNL     1       3.726   1.407  18.348  0.00  0.00    +0.000 NA
ATOM      6  C   UNL     1       4.602   1.375  19.330  0.00  0.00    +0.000 A 
ATOM      7  N   UNL     1       4.762   2.605  19.914  0.00  0.00    +0.000 N 
ATOM      8  C   UNL     1       3.931   3.463  19.256  0.00  0.00    +0.000 A 
ATOM      9  C   UNL     1       3.709   4.903  19.530  0.00  0.00    +0.000 C 
ATOM     10  H   UNL     1       5.375   2.819  20.689  0.00  0.00    +0.000 HD
ENDROOT
BRANCH   1  15
ATOM     11 CL   UNL     1       0.764  10.974  19.902  0.00  0.00    +0.000 Cl
ATOM     12  C   UNL     1       1.380   9.430  19.460  0.00  0.00    +0.000 A 
ATOM     13  C   UNL     1       1.776   9.195  18.146  0.00  0.00    +0.000 A 
ATOM     14  C   UNL     1       2.274   7.940  17.785  0.00  0.00    +0.000 A 
ATOM     15  C   UNL     1       2.380   6.910  18.734  0.00  0.00    +0.000 A 
ATOM     16  C   UNL     1       1.977   7.167  20.054  0.00  0.00    +0.000 A 
ATOM     17  C   UNL     1       1.479   8.422  20.416  0.00  0.00    +0.000 A 
ENDBRANCH   1  15
TORSDOF 1
ENDMDL
MODEL 9
REMARK VINA RESULT:      -6.6      4.225      5.563
REMARK  Name = 
REMARK  1 active torsions:
REMARK  status: ('A' for Active; 'I' for Inactive)
REMARK    1  A    between atoms: C_5  and  C_6
REMARK                            x       y       z     vdW  Elec       q    Type
REMARK                         _______ _______ _______ _____ _____    ______ ____
ROOT
ATOM      1  C   UNL     1       2.890   5.558  18.367  0.00  0.00    +0.000 C 
ATOM      2  C   UNL     1       1.765   4.625  17.824  0.00  0.00    +0.000 C 
ATOM      3  C   UNL     1       2.305   3.266  17.330  0.00  0.00    +0.000 C 
ATOM      4  C   UNL     1       3.296   2.725  18.291  0.00  0.00    +0.000 A 
ATOM      5  N   UNL     1       3.730   1.432  18.328  0.00  0.00    +0.000 NA
ATOM      6  C   UNL     1       4.598   1.395  19.316  0.00  0.00    +0.000 A 
ATOM      7  N   UNL     1       4.746   2.619  19.914  0.00  0.00    +0.000 N 
ATOM      8  C   UNL     1       3.916   3.479  19.258  0.00  0.00    +0.000 A 
ATOM      9  C   UNL     1       3.683   4.914  19.545  0.00  0.00    +0.000 C 
ATOM     10  H   UNL     1       5.352   2.830  20.695  0.00  0.00    +0.000 HD
ENDROOT
BRANCH   1  15
ATOM     11 CL   UNL     1       0.762  11.005  19.902  0.00  0.00    +0.000 Cl
ATOM     12  C   UNL     1       1.362   9.453  19.467  0.00  0.00    +0.000 A 
ATOM     13  C   UNL     1       1.462   8.456  20.432  0.00  0.00    +0.000 A 
ATOM     14  C   UNL     1       1.952   7.195  20.080  0.00  0.00    +0.000 A 
ATOM     15  C   UNL     1       2.347   6.922  18.760  0.00  0.00    +0.000 A 
ATOM     16  C   UNL     1       2.238   7.940  17.800  0.00  0.00    +0.000 A 
ATOM     17  C   UNL     1       1.747   9.201  18.152  0.00  0.00    +0.000 A 
ENDBRANCH   1  15
TORSDOF 1
ENDMDL
