MODEL 1
REMARK VINA RESULT:      -7.0      0.000      0.000
REMARK  Name = 
REMARK  4 active torsions:
REMARK  status: ('A' for Active; 'I' for Inactive)
REMARK    1  A    between atoms: C_1  and  C_2
REMARK    2  A    between atoms: C_8  and  C_10
REMARK    3  A    between atoms: C_17  and  O_18
REMARK    4  A    between atoms: C_19  and  C_20
REMARK                            x       y       z     vdW  Elec       q    Type
REMARK                         _______ _______ _______ _____ _____    ______ ____
ROOT
ATOM      1  C   UNL     1      -0.736  11.172  20.207  0.00  0.00    +0.000 C 
ATOM      2  C   UNL     1       0.266  10.074  19.915  0.00  0.00    +0.000 A 
ATOM      3  N   UNL     1       0.871  10.092  18.755  0.00  0.00    +0.000 NA
ATOM      4  C   UNL     1       1.757   9.079  18.502  0.00  0.00    +0.000 A 
ATOM      5  N   UNL     1       2.499   8.805  17.440  0.00  0.00    +0.000 NA
ATOM      6  C   UNL     1       3.114   7.623  17.769  0.00  0.00    +0.000 A 
ATOM      7  N   UNL     1       3.923   6.964  16.882  0.00  0.00    +0.000 N 
ATOM      8  C   UNL     1       4.359   5.672  17.115  0.00  0.00    +0.000 C 
ATOM      9  O   UNL     1       4.043   4.979  18.080  0.00  0.00    +0.000 OA
ATOM     10  N   UNL     1       2.855   7.190  18.995  0.00  0.00    +0.000 NA
ATOM     11  N   UNL     1       1.980   8.094  19.449  0.00  0.00    +0.000 N 
ATOM     12  C   UNL     1       1.357   8.077  20.686  0.00  0.00    +0.000 A 
ATOM     13  C   UNL     1       0.479   9.041  21.004  0.00  0.00    +0.000 A 
ATOM     14  C   UNL     1      -0.243   9.121  22.307  0.00  0.00    +0.000 C 
ATOM     15  H   UNL     1       4.139   7.432  16.015  0.00  0.00    +0.000 HD
ENDROOT
BRANCH   8  16
ATOM     16  C   UNL     1       5.224   5.125  16.091  0.00  0.00    +0.000 A 
ATOM     17  C   UNL     1       5.332   3.819  15.647  0.00  0.00    +0.000 A 
ATOM     18  C   UNL     1       6.304   3.813  14.627  0.00  0.00    +0.000 A 
ATOM     19  C   UNL     1       6.741   5.114  14.512  0.00  0.00    +0.000 A 
ATOM     20  O   UNL     1       6.093   5.921  15.395  0.00  0.00    +0.000 OA
ENDBRANCH   8  16
BRANCH  12  21
ATOM     21  O   UNL     1       1.666   7.040  21.555  0.00  0.00    +0.000 OA
ATOM     22  H   UNL     1       1.041   6.310  21.332  0.00  0.00    +0.000 HD
ENDBRANCH  12  21
TORSDOF 2
ENDMDL
MODEL 2
REMARK VINA RESULT:      -6.9      2.349      7.698
REMARK  Name = 
REMARK  4 active torsions:
REMARK  status: ('A' for Active; 'I' for Inactive)
REMARK    1  A    between atoms: C_1  and  C_2
REMARK    2  A    between atoms: C_8  and  C_10
REMARK    3  A    between atoms: C_17  and  O_18
REMARK    4  A    between atoms: C_19  and  C_20
REMARK                            x       y       z     vdW  Elec       q    Type
REMARK                         _______ _______ _______ _____ _____    ______ ____
ROOT
ATOM      1  C   UNL     1       3.908   2.079  18.351  0.00  0.00    +0.000 C 
ATOM      2  C   UNL     1       3.543   3.524  18.624  0.00  0.00    +0.000 A 
ATOM      3  N   UNL     1       2.786   3.778  19.659  0.00  0.00    +0.000 NA
ATOM      4  C   UNL     1       2.450   5.088  19.874  0.00  0.00    +0.000 A 
ATOM      5  N   UNL     1       1.699   5.662  20.802  0.00  0.00    +0.000 NA
ATOM      6  C   UNL     1       1.686   6.985  20.439  0.00  0.00    +0.000 A 
ATOM      7  N   UNL     1       0.942   7.910  21.121  0.00  0.00    +0.000 N 
ATOM      8  C   UNL     1       0.741   9.188  20.632  0.00  0.00    +0.000 C 
ATOM      9  O   UNL     1       1.149   9.607  19.551  0.00  0.00    +0.000 OA
ATOM     10  N   UNL     1       2.443   7.275  19.389  0.00  0.00    +0.000 NA
ATOM     11  N   UNL     1       2.904   6.076  19.018  0.00  0.00    +0.000 N 
ATOM     12  C   UNL     1       3.721   5.817  17.929  0.00  0.00    +0.000 A 
ATOM     13  C   UNL     1       4.093   4.556  17.659  0.00  0.00    +0.000 A 
ATOM     14  C   UNL     1       4.972   4.168  16.518  0.00  0.00    +0.000 C 
ATOM     15  H   UNL     1       0.486   7.605  21.968  0.00  0.00    +0.000 HD
ENDROOT
BRANCH   8  16
ATOM     16  C   UNL     1      -0.052  10.050  21.483  0.00  0.00    +0.000 A 
ATOM     17  C   UNL     1      -0.465   9.847  22.788  0.00  0.00    +0.000 A 
ATOM     18  C   UNL     1      -1.197  10.989  23.168  0.00  0.00    +0.000 A 
ATOM     19  C   UNL     1      -1.198  11.822  22.070  0.00  0.00    +0.000 A 
ATOM     20  O   UNL     1      -0.506  11.263  21.040  0.00  0.00    +0.000 OA
ENDBRANCH   8  16
BRANCH  12  21
ATOM     21  O   UNL     1       4.118   6.892  17.145  0.00  0.00    +0.000 OA
ATOM     22  H   UNL     1       5.103   6.906  17.192  0.00  0.00    +0.000 HD
ENDBRANCH  12  21
TORSDOF 2
ENDMDL
MODEL 3
REMARK VINA RESULT:      -6.9      3.464      4.518
REMARK  Name = 
REMARK  4 active torsions:
REMARK  status: ('A' for Active; 'I' for Inactive)
REMARK    1  A    between atoms: C_1  and  C_2
REMARK    2  A    between atoms: C_8  and  C_10
REMARK    3  A    between atoms: C_17  and  O_18
REMARK    4  A    between atoms: C_19  and  C_20
REMARK                            x       y       z     vdW  Elec       q    Type
REMARK                         _______ _______ _______ _____ _____    ______ ____
ROOT
ATOM      1  C   UNL     1      -0.033  13.624  21.695  0.00  0.00    +0.000 C 
ATOM      2  C   UNL     1       0.334  12.278  21.105  0.00  0.00    +0.000 A 
ATOM      3  N   UNL     1       0.397  11.252  21.914  0.00  0.00    +0.000 NA
ATOM      4  C   UNL     1       0.752  10.050  21.364  0.00  0.00    +0.000 A 
ATOM      5  N   UNL     1       0.921   8.852  21.903  0.00  0.00    +0.000 NA
ATOM      6  C   UNL     1       1.346   8.079  20.853  0.00  0.00    +0.000 A 
ATOM      7  N   UNL     1       1.704   6.768  21.025  0.00  0.00    +0.000 N 
ATOM      8  C   UNL     1       2.346   6.051  20.031  0.00  0.00    +0.000 C 
ATOM      9  O   UNL     1       2.697   6.504  18.943  0.00  0.00    +0.000 OA
ATOM     10  N   UNL     1       1.378   8.706  19.685  0.00  0.00    +0.000 NA
ATOM     11  N   UNL     1       1.027   9.954  20.011  0.00  0.00    +0.000 N 
ATOM     12  C   UNL     1       0.947  11.032  19.143  0.00  0.00    +0.000 A 
ATOM     13  C   UNL     1       0.601  12.241  19.613  0.00  0.00    +0.000 A 
ATOM     14  C   UNL     1       0.480  13.464  18.768  0.00  0.00    +0.000 C 
ATOM     15  H   UNL     1       1.543   6.358  21.932  0.00  0.00    +0.000 HD
ENDROOT
BRANCH   8  16
ATOM     16  C   UNL     1       2.638   4.673  20.363  0.00  0.00    +0.000 A 
ATOM     17  C   UNL     1       2.074   3.874  21.341  0.00  0.00    +0.000 A 
ATOM     18  C   UNL     1       2.692   2.611  21.244  0.00  0.00    +0.000 A 
ATOM     19  C   UNL     1       3.604   2.713  20.217  0.00  0.00    +0.000 A 
ATOM     20  O   UNL     1       3.582   3.961  19.673  0.00  0.00    +0.000 OA
ENDBRANCH   8  16
BRANCH  12  21
ATOM     21  O   UNL     1       1.241  10.812  17.805  0.00  0.00    +0.000 OA
ATOM     22  H   UNL     1       2.184  10.525  17.784  0.00  0.00    +0.000 HD
ENDBRANCH  12  21
TORSDOF 2
ENDMDL
MODEL 4
REMARK VINA RESULT:      -6.9      2.651      3.804
REMARK  Name = 
REMARK  4 active torsions:
REMARK  status: ('A' for Active; 'I' for Inactive)
REMARK    1  A    between atoms: C_1  and  C_2
REMARK    2  A    between atoms: C_8  and  C_10
REMARK    3  A    between atoms: C_17  and  O_18
REMARK    4  A    between atoms: C_19  and  C_20
REMARK                            x       y       z     vdW  Elec       q    Type
REMARK                         _______ _______ _______ _____ _____    ______ ____
ROOT
ATOM      1  C   UNL     1       1.142   6.617  21.184  0.00  0.00    +0.000 C 
ATOM      2  C   UNL     1       2.144   5.994  20.234  0.00  0.00    +0.000 A 
ATOM      3  N   UNL     1       2.591   6.729  19.249  0.00  0.00    +0.000 NA
ATOM      4  C   UNL     1       3.479   6.139  18.389  0.00  0.00    +0.000 A 
ATOM      5  N   UNL     1       4.088   6.595  17.305  0.00  0.00    +0.000 NA
ATOM      6  C   UNL     1       4.790   5.511  16.844  0.00  0.00    +0.000 A 
ATOM      7  N   UNL     1       5.504   5.560  15.677  0.00  0.00    +0.000 N 
ATOM      8  C   UNL     1       6.021   4.419  15.090  0.00  0.00    +0.000 C 
ATOM      9  O   UNL     1       5.863   3.272  15.506  0.00  0.00    +0.000 OA
ATOM     10  N   UNL     1       4.712   4.435  17.617  0.00  0.00    +0.000 NA
ATOM     11  N   UNL     1       3.866   4.823  18.577  0.00  0.00    +0.000 N 
ATOM     12  C   UNL     1       3.410   4.043  19.628  0.00  0.00    +0.000 A 
ATOM     13  C   UNL     1       2.541   4.557  20.512  0.00  0.00    +0.000 A 
ATOM     14  C   UNL     1       1.992   3.808  21.680  0.00  0.00    +0.000 C 
ATOM     15  H   UNL     1       5.584   6.455  15.220  0.00  0.00    +0.000 HD
ENDROOT
BRANCH   8  16
ATOM     16  C   UNL     1       6.768   4.644  13.870  0.00  0.00    +0.000 A 
ATOM     17  C   UNL     1       6.642   4.016  12.643  0.00  0.00    +0.000 A 
ATOM     18  C   UNL     1       7.588   4.608  11.783  0.00  0.00    +0.000 A 
ATOM     19  C   UNL     1       8.244   5.557  12.536  0.00  0.00    +0.000 A 
ATOM     20  O   UNL     1       7.756   5.589  13.806  0.00  0.00    +0.000 OA
ENDBRANCH   8  16
BRANCH  12  21
ATOM     21  O   UNL     1       3.874   2.738  19.717  0.00  0.00    +0.000 OA
ATOM     22  H   UNL     1       4.834   2.811  19.927  0.00  0.00    +0.000 HD
ENDBRANCH  12  21
TORSDOF 2
ENDMDL
MODEL 5
REMARK VINA RESULT:      -6.8      1.578      2.212
REMARK  Name = 
REMARK  4 active torsions:
REMARK  status: ('A' for Active; 'I' for Inactive)
REMARK    1  A    between atoms: C_1  and  C_2
REMARK    2  A    between atoms: C_8  and  C_10
REMARK    3  A    between atoms: C_17  and  O_18
REMARK    4  A    between atoms: C_19  and  C_20
REMARK                            x       y       z     vdW  Elec       q    Type
REMARK                         _______ _______ _______ _____ _____    ______ ____
ROOT
ATOM      1  C   UNL     1      -0.147   9.482  22.624  0.00  0.00    +0.000 C 
ATOM      2  C   UNL     1       0.553   9.110  21.333  0.00  0.00    +0.000 A 
ATOM      3  N   UNL     1       1.190   7.969  21.291  0.00  0.00    +0.000 NA
ATOM      4  C   UNL     1       1.834   7.662  20.122  0.00  0.00    +0.000 A 
ATOM      5  N   UNL     1       2.568   6.616  19.772  0.00  0.00    +0.000 NA
ATOM      6  C   UNL     1       2.994   6.928  18.505  0.00  0.00    +0.000 A 
ATOM      7  N   UNL     1       3.853   6.114  17.816  0.00  0.00    +0.000 N 
ATOM      8  C   UNL     1       4.465   6.524  16.645  0.00  0.00    +0.000 C 
ATOM      9  O   UNL     1       4.350   7.638  16.137  0.00  0.00    +0.000 OA
ATOM     10  N   UNL     1       2.509   8.064  18.024  0.00  0.00    +0.000 NA
ATOM     11  N   UNL     1       1.798   8.539  19.052  0.00  0.00    +0.000 N 
ATOM     12  C   UNL     1       1.111   9.743  19.083  0.00  0.00    +0.000 A 
ATOM     13  C   UNL     1       0.453  10.107  20.195  0.00  0.00    +0.000 A 
ATOM     14  C   UNL     1      -0.320  11.375  20.333  0.00  0.00    +0.000 C 
ATOM     15  H   UNL     1       4.079   5.222  18.230  0.00  0.00    +0.000 HD
ENDROOT
BRANCH   8  16
ATOM     16  C   UNL     1       5.329   5.539  16.029  0.00  0.00    +0.000 A 
ATOM     17  C   UNL     1       5.316   4.162  16.164  0.00  0.00    +0.000 A 
ATOM     18  C   UNL     1       6.347   3.661  15.345  0.00  0.00    +0.000 A 
ATOM     19  C   UNL     1       6.937   4.761  14.763  0.00  0.00    +0.000 A 
ATOM     20  O   UNL     1       6.328   5.908  15.170  0.00  0.00    +0.000 OA
ENDBRANCH   8  16
BRANCH  12  21
ATOM     21  O   UNL     1       1.142  10.537  17.945  0.00  0.00    +0.000 OA
ATOM     22  H   UNL     1       1.958  10.274  17.459  0.00  0.00    +0.000 HD
ENDBRANCH  12  21
TORSDOF 2
ENDMDL
MODEL 6
REMARK VINA RESULT:      -6.8      3.080      4.447
REMARK  Name = 
REMARK  4 active torsions:
REMARK  status: ('A' for Active; 'I' for Inactive)
REMARK    1  A    between atoms: C_1  and  C_2
REMARK    2  A    between atoms: C_8  and  C_10
REMARK    3  A    between atoms: C_17  and  O_18
REMARK    4  A    between atoms: C_19  and  C_20
REMARK                            x       y       z     vdW  Elec       q    Type
REMARK                         _______ _______ _______ _____ _____    ______ ____
ROOT
ATOM      1  C   UNL     1       1.799   3.196  21.798  0.00  0.00    +0.000 C 
ATOM      2  C   UNL     1       2.344   3.785  20.513  0.00  0.00    +0.000 A 
ATOM      3  N   UNL     1       2.994   2.990  19.704  0.00  0.00    +0.000 NA
ATOM      4  C   UNL     1       3.498   3.547  18.559  0.00  0.00    +0.000 A 
ATOM      5  N   UNL     1       4.205   3.029  17.566  0.00  0.00    +0.000 NA
ATOM      6  C   UNL     1       4.467   4.105  16.756  0.00  0.00    +0.000 A 
ATOM      7  N   UNL     1       5.252   3.989  15.640  0.00  0.00    +0.000 N 
ATOM      8  C   UNL     1       5.707   5.099  14.951  0.00  0.00    +0.000 C 
ATOM      9  O   UNL     1       5.508   6.268  15.277  0.00  0.00    +0.000 OA
ATOM     10  N   UNL     1       3.903   5.240  17.148  0.00  0.00    +0.000 NA
ATOM     11  N   UNL     1       3.313   4.894  18.297  0.00  0.00    +0.000 N 
ATOM     12  C   UNL     1       2.610   5.740  19.141  0.00  0.00    +0.000 A 
ATOM     13  C   UNL     1       2.086   5.261  20.280  0.00  0.00    +0.000 A 
ATOM     14  C   UNL     1       1.310   6.081  21.254  0.00  0.00    +0.000 C 
ATOM     15  H   UNL     1       5.545   3.062  15.373  0.00  0.00    +0.000 HD
ENDROOT
BRANCH   8  16
ATOM     16  C   UNL     1       6.509   4.806  13.782  0.00  0.00    +0.000 A 
ATOM     17  C   UNL     1       6.348   3.802  12.844  0.00  0.00    +0.000 A 
ATOM     18  C   UNL     1       7.380   3.958  11.897  0.00  0.00    +0.000 A 
ATOM     19  C   UNL     1       8.118   5.044  12.316  0.00  0.00    +0.000 A 
ATOM     20  O   UNL     1       7.600   5.568  13.460  0.00  0.00    +0.000 OA
ENDBRANCH   8  16
BRANCH  12  21
ATOM     21  O   UNL     1       2.486   7.071  18.769  0.00  0.00    +0.000 OA
ATOM     22  H   UNL     1       2.372   7.064  17.790  0.00  0.00    +0.000 HD
ENDBRANCH  12  21
TORSDOF 2
ENDMDL
MODEL 7
REMARK VINA RESULT:      -6.7      2.451      3.759
REMARK  Name = 
REMARK  4 active torsions:
REMARK  status: ('A' for Active; 'I' for Inactive)
REMARK    1  A    between atoms: C_1  and  C_2
REMARK    2  A    between atoms: C_8  and  C_10
REMARK    3  A    between atoms: C_17  and  O_18
REMARK    4  A    between atoms: C_19  and  C_20
REMARK                            x       y       z     vdW  Elec       q    Type
REMARK                         _______ _______ _______ _____ _____    ______ ____
ROOT
ATOM      1  C   UNL     1      -1.073  12.860  22.943  0.00  0.00    +0.000 C 
ATOM      2  C   UNL     1      -0.525  11.867  21.938  0.00  0.00    +0.000 A 
ATOM      3  N   UNL     1       0.041  10.781  22.399  0.00  0.00    +0.000 NA
ATOM      4  C   UNL     1       0.549   9.908  21.475  0.00  0.00    +0.000 A 
ATOM      5  N   UNL     1       1.186   8.755  21.613  0.00  0.00    +0.000 NA
ATOM      6  C   UNL     1       1.502   8.401  20.325  0.00  0.00    +0.000 A 
ATOM      7  N   UNL     1       2.243   7.283  20.049  0.00  0.00    +0.000 N 
ATOM      8  C   UNL     1       2.758   7.044  18.788  0.00  0.00    +0.000 C 
ATOM      9  O   UNL     1       2.655   7.800  17.823  0.00  0.00    +0.000 OA
ATOM     10  N   UNL     1       1.035   9.226  19.397  0.00  0.00    +0.000 NA
ATOM     11  N   UNL     1       0.456  10.188  20.122  0.00  0.00    +0.000 N 
ATOM     12  C   UNL     1      -0.157  11.328  19.626  0.00  0.00    +0.000 A 
ATOM     13  C   UNL     1      -0.681  12.226  20.474  0.00  0.00    +0.000 A 
ATOM     14  C   UNL     1      -1.366  13.481  20.047  0.00  0.00    +0.000 C 
ATOM     15  H   UNL     1       2.459   6.668  20.818  0.00  0.00    +0.000 HD
ENDROOT
BRANCH   8  16
ATOM     16  C   UNL     1       3.501   5.808  18.655  0.00  0.00    +0.000 A 
ATOM     17  C   UNL     1       3.397   4.828  17.685  0.00  0.00    +0.000 A 
ATOM     18  C   UNL     1       4.352   3.840  17.997  0.00  0.00    +0.000 A 
ATOM     19  C   UNL     1       4.979   4.268  19.147  0.00  0.00    +0.000 A 
ATOM     20  O   UNL     1       4.472   5.463  19.557  0.00  0.00    +0.000 OA
ENDBRANCH   8  16
BRANCH  12  21
ATOM     21  O   UNL     1      -0.195  11.497  18.249  0.00  0.00    +0.000 OA
ATOM     22  H   UNL     1      -0.797  12.262  18.091  0.00  0.00    +0.000 HD
ENDBRANCH  12  21
TORSDOF 2
ENDMDL
MODEL 8
REMARK VINA RESULT:      -6.7      7.154      8.135
REMARK  Name = 
REMARK  4 active torsions:
REMARK  status: ('A' for Active; 'I' for Inactive)
REMARK    1  A    between atoms: C_1  and  C_2
REMARK    2  A    between atoms: C_8  and  C_10
REMARK    3  A    between atoms: C_17  and  O_18
REMARK    4  A    between atoms: C_19  and  C_20
REMARK                            x       y       z     vdW  Elec       q    Type
REMARK                         _______ _______ _______ _____ _____    ______ ____
ROOT
ATOM      1  C   UNL     1      11.701  15.003  19.960  0.00  0.00    +0.000 C 
ATOM      2  C   UNL     1      10.792  13.896  19.464  0.00  0.00    +0.000 A 
ATOM      3  N   UNL     1      10.933  12.708  19.992  0.00  0.00    +0.000 NA
ATOM      4  C   UNL     1      10.117  11.717  19.514  0.00  0.00    +0.000 A 
ATOM      5  N   UNL     1      10.026  10.431  19.818  0.00  0.00    +0.000 NA
ATOM      6  C   UNL     1       9.077   9.958  18.947  0.00  0.00    +0.000 A 
ATOM      7  N   UNL     1       8.748   8.630  18.897  0.00  0.00    +0.000 N 
ATOM      8  C   UNL     1       7.969   8.109  17.878  0.00  0.00    +0.000 C 
ATOM      9  O   UNL     1       7.543   8.745  16.916  0.00  0.00    +0.000 OA
ATOM     10  N   UNL     1       8.524  10.885  18.177  0.00  0.00    +0.000 NA
ATOM     11  N   UNL     1       9.197  11.990  18.517  0.00  0.00    +0.000 N 
ATOM     12  C   UNL     1       9.030  13.250  17.965  0.00  0.00    +0.000 A 
ATOM     13  C   UNL     1       9.793  14.270  18.388  0.00  0.00    +0.000 A 
ATOM     14  C   UNL     1       9.692  15.663  17.866  0.00  0.00    +0.000 C 
ATOM     15  H   UNL     1       9.150   8.025  19.597  0.00  0.00    +0.000 HD
ENDROOT
BRANCH   8  16
ATOM     16  C   UNL     1       7.695   6.692  17.981  0.00  0.00    +0.000 A 
ATOM     17  C   UNL     1       7.515   5.919  19.115  0.00  0.00    +0.000 A 
ATOM     18  C   UNL     1       7.258   4.604  18.676  0.00  0.00    +0.000 A 
ATOM     19  C   UNL     1       7.306   4.647  17.300  0.00  0.00    +0.000 A 
ATOM     20  O   UNL     1       7.571   5.909  16.865  0.00  0.00    +0.000 OA
ENDBRANCH   8  16
BRANCH  12  21
ATOM     21  O   UNL     1       8.070  13.402  16.974  0.00  0.00    +0.000 OA
ATOM     22  H   UNL     1       7.898  14.372  16.917  0.00  0.00    +0.000 HD
ENDBRANCH  12  21
TORSDOF 2
ENDMDL
MODEL 9
REMARK VINA RESULT:      -6.7      2.197      3.205
REMARK  Name = 
REMARK  4 active torsions:
REMARK  status: ('A' for Active; 'I' for Inactive)
REMARK    1  A    between atoms: C_1  and  C_2
REMARK    2  A    between atoms: C_8  and  C_10
REMARK    3  A    between atoms: C_17  and  O_18
REMARK    4  A    between atoms: C_19  and  C_20
REMARK                            x       y       z     vdW  Elec       q    Type
REMARK                         _______ _______ _______ _____ _____    ______ ____
ROOT
ATOM      1  C   UNL     1      -1.727  13.309  20.699  0.00  0.00    +0.000 C 
ATOM      2  C   UNL     1      -0.967  12.004  20.820  0.00  0.00    +0.000 A 
ATOM      3  N   UNL     1      -0.231  11.630  19.806  0.00  0.00    +0.000 NA
ATOM      4  C   UNL     1       0.430  10.436  19.927  0.00  0.00    +0.000 A 
ATOM      5  N   UNL     1       1.222   9.781  19.092  0.00  0.00    +0.000 NA
ATOM      6  C   UNL     1       1.509   8.618  19.759  0.00  0.00    +0.000 A 
ATOM      7  N   UNL     1       2.256   7.625  19.184  0.00  0.00    +0.000 N 
ATOM      8  C   UNL     1       2.358   6.367  19.751  0.00  0.00    +0.000 C 
ATOM      9  O   UNL     1       1.773   5.998  20.768  0.00  0.00    +0.000 OA
ATOM     10  N   UNL     1       1.004   8.547  20.984  0.00  0.00    +0.000 NA
ATOM     11  N   UNL     1       0.304   9.682  21.081  0.00  0.00    +0.000 N 
ATOM     12  C   UNL     1      -0.461  10.079  22.166  0.00  0.00    +0.000 A 
ATOM     13  C   UNL     1      -1.133  11.240  22.119  0.00  0.00    +0.000 A 
ATOM     14  C   UNL     1      -1.979  11.763  23.230  0.00  0.00    +0.000 C 
ATOM     15  H   UNL     1       2.680   7.823  18.290  0.00  0.00    +0.000 HD
ENDROOT
BRANCH   8  16
ATOM     16  C   UNL     1       3.201   5.438  19.029  0.00  0.00    +0.000 A 
ATOM     17  C   UNL     1       2.947   4.767  17.847  0.00  0.00    +0.000 A 
ATOM     18  C   UNL     1       4.092   3.998  17.558  0.00  0.00    +0.000 A 
ATOM     19  C   UNL     1       4.977   4.236  18.586  0.00  0.00    +0.000 A 
ATOM     20  O   UNL     1       4.449   5.109  19.487  0.00  0.00    +0.000 OA
ENDBRANCH   8  16
BRANCH  12  21
ATOM     21  O   UNL     1      -0.506   9.240  23.271  0.00  0.00    +0.000 OA
ATOM     22  H   UNL     1      -1.444   8.946  23.344  0.00  0.00    +0.000 HD
ENDBRANCH  12  21
TORSDOF 2
ENDMDL
