MODEL 1
REMARK VINA RESULT:      -9.0      0.000      0.000
REMARK  Name = 
REMARK  9 active torsions:
REMARK  status: ('A' for Active; 'I' for Inactive)
REMARK    1  A    between atoms: C_1  and  C_2
REMARK    2  A    between atoms: C_2  and  C_3
REMARK    3  A    between atoms: C_3  and  C_4
REMARK    4  A    between atoms: C_9  and  N_10
REMARK    5  A    between atoms: N_10  and  C_11
REMARK    6  A    between atoms: C_11  and  C_12
REMARK    7  A    between atoms: C_11  and  C_18
REMARK    8  A    between atoms: C_21  and  C_22
REMARK    9  A    between atoms: C_24  and  C_25
REMARK                            x       y       z     vdW  Elec       q    Type
REMARK                         _______ _______ _______ _____ _____    ______ ____
ROOT
ATOM      1  C   UNL     1       3.001   5.738  19.408  0.00  0.00    +0.000 C 
ENDROOT
BRANCH   1   2
ATOM      2  C   UNL     1       2.213   7.045  19.659  0.00  0.00    +0.000 A 
ATOM      3  C   UNL     1       1.528   7.221  20.880  0.00  0.00    +0.000 A 
ATOM      4  C   UNL     1       0.910   8.428  21.215  0.00  0.00    +0.000 A 
ATOM      5  C   UNL     1       0.953   9.508  20.338  0.00  0.00    +0.000 A 
ATOM      6  C   UNL     1       0.327  10.822  20.699  0.00  0.00    +0.000 C 
ATOM      7  C   UNL     1       1.559   9.330  19.090  0.00  0.00    +0.000 A 
ATOM      8  C   UNL     1       2.163   8.107  18.722  0.00  0.00    +0.000 A 
ATOM      9  C   UNL     1       2.751   8.022  17.339  0.00  0.00    +0.000 C 
ENDBRANCH   1   2
BRANCH   1  10
ATOM     10  C   UNL     1       2.393   4.527  20.084  0.00  0.00    +0.000 A 
ATOM     11  C   UNL     1       1.412   3.736  19.475  0.00  0.00    +0.000 A 
ATOM     12  C   UNL     1       0.803   2.715  20.192  0.00  0.00    +0.000 A 
ATOM     13  C   UNL     1       1.203   2.508  21.506  0.00  0.00    +0.000 A 
ATOM     14  N   UNL     1       2.155   3.231  22.126  0.00  0.00    +0.000 NA
ATOM     15  C   UNL     1       2.724   4.219  21.406  0.00  0.00    +0.000 A 
ENDBRANCH   1  10
BRANCH   1  16
ATOM     16  N   UNL     1       4.431   5.900  19.784  0.00  0.00    +0.000 NA
ATOM     17  H   UNL     1       4.719   6.825  19.472  0.00  0.00    +0.000 HD
BRANCH  16  23
ATOM     18  C   UNL     1       6.324   5.082  15.254  0.00  0.00    +0.000 C 
ATOM     19  O   UNL     1       7.452   5.511  15.029  0.00  0.00    +0.000 OA
ATOM     20  N   UNL     1       5.639   5.346  16.433  0.00  0.00    +0.000 N 
ATOM     21  C   UNL     1       6.233   6.287  17.378  0.00  0.00    +0.000 C 
ATOM     22  C   UNL     1       6.606   5.550  18.656  0.00  0.00    +0.000 C 
ATOM     23  C   UNL     1       5.371   4.874  19.293  0.00  0.00    +0.000 C 
ATOM     24  C   UNL     1       4.769   3.915  18.253  0.00  0.00    +0.000 C 
ATOM     25  C   UNL     1       4.466   4.611  16.925  0.00  0.00    +0.000 C 
BRANCH  18  26
ATOM     26  C   UNL     1       5.612   4.265  14.197  0.00  0.00    +0.000 C 
BRANCH  26  28
ATOM     27  C   UNL     1       5.867   3.091  11.987  0.00  0.00    +0.000 C 
ATOM     28  C   UNL     1       6.562   3.913  13.054  0.00  0.00    +0.000 C 
ENDBRANCH  26  28
ENDBRANCH  18  26
ENDBRANCH  16  23
ENDBRANCH   1  16
TORSDOF 6
ENDMDL
MODEL 2
REMARK VINA RESULT:      -7.8      1.103      1.853
REMARK  Name = 
REMARK  9 active torsions:
REMARK  status: ('A' for Active; 'I' for Inactive)
REMARK    1  A    between atoms: C_1  and  C_2
REMARK    2  A    between atoms: C_2  and  C_3
REMARK    3  A    between atoms: C_3  and  C_4
REMARK    4  A    between atoms: C_9  and  N_10
REMARK    5  A    between atoms: N_10  and  C_11
REMARK    6  A    between atoms: C_11  and  C_12
REMARK    7  A    between atoms: C_11  and  C_18
REMARK    8  A    between atoms: C_21  and  C_22
REMARK    9  A    between atoms: C_24  and  C_25
REMARK                            x       y       z     vdW  Elec       q    Type
REMARK                         _______ _______ _______ _____ _____    ______ ____
ROOT
ATOM      1  C   UNL     1       3.230   5.813  18.882  0.00  0.00    +0.000 C 
ENDROOT
BRANCH   1   2
ATOM      2  C   UNL     1       2.575   7.214  18.869  0.00  0.00    +0.000 A 
ATOM      3  C   UNL     1       2.670   8.015  17.710  0.00  0.00    +0.000 A 
ATOM      4  C   UNL     1       1.992   9.230  17.593  0.00  0.00    +0.000 A 
ATOM      5  C   UNL     1       1.189   9.692  18.632  0.00  0.00    +0.000 A 
ATOM      6  C   UNL     1       0.424  10.976  18.507  0.00  0.00    +0.000 C 
ATOM      7  C   UNL     1       1.143   8.952  19.819  0.00  0.00    +0.000 A 
ATOM      8  C   UNL     1       1.847   7.736  19.966  0.00  0.00    +0.000 A 
ATOM      9  C   UNL     1       1.751   7.046  21.301  0.00  0.00    +0.000 C 
ENDBRANCH   1   2
BRANCH   1  10
ATOM     10  C   UNL     1       2.260   4.696  19.207  0.00  0.00    +0.000 A 
ATOM     11  C   UNL     1       2.180   4.113  20.477  0.00  0.00    +0.000 A 
ATOM     12  C   UNL     1       1.362   3.010  20.681  0.00  0.00    +0.000 A 
ATOM     13  C   UNL     1       0.636   2.523  19.602  0.00  0.00    +0.000 A 
ATOM     14  N   UNL     1       0.667   3.064  18.368  0.00  0.00    +0.000 NA
ATOM     15  C   UNL     1       1.475   4.131  18.200  0.00  0.00    +0.000 A 
ENDBRANCH   1  10
BRANCH   1  16
ATOM     16  N   UNL     1       4.404   5.786  19.795  0.00  0.00    +0.000 NA
ATOM     17  H   UNL     1       4.727   6.746  19.896  0.00  0.00    +0.000 HD
BRANCH  16  23
ATOM     18  C   UNL     1       6.576   4.941  15.398  0.00  0.00    +0.000 C 
ATOM     19  O   UNL     1       7.622   5.539  15.161  0.00  0.00    +0.000 OA
ATOM     20  N   UNL     1       5.813   5.178  16.533  0.00  0.00    +0.000 N 
ATOM     21  C   UNL     1       6.202   6.282  17.406  0.00  0.00    +0.000 C 
ATOM     22  C   UNL     1       6.647   5.728  18.751  0.00  0.00    +0.000 C 
ATOM     23  C   UNL     1       5.524   4.902  19.417  0.00  0.00    +0.000 C 
ATOM     24  C   UNL     1       5.134   3.771  18.451  0.00  0.00    +0.000 C 
ATOM     25  C   UNL     1       4.766   4.293  17.061  0.00  0.00    +0.000 C 
BRANCH  18  26
ATOM     26  C   UNL     1       6.054   3.928  14.399  0.00  0.00    +0.000 C 
BRANCH  26  28
ATOM     27  C   UNL     1       6.029   3.290  11.967  0.00  0.00    +0.000 C 
ATOM     28  C   UNL     1       6.701   4.134  13.031  0.00  0.00    +0.000 C 
ENDBRANCH  26  28
ENDBRANCH  18  26
ENDBRANCH  16  23
ENDBRANCH   1  16
TORSDOF 6
ENDMDL
MODEL 3
REMARK VINA RESULT:      -7.8      0.695      1.466
REMARK  Name = 
REMARK  9 active torsions:
REMARK  status: ('A' for Active; 'I' for Inactive)
REMARK    1  A    between atoms: C_1  and  C_2
REMARK    2  A    between atoms: C_2  and  C_3
REMARK    3  A    between atoms: C_3  and  C_4
REMARK    4  A    between atoms: C_9  and  N_10
REMARK    5  A    between atoms: N_10  and  C_11
REMARK    6  A    between atoms: C_11  and  C_12
REMARK    7  A    between atoms: C_11  and  C_18
REMARK    8  A    between atoms: C_21  and  C_22
REMARK    9  A    between atoms: C_24  and  C_25
REMARK                            x       y       z     vdW  Elec       q    Type
REMARK                         _______ _______ _______ _____ _____    ______ ____
ROOT
ATOM      1  C   UNL     1       3.303   5.748  19.008  0.00  0.00    +0.000 C 
ENDROOT
BRANCH   1   2
ATOM      2  C   UNL     1       2.582   7.116  18.966  0.00  0.00    +0.000 A 
ATOM      3  C   UNL     1       2.611   7.881  17.781  0.00  0.00    +0.000 A 
ATOM      4  C   UNL     1       1.873   9.060  17.643  0.00  0.00    +0.000 A 
ATOM      5  C   UNL     1       1.076   9.518  18.688  0.00  0.00    +0.000 A 
ATOM      6  C   UNL     1       0.249  10.760  18.542  0.00  0.00    +0.000 C 
ATOM      7  C   UNL     1       1.095   8.817  19.898  0.00  0.00    +0.000 A 
ATOM      8  C   UNL     1       1.859   7.640  20.066  0.00  0.00    +0.000 A 
ATOM      9  C   UNL     1       1.830   6.992  21.424  0.00  0.00    +0.000 C 
ENDBRANCH   1   2
BRANCH   1  10
ATOM     10  C   UNL     1       2.520   4.675  19.734  0.00  0.00    +0.000 A 
ATOM     11  C   UNL     1       1.345   4.117  19.215  0.00  0.00    +0.000 A 
ATOM     12  C   UNL     1       0.604   3.228  19.983  0.00  0.00    +0.000 A 
ATOM     13  C   UNL     1       1.068   2.914  21.254  0.00  0.00    +0.000 A 
ATOM     14  N   UNL     1       2.202   3.411  21.785  0.00  0.00    +0.000 NA
ATOM     15  C   UNL     1       2.897   4.276  21.018  0.00  0.00    +0.000 A 
ENDBRANCH   1  10
BRANCH   1  16
ATOM     16  N   UNL     1       4.672   5.887  19.572  0.00  0.00    +0.000 NA
ATOM     17  H   UNL     1       4.971   6.844  19.399  0.00  0.00    +0.000 HD
BRANCH  16  23
ATOM     18  C   UNL     1       6.431   4.983  15.005  0.00  0.00    +0.000 C 
ATOM     19  O   UNL     1       7.496   5.509  14.696  0.00  0.00    +0.000 OA
ATOM     20  N   UNL     1       5.777   5.249  16.200  0.00  0.00    +0.000 N 
ATOM     21  C   UNL     1       6.312   6.304  17.057  0.00  0.00    +0.000 C 
ATOM     22  C   UNL     1       6.818   5.691  18.354  0.00  0.00    +0.000 C 
ATOM     23  C   UNL     1       5.692   4.933  19.094  0.00  0.00    +0.000 C 
ATOM     24  C   UNL     1       5.147   3.854  18.144  0.00  0.00    +0.000 C 
ATOM     25  C   UNL     1       4.712   4.430  16.794  0.00  0.00    +0.000 C 
BRANCH  18  26
ATOM     26  C   UNL     1       5.761   4.031  14.035  0.00  0.00    +0.000 C 
BRANCH  26  28
ATOM     27  C   UNL     1       5.964   2.888  11.804  0.00  0.00    +0.000 C 
ATOM     28  C   UNL     1       6.617   3.842  12.785  0.00  0.00    +0.000 C 
ENDBRANCH  26  28
ENDBRANCH  18  26
ENDBRANCH  16  23
ENDBRANCH   1  16
TORSDOF 6
ENDMDL
MODEL 4
REMARK VINA RESULT:      -7.8      1.570      4.118
REMARK  Name = 
REMARK  9 active torsions:
REMARK  status: ('A' for Active; 'I' for Inactive)
REMARK    1  A    between atoms: C_1  and  C_2
REMARK    2  A    between atoms: C_2  and  C_3
REMARK    3  A    between atoms: C_3  and  C_4
REMARK    4  A    between atoms: C_9  and  N_10
REMARK    5  A    between atoms: N_10  and  C_11
REMARK    6  A    between atoms: C_11  and  C_12
REMARK    7  A    between atoms: C_11  and  C_18
REMARK    8  A    between atoms: C_21  and  C_22
REMARK    9  A    between atoms: C_24  and  C_25
REMARK                            x       y       z     vdW  Elec       q    Type
REMARK                         _______ _______ _______ _____ _____    ______ ____
ROOT
ATOM      1  C   UNL     1       3.151   6.699  19.179  0.00  0.00    +0.000 C 
ENDROOT
BRANCH   1   2
ATOM      2  C   UNL     1       2.615   5.390  19.802  0.00  0.00    +0.000 A 
ATOM      3  C   UNL     1       2.946   5.068  21.136  0.00  0.00    +0.000 A 
ATOM      4  C   UNL     1       2.389   3.968  21.793  0.00  0.00    +0.000 A 
ATOM      5  C   UNL     1       1.476   3.146  21.138  0.00  0.00    +0.000 A 
ATOM      6  C   UNL     1       0.840   1.984  21.841  0.00  0.00    +0.000 C 
ATOM      7  C   UNL     1       1.195   3.401  19.792  0.00  0.00    +0.000 A 
ATOM      8  C   UNL     1       1.772   4.491  19.103  0.00  0.00    +0.000 A 
ATOM      9  C   UNL     1       1.423   4.644  17.647  0.00  0.00    +0.000 C 
ENDBRANCH   1   2
BRANCH   1  10
ATOM     10  C   UNL     1       2.115   7.802  19.106  0.00  0.00    +0.000 A 
ATOM     11  C   UNL     1       1.813   8.475  17.917  0.00  0.00    +0.000 A 
ATOM     12  C   UNL     1       0.946   9.560  17.938  0.00  0.00    +0.000 A 
ATOM     13  C   UNL     1       0.397   9.937  19.157  0.00  0.00    +0.000 A 
ATOM     14  N   UNL     1       0.644   9.307  20.321  0.00  0.00    +0.000 NA
ATOM     15  C   UNL     1       1.494   8.261  20.270  0.00  0.00    +0.000 A 
ENDBRANCH   1  10
BRANCH   1  16
ATOM     16  N   UNL     1       3.754   6.443  17.844  0.00  0.00    +0.000 NA
ATOM     17  H   UNL     1       3.093   5.874  17.320  0.00  0.00    +0.000 HD
BRANCH  16  23
ATOM     18  C   UNL     1       6.515   4.720  14.078  0.00  0.00    +0.000 C 
ATOM     19  O   UNL     1       7.394   5.457  13.641  0.00  0.00    +0.000 OA
ATOM     20  N   UNL     1       5.603   5.126  15.043  0.00  0.00    +0.000 N 
ATOM     21  C   UNL     1       5.607   6.529  15.446  0.00  0.00    +0.000 C 
ATOM     22  C   UNL     1       6.036   6.634  16.903  0.00  0.00    +0.000 C 
ATOM     23  C   UNL     1       5.095   5.825  17.824  0.00  0.00    +0.000 C 
ATOM     24  C   UNL     1       5.107   4.364  17.344  0.00  0.00    +0.000 C 
ATOM     25  C   UNL     1       4.765   4.236  15.857  0.00  0.00    +0.000 C 
BRANCH  18  26
ATOM     26  C   UNL     1       6.373   3.317  13.524  0.00  0.00    +0.000 C 
BRANCH  26  28
ATOM     27  C   UNL     1       4.605   3.324  11.736  0.00  0.00    +0.000 C 
ATOM     28  C   UNL     1       6.093   3.355  12.024  0.00  0.00    +0.000 C 
ENDBRANCH  26  28
ENDBRANCH  18  26
ENDBRANCH  16  23
ENDBRANCH   1  16
TORSDOF 6
ENDMDL
MODEL 5
REMARK VINA RESULT:      -7.8      1.514      4.357
REMARK  Name = 
REMARK  9 active torsions:
REMARK  status: ('A' for Active; 'I' for Inactive)
REMARK    1  A    between atoms: C_1  and  C_2
REMARK    2  A    between atoms: C_2  and  C_3
REMARK    3  A    between atoms: C_3  and  C_4
REMARK    4  A    between atoms: C_9  and  N_10
REMARK    5  A    between atoms: N_10  and  C_11
REMARK    6  A    between atoms: C_11  and  C_12
REMARK    7  A    between atoms: C_11  and  C_18
REMARK    8  A    between atoms: C_21  and  C_22
REMARK    9  A    between atoms: C_24  and  C_25
REMARK                            x       y       z     vdW  Elec       q    Type
REMARK                         _______ _______ _______ _____ _____    ______ ____
ROOT
ATOM      1  C   UNL     1       3.033   6.587  19.222  0.00  0.00    +0.000 C 
ENDROOT
BRANCH   1   2
ATOM      2  C   UNL     1       2.272   5.245  19.120  0.00  0.00    +0.000 A 
ATOM      3  C   UNL     1       1.736   4.842  17.879  0.00  0.00    +0.000 A 
ATOM      4  C   UNL     1       1.153   3.585  17.697  0.00  0.00    +0.000 A 
ATOM      5  C   UNL     1       1.086   2.681  18.753  0.00  0.00    +0.000 A 
ATOM      6  C   UNL     1       0.498   1.314  18.564  0.00  0.00    +0.000 C 
ATOM      7  C   UNL     1       1.541   3.090  20.011  0.00  0.00    +0.000 A 
ATOM      8  C   UNL     1       2.105   4.368  20.221  0.00  0.00    +0.000 A 
ATOM      9  C   UNL     1       2.526   4.709  21.625  0.00  0.00    +0.000 C 
ENDBRANCH   1   2
BRANCH   1  10
ATOM     10  C   UNL     1       2.122   7.790  19.349  0.00  0.00    +0.000 A 
ATOM     11  C   UNL     1       1.888   8.674  18.289  0.00  0.00    +0.000 A 
ATOM     12  C   UNL     1       1.144   9.827  18.502  0.00  0.00    +0.000 A 
ATOM     13  C   UNL     1       0.644  10.059  19.776  0.00  0.00    +0.000 A 
ATOM     14  N   UNL     1       0.826   9.227  20.820  0.00  0.00    +0.000 NA
ATOM     15  C   UNL     1       1.559   8.119  20.584  0.00  0.00    +0.000 A 
ENDBRANCH   1  10
BRANCH   1  16
ATOM     16  N   UNL     1       3.978   6.749  18.085  0.00  0.00    +0.000 NA
ATOM     17  H   UNL     1       3.455   6.562  17.232  0.00  0.00    +0.000 HD
BRANCH  16  23
ATOM     18  C   UNL     1       6.759   4.844  14.424  0.00  0.00    +0.000 C 
ATOM     19  O   UNL     1       7.768   5.463  14.101  0.00  0.00    +0.000 OA
ATOM     20  N   UNL     1       5.840   5.327  15.344  0.00  0.00    +0.000 N 
ATOM     21  C   UNL     1       6.013   6.690  15.840  0.00  0.00    +0.000 C 
ATOM     22  C   UNL     1       6.332   6.649  17.327  0.00  0.00    +0.000 C 
ATOM     23  C   UNL     1       5.212   5.940  18.121  0.00  0.00    +0.000 C 
ATOM     24  C   UNL     1       5.052   4.522  17.547  0.00  0.00    +0.000 C 
ATOM     25  C   UNL     1       4.818   4.529  16.035  0.00  0.00    +0.000 C 
BRANCH  18  26
ATOM     26  C   UNL     1       6.462   3.510  13.769  0.00  0.00    +0.000 C 
BRANCH  26  28
ATOM     27  C   UNL     1       5.589   2.451  11.661  0.00  0.00    +0.000 C 
ATOM     28  C   UNL     1       5.607   3.702  12.518  0.00  0.00    +0.000 C 
ENDBRANCH  26  28
ENDBRANCH  18  26
ENDBRANCH  16  23
ENDBRANCH   1  16
TORSDOF 6
ENDMDL
MODEL 6
REMARK VINA RESULT:      -7.5      5.550      9.554
REMARK  Name = 
REMARK  9 active torsions:
REMARK  status: ('A' for Active; 'I' for Inactive)
REMARK    1  A    between atoms: C_1  and  C_2
REMARK    2  A    between atoms: C_2  and  C_3
REMARK    3  A    between atoms: C_3  and  C_4
REMARK    4  A    between atoms: C_9  and  N_10
REMARK    5  A    between atoms: N_10  and  C_11
REMARK    6  A    between atoms: C_11  and  C_12
REMARK    7  A    between atoms: C_11  and  C_18
REMARK    8  A    between atoms: C_21  and  C_22
REMARK    9  A    between atoms: C_24  and  C_25
REMARK                            x       y       z     vdW  Elec       q    Type
REMARK                         _______ _______ _______ _____ _____    ______ ____
ROOT
ATOM      1  C   UNL     1       0.427  10.833  19.190  0.00  0.00    +0.000 C 
ENDROOT
BRANCH   1   2
ATOM      2  C   UNL     1       1.140   9.461  19.163  0.00  0.00    +0.000 A 
ATOM      3  C   UNL     1       1.831   9.060  17.999  0.00  0.00    +0.000 A 
ATOM      4  C   UNL     1       2.599   7.893  17.960  0.00  0.00    +0.000 A 
ATOM      5  C   UNL     1       2.706   7.083  19.086  0.00  0.00    +0.000 A 
ATOM      6  C   UNL     1       3.558   5.848  19.071  0.00  0.00    +0.000 C 
ATOM      7  C   UNL     1       1.968   7.422  20.225  0.00  0.00    +0.000 A 
ATOM      8  C   UNL     1       1.162   8.581  20.273  0.00  0.00    +0.000 A 
ATOM      9  C   UNL     1       0.384   8.823  21.539  0.00  0.00    +0.000 C 
ENDBRANCH   1   2
BRANCH   1  10
ATOM     10  C   UNL     1      -0.994  10.786  18.670  0.00  0.00    +0.000 A 
ATOM     11  C   UNL     1      -1.367  10.010  17.567  0.00  0.00    +0.000 A 
ATOM     12  C   UNL     1      -2.657  10.105  17.060  0.00  0.00    +0.000 A 
ATOM     13  C   UNL     1      -3.544  10.974  17.681  0.00  0.00    +0.000 A 
ATOM     14  N   UNL     1      -3.234  11.724  18.756  0.00  0.00    +0.000 NA
ATOM     15  C   UNL     1      -1.973  11.616  19.222  0.00  0.00    +0.000 A 
ENDBRANCH   1  10
BRANCH   1  16
ATOM     16  N   UNL     1       1.227  11.861  18.472  0.00  0.00    +0.000 NA
ATOM     17  H   UNL     1       1.723  11.384  17.722  0.00  0.00    +0.000 HD
BRANCH  16  23
ATOM     18  C   UNL     1       1.062  16.617  19.930  0.00  0.00    +0.000 C 
ATOM     19  O   UNL     1       0.665  16.844  21.069  0.00  0.00    +0.000 OA
ATOM     20  N   UNL     1       1.043  15.349  19.364  0.00  0.00    +0.000 N 
ATOM     21  C   UNL     1       0.395  14.273  20.108  0.00  0.00    +0.000 C 
ATOM     22  C   UNL     1       1.437  13.242  20.515  0.00  0.00    +0.000 C 
ATOM     23  C   UNL     1       2.165  12.664  19.281  0.00  0.00    +0.000 C 
ATOM     24  C   UNL     1       2.808  13.835  18.521  0.00  0.00    +0.000 C 
ATOM     25  C   UNL     1       1.798  14.931  18.175  0.00  0.00    +0.000 C 
BRANCH  18  26
ATOM     26  C   UNL     1       1.556  17.762  19.070  0.00  0.00    +0.000 C 
BRANCH  26  28
ATOM     27  C   UNL     1       0.937  18.622  16.790  0.00  0.00    +0.000 C 
ATOM     28  C   UNL     1       0.434  18.295  18.182  0.00  0.00    +0.000 C 
ENDBRANCH  26  28
ENDBRANCH  18  26
ENDBRANCH  16  23
ENDBRANCH   1  16
TORSDOF 6
ENDMDL
MODEL 7
REMARK VINA RESULT:      -7.4      2.447      7.174
REMARK  Name = 
REMARK  9 active torsions:
REMARK  status: ('A' for Active; 'I' for Inactive)
REMARK    1  A    between atoms: C_1  and  C_2
REMARK    2  A    between atoms: C_2  and  C_3
REMARK    3  A    between atoms: C_3  and  C_4
REMARK    4  A    between atoms: C_9  and  N_10
REMARK    5  A    between atoms: N_10  and  C_11
REMARK    6  A    between atoms: C_11  and  C_12
REMARK    7  A    between atoms: C_11  and  C_18
REMARK    8  A    between atoms: C_21  and  C_22
REMARK    9  A    between atoms: C_24  and  C_25
REMARK                            x       y       z     vdW  Elec       q    Type
REMARK                         _______ _______ _______ _____ _____    ______ ____
ROOT
ATOM      1  C   UNL     1       6.125   4.085  16.094  0.00  0.00    +0.000 C 
ENDROOT
BRANCH   1   2
ATOM      2  C   UNL     1       6.628   5.342  16.839  0.00  0.00    +0.000 A 
ATOM      3  C   UNL     1       7.660   5.219  17.794  0.00  0.00    +0.000 A 
ATOM      4  C   UNL     1       8.242   6.333  18.403  0.00  0.00    +0.000 A 
ATOM      5  C   UNL     1       7.814   7.617  18.078  0.00  0.00    +0.000 A 
ATOM      6  C   UNL     1       8.456   8.825  18.694  0.00  0.00    +0.000 C 
ATOM      7  C   UNL     1       6.740   7.758  17.193  0.00  0.00    +0.000 A 
ATOM      8  C   UNL     1       6.119   6.641  16.591  0.00  0.00    +0.000 A 
ATOM      9  C   UNL     1       4.949   6.914  15.683  0.00  0.00    +0.000 C 
ENDBRANCH   1   2
BRANCH   1  10
ATOM     10  C   UNL     1       6.331   4.147  14.595  0.00  0.00    +0.000 A 
ATOM     11  C   UNL     1       5.531   3.435  13.694  0.00  0.00    +0.000 A 
ATOM     12  C   UNL     1       5.848   3.433  12.341  0.00  0.00    +0.000 A 
ATOM     13  C   UNL     1       6.958   4.156  11.926  0.00  0.00    +0.000 A 
ATOM     14  N   UNL     1       7.744   4.871  12.755  0.00  0.00    +0.000 NA
ATOM     15  C   UNL     1       7.415   4.849  14.063  0.00  0.00    +0.000 A 
ENDBRANCH   1  10
BRANCH   1  16
ATOM     16  N   UNL     1       4.703   3.804  16.428  0.00  0.00    +0.000 NA
ATOM     17  H   UNL     1       4.200   4.687  16.363  0.00  0.00    +0.000 HD
BRANCH  16  23
ATOM     18  C   UNL     1       1.461   4.899  20.042  0.00  0.00    +0.000 C 
ATOM     19  O   UNL     1       0.413   4.261  20.071  0.00  0.00    +0.000 OA
ATOM     20  N   UNL     1       2.392   4.773  19.020  0.00  0.00    +0.000 N 
ATOM     21  C   UNL     1       2.038   3.952  17.865  0.00  0.00    +0.000 C 
ATOM     22  C   UNL     1       2.951   2.736  17.812  0.00  0.00    +0.000 C 
ATOM     23  C   UNL     1       4.437   3.153  17.725  0.00  0.00    +0.000 C 
ATOM     24  C   UNL     1       4.751   4.033  18.946  0.00  0.00    +0.000 C 
ATOM     25  C   UNL     1       3.791   5.217  19.075  0.00  0.00    +0.000 C 
BRANCH  18  26
ATOM     26  C   UNL     1       1.753   5.905  21.136  0.00  0.00    +0.000 C 
BRANCH  26  28
ATOM     27  C   UNL     1       0.610   8.125  21.432  0.00  0.00    +0.000 C 
ATOM     28  C   UNL     1       1.607   7.332  20.612  0.00  0.00    +0.000 C 
ENDBRANCH  26  28
ENDBRANCH  18  26
ENDBRANCH  16  23
ENDBRANCH   1  16
TORSDOF 6
ENDMDL
MODEL 8
REMARK VINA RESULT:      -7.3      2.361      7.065
REMARK  Name = 
REMARK  9 active torsions:
REMARK  status: ('A' for Active; 'I' for Inactive)
REMARK    1  A    between atoms: C_1  and  C_2
REMARK    2  A    between atoms: C_2  and  C_3
REMARK    3  A    between atoms: C_3  and  C_4
REMARK    4  A    between atoms: C_9  and  N_10
REMARK    5  A    between atoms: N_10  and  C_11
REMARK    6  A    between atoms: C_11  and  C_12
REMARK    7  A    between atoms: C_11  and  C_18
REMARK    8  A    between atoms: C_21  and  C_22
REMARK    9  A    between atoms: C_24  and  C_25
REMARK                            x       y       z     vdW  Elec       q    Type
REMARK                         _______ _______ _______ _____ _____    ______ ____
ROOT
ATOM      1  C   UNL     1       4.651   4.889  18.585  0.00  0.00    +0.000 C 
ENDROOT
BRANCH   1   2
ATOM      2  C   UNL     1       5.431   4.778  17.255  0.00  0.00    +0.000 A 
ATOM      3  C   UNL     1       4.730   4.518  16.058  0.00  0.00    +0.000 A 
ATOM      4  C   UNL     1       5.362   4.535  14.812  0.00  0.00    +0.000 A 
ATOM      5  C   UNL     1       6.722   4.813  14.716  0.00  0.00    +0.000 A 
ATOM      6  C   UNL     1       7.406   4.873  13.383  0.00  0.00    +0.000 C 
ATOM      7  C   UNL     1       7.450   4.997  15.896  0.00  0.00    +0.000 A 
ATOM      8  C   UNL     1       6.834   4.953  17.166  0.00  0.00    +0.000 A 
ATOM      9  C   UNL     1       7.725   5.128  18.367  0.00  0.00    +0.000 C 
ENDBRANCH   1   2
BRANCH   1  10
ATOM     10  C   UNL     1       3.678   3.751  18.813  0.00  0.00    +0.000 A 
ATOM     11  C   UNL     1       2.938   3.174  17.775  0.00  0.00    +0.000 A 
ATOM     12  C   UNL     1       1.971   2.219  18.064  0.00  0.00    +0.000 A 
ATOM     13  C   UNL     1       1.777   1.862  19.392  0.00  0.00    +0.000 A 
ATOM     14  N   UNL     1       2.480   2.377  20.420  0.00  0.00    +0.000 NA
ATOM     15  C   UNL     1       3.407   3.306  20.109  0.00  0.00    +0.000 A 
ENDBRANCH   1  10
BRANCH   1  16
ATOM     16  N   UNL     1       3.968   6.207  18.691  0.00  0.00    +0.000 NA
ATOM     17  H   UNL     1       4.230   6.608  19.589  0.00  0.00    +0.000 HD
BRANCH  16  23
ATOM     18  C   UNL     1       0.586   9.741  19.609  0.00  0.00    +0.000 C 
ATOM     19  O   UNL     1       0.194  10.407  18.656  0.00  0.00    +0.000 OA
ATOM     20  N   UNL     1       1.610   8.809  19.507  0.00  0.00    +0.000 N 
ATOM     21  C   UNL     1       2.340   8.724  18.246  0.00  0.00    +0.000 C 
ATOM     22  C   UNL     1       2.077   7.372  17.600  0.00  0.00    +0.000 C 
ATOM     23  C   UNL     1       2.501   6.214  18.531  0.00  0.00    +0.000 C 
ATOM     24  C   UNL     1       1.725   6.361  19.850  0.00  0.00    +0.000 C 
ATOM     25  C   UNL     1       1.900   7.746  20.478  0.00  0.00    +0.000 C 
BRANCH  18  26
ATOM     26  C   UNL     1      -0.031   9.958  20.976  0.00  0.00    +0.000 C 
BRANCH  26  28
ATOM     27  C   UNL     1      -0.935  11.686  22.563  0.00  0.00    +0.000 C 
ATOM     28  C   UNL     1      -0.450  11.416  21.153  0.00  0.00    +0.000 C 
ENDBRANCH  26  28
ENDBRANCH  18  26
ENDBRANCH  16  23
ENDBRANCH   1  16
TORSDOF 6
ENDMDL
MODEL 9
REMARK VINA RESULT:      -7.3      5.463      9.535
REMARK  Name = 
REMARK  9 active torsions:
REMARK  status: ('A' for Active; 'I' for Inactive)
REMARK    1  A    between atoms: C_1  and  C_2
REMARK    2  A    between atoms: C_2  and  C_3
REMARK    3  A    between atoms: C_3  and  C_4
REMARK    4  A    between atoms: C_9  and  N_10
REMARK    5  A    between atoms: N_10  and  C_11
REMARK    6  A    between atoms: C_11  and  C_12
REMARK    7  A    between atoms: C_11  and  C_18
REMARK    8  A    between atoms: C_21  and  C_22
REMARK    9  A    between atoms: C_24  and  C_25
REMARK                            x       y       z     vdW  Elec       q    Type
REMARK                         _______ _______ _______ _____ _____    ______ ____
ROOT
ATOM      1  C   UNL     1       0.135  10.977  19.110  0.00  0.00    +0.000 C 
ENDROOT
BRANCH   1   2
ATOM      2  C   UNL     1       0.911   9.641  19.050  0.00  0.00    +0.000 A 
ATOM      3  C   UNL     1       1.551   9.261  17.851  0.00  0.00    +0.000 A 
ATOM      4  C   UNL     1       2.371   8.133  17.775  0.00  0.00    +0.000 A 
ATOM      5  C   UNL     1       2.584   7.340  18.899  0.00  0.00    +0.000 A 
ATOM      6  C   UNL     1       3.493   6.148  18.843  0.00  0.00    +0.000 C 
ATOM      7  C   UNL     1       1.897   7.654  20.076  0.00  0.00    +0.000 A 
ATOM      8  C   UNL     1       1.040   8.774  20.163  0.00  0.00    +0.000 A 
ATOM      9  C   UNL     1       0.326   8.990  21.471  0.00  0.00    +0.000 C 
ENDBRANCH   1   2
BRANCH   1  10
ATOM     10  C   UNL     1      -1.287  10.873  18.599  0.00  0.00    +0.000 A 
ATOM     11  C   UNL     1      -1.663   9.977  17.592  0.00  0.00    +0.000 A 
ATOM     12  C   UNL     1      -2.952  10.015  17.078  0.00  0.00    +0.000 A 
ATOM     13  C   UNL     1      -3.838  10.950  17.597  0.00  0.00    +0.000 A 
ATOM     14  N   UNL     1      -3.526  11.818  18.580  0.00  0.00    +0.000 NA
ATOM     15  C   UNL     1      -2.265  11.761  19.054  0.00  0.00    +0.000 A 
ENDBRANCH   1  10
BRANCH   1  16
ATOM     16  N   UNL     1       0.880  12.055  18.405  0.00  0.00    +0.000 NA
ATOM     17  H   UNL     1       1.122  11.698  17.484  0.00  0.00    +0.000 HD
BRANCH  16  23
ATOM     18  C   UNL     1       1.584  16.261  20.971  0.00  0.00    +0.000 C 
ATOM     19  O   UNL     1       1.535  16.189  22.195  0.00  0.00    +0.000 OA
ATOM     20  N   UNL     1       1.288  15.188  20.141  0.00  0.00    +0.000 N 
ATOM     21  C   UNL     1       0.763  13.970  20.752  0.00  0.00    +0.000 C 
ATOM     22  C   UNL     1       1.770  12.843  20.576  0.00  0.00    +0.000 C 
ATOM     23  C   UNL     1       2.076  12.593  19.082  0.00  0.00    +0.000 C 
ATOM     24  C   UNL     1       2.601  13.907  18.481  0.00  0.00    +0.000 C 
ATOM     25  C   UNL     1       1.647  15.079  18.721  0.00  0.00    +0.000 C 
BRANCH  18  26
ATOM     26  C   UNL     1       1.937  17.579  20.314  0.00  0.00    +0.000 C 
BRANCH  26  28
ATOM     27  C   UNL     1       4.414  17.178  20.150  0.00  0.00    +0.000 C 
ATOM     28  C   UNL     1       3.325  18.045  20.749  0.00  0.00    +0.000 C 
ENDBRANCH  26  28
ENDBRANCH  18  26
ENDBRANCH  16  23
ENDBRANCH   1  16
TORSDOF 6
ENDMDL
