MODEL 1
REMARK VINA RESULT:      -7.5      0.000      0.000
REMARK  Name = 
REMARK  5 active torsions:
REMARK  status: ('A' for Active; 'I' for Inactive)
REMARK    1  A    between atoms: C_1  and  C_2
REMARK    2  A    between atoms: C_4  and  C_5
REMARK    3  A    between atoms: C_13  and  C_14
REMARK    4  A    between atoms: N_15  and  C_16
REMARK    5  A    between atoms: C_21  and  C_22
REMARK                            x       y       z     vdW  Elec       q    Type
REMARK                         _______ _______ _______ _____ _____    ______ ____
ROOT
ATOM      1  C   UNL     1      -0.353   9.344  21.960  0.00  0.00    +0.000 C 
ATOM      2  C   UNL     1       0.675   9.019  20.928  0.00  0.00    +0.000 A 
ATOM      3  C   UNL     1       1.421   7.856  20.911  0.00  0.00    +0.000 A 
ATOM      4  C   UNL     1       2.032   7.764  19.656  0.00  0.00    +0.000 A 
ATOM      5  C   UNL     1       1.753   8.918  18.947  0.00  0.00    +0.000 A 
ATOM      6  C   UNL     1       2.246   9.257  17.575  0.00  0.00    +0.000 C 
ATOM      7  N   UNL     1       0.970   9.754  19.772  0.00  0.00    +0.000 N 
ENDROOT
BRANCH   4   8
ATOM      8  C   UNL     1       2.783   6.657  19.173  0.00  0.00    +0.000 C 
ATOM      9  C   UNL     1       2.620   5.382  19.558  0.00  0.00    +0.000 C 
ATOM     10  S   UNL     1       1.496   4.749  20.706  0.00  0.00    +0.000 S 
ATOM     11  C   UNL     1       2.067   3.115  20.482  0.00  0.00    +0.000 C 
ATOM     12  O   UNL     1       1.620   2.141  21.064  0.00  0.00    +0.000 OA
ATOM     13  N   UNL     1       3.071   3.100  19.568  0.00  0.00    +0.000 N 
ATOM     14  C   UNL     1       3.442   4.275  19.003  0.00  0.00    +0.000 C 
ATOM     15  O   UNL     1       4.306   4.400  18.150  0.00  0.00    +0.000 OA
ATOM     16  H   UNL     1       3.515   2.233  19.303  0.00  0.00    +0.000 HD
ENDBRANCH   4   8
BRANCH   7  17
ATOM     17  C   UNL     1       0.514  11.080  19.430  0.00  0.00    +0.000 A 
ATOM     18  C   UNL     1       1.191  12.175  20.009  0.00  0.00    +0.000 A 
ATOM     19  C   UNL     1       0.778  13.496  19.813  0.00  0.00    +0.000 A 
ATOM     20  C   UNL     1      -0.278  13.765  18.962  0.00  0.00    +0.000 A 
ATOM     21  C   UNL     1      -0.934  12.707  18.341  0.00  0.00    +0.000 A 
ATOM     22  C   UNL     1      -0.592  11.350  18.596  0.00  0.00    +0.000 A 
BRANCH  22  23
ATOM     23  C   UNL     1      -1.560  10.353  18.002  0.00  0.00    +0.000 C 
ATOM     24  F   UNL     1      -2.608  10.873  17.316  0.00  0.00    +0.000 F 
ATOM     25  F   UNL     1      -0.943   9.522  17.107  0.00  0.00    +0.000 F 
ATOM     26  F   UNL     1      -2.078   9.516  18.946  0.00  0.00    +0.000 F 
ENDBRANCH  22  23
ENDBRANCH   7  17
TORSDOF 3
ENDMDL
MODEL 2
REMARK VINA RESULT:      -7.4      5.339      7.915
REMARK  Name = 
REMARK  5 active torsions:
REMARK  status: ('A' for Active; 'I' for Inactive)
REMARK    1  A    between atoms: C_1  and  C_2
REMARK    2  A    between atoms: C_4  and  C_5
REMARK    3  A    between atoms: C_13  and  C_14
REMARK    4  A    between atoms: N_15  and  C_16
REMARK    5  A    between atoms: C_21  and  C_22
REMARK                            x       y       z     vdW  Elec       q    Type
REMARK                         _______ _______ _______ _____ _____    ______ ____
ROOT
ATOM      1  C   UNL     1       6.590   5.153  19.506  0.00  0.00    +0.000 C 
ATOM      2  C   UNL     1       5.773   4.691  18.346  0.00  0.00    +0.000 A 
ATOM      3  C   UNL     1       6.216   4.681  17.037  0.00  0.00    +0.000 A 
ATOM      4  C   UNL     1       5.320   3.906  16.294  0.00  0.00    +0.000 A 
ATOM      5  C   UNL     1       4.273   3.535  17.117  0.00  0.00    +0.000 A 
ATOM      6  C   UNL     1       3.070   2.737  16.720  0.00  0.00    +0.000 C 
ATOM      7  N   UNL     1       4.505   4.097  18.392  0.00  0.00    +0.000 N 
ENDROOT
BRANCH   4   8
ATOM      8  C   UNL     1       5.473   3.530  14.930  0.00  0.00    +0.000 C 
ATOM      9  C   UNL     1       6.285   4.132  14.047  0.00  0.00    +0.000 C 
ATOM     10  S   UNL     1       7.332   5.480  14.307  0.00  0.00    +0.000 S 
ATOM     11  C   UNL     1       7.891   5.462  12.653  0.00  0.00    +0.000 C 
ATOM     12  O   UNL     1       8.713   6.238  12.194  0.00  0.00    +0.000 OA
ATOM     13  N   UNL     1       7.279   4.461  11.971  0.00  0.00    +0.000 N 
ATOM     14  C   UNL     1       6.396   3.678  12.637  0.00  0.00    +0.000 C 
ATOM     15  O   UNL     1       5.799   2.729  12.154  0.00  0.00    +0.000 OA
ATOM     16  H   UNL     1       7.492   4.294  10.998  0.00  0.00    +0.000 HD
ENDBRANCH   4   8
BRANCH   7  17
ATOM     17  C   UNL     1       3.619   3.997  19.527  0.00  0.00    +0.000 A 
ATOM     18  C   UNL     1       3.603   2.779  20.240  0.00  0.00    +0.000 A 
ATOM     19  C   UNL     1       2.722   2.546  21.299  0.00  0.00    +0.000 A 
ATOM     20  C   UNL     1       1.886   3.560  21.731  0.00  0.00    +0.000 A 
ATOM     21  C   UNL     1       1.915   4.787  21.076  0.00  0.00    +0.000 A 
ATOM     22  C   UNL     1       2.734   5.018  19.937  0.00  0.00    +0.000 A 
BRANCH  22  23
ATOM     23  C   UNL     1       2.458   6.331  19.240  0.00  0.00    +0.000 C 
ATOM     24  F   UNL     1       1.689   7.217  19.919  0.00  0.00    +0.000 F 
ATOM     25  F   UNL     1       3.614   7.013  18.973  0.00  0.00    +0.000 F 
ATOM     26  F   UNL     1       1.877   6.150  18.020  0.00  0.00    +0.000 F 
ENDBRANCH  22  23
ENDBRANCH   7  17
TORSDOF 3
ENDMDL
MODEL 3
REMARK VINA RESULT:      -7.4      4.871      7.290
REMARK  Name = 
REMARK  5 active torsions:
REMARK  status: ('A' for Active; 'I' for Inactive)
REMARK    1  A    between atoms: C_1  and  C_2
REMARK    2  A    between atoms: C_4  and  C_5
REMARK    3  A    between atoms: C_13  and  C_14
REMARK    4  A    between atoms: N_15  and  C_16
REMARK    5  A    between atoms: C_21  and  C_22
REMARK                            x       y       z     vdW  Elec       q    Type
REMARK                         _______ _______ _______ _____ _____    ______ ____
ROOT
ATOM      1  C   UNL     1       2.322   7.656  18.713  0.00  0.00    +0.000 C 
ATOM      2  C   UNL     1       3.221   6.655  18.068  0.00  0.00    +0.000 A 
ATOM      3  C   UNL     1       4.047   6.927  16.995  0.00  0.00    +0.000 A 
ATOM      4  C   UNL     1       4.948   5.865  16.874  0.00  0.00    +0.000 A 
ATOM      5  C   UNL     1       4.607   4.894  17.796  0.00  0.00    +0.000 A 
ATOM      6  C   UNL     1       5.280   3.569  17.981  0.00  0.00    +0.000 C 
ATOM      7  N   UNL     1       3.466   5.343  18.496  0.00  0.00    +0.000 N 
ENDROOT
BRANCH   4   8
ATOM      8  C   UNL     1       6.053   5.805  15.979  0.00  0.00    +0.000 C 
ATOM      9  C   UNL     1       6.106   5.062  14.862  0.00  0.00    +0.000 C 
ATOM     10  S   UNL     1       4.895   4.010  14.221  0.00  0.00    +0.000 S 
ATOM     11  C   UNL     1       5.889   3.573  12.854  0.00  0.00    +0.000 C 
ATOM     12  O   UNL     1       5.549   2.803  11.972  0.00  0.00    +0.000 OA
ATOM     13  N   UNL     1       7.081   4.220  12.926  0.00  0.00    +0.000 N 
ATOM     14  C   UNL     1       7.295   5.055  13.972  0.00  0.00    +0.000 C 
ATOM     15  O   UNL     1       8.305   5.718  14.142  0.00  0.00    +0.000 OA
ATOM     16  H   UNL     1       7.779   4.096  12.208  0.00  0.00    +0.000 HD
ENDBRANCH   4   8
BRANCH   7  17
ATOM     17  C   UNL     1       2.756   4.599  19.508  0.00  0.00    +0.000 A 
ATOM     18  C   UNL     1       3.161   4.766  20.850  0.00  0.00    +0.000 A 
ATOM     19  C   UNL     1       2.599   4.030  21.896  0.00  0.00    +0.000 A 
ATOM     20  C   UNL     1       1.552   3.164  21.640  0.00  0.00    +0.000 A 
ATOM     21  C   UNL     1       1.101   3.014  20.333  0.00  0.00    +0.000 A 
ATOM     22  C   UNL     1       1.718   3.681  19.239  0.00  0.00    +0.000 A 
BRANCH  22  23
ATOM     23  C   UNL     1       1.228   3.218  17.885  0.00  0.00    +0.000 C 
ATOM     24  F   UNL     1       0.206   2.327  17.892  0.00  0.00    +0.000 F 
ATOM     25  F   UNL     1       0.768   4.263  17.130  0.00  0.00    +0.000 F 
ATOM     26  F   UNL     1       2.230   2.671  17.138  0.00  0.00    +0.000 F 
ENDBRANCH  22  23
ENDBRANCH   7  17
TORSDOF 3
ENDMDL
MODEL 4
REMARK VINA RESULT:      -7.4      5.265      7.602
REMARK  Name = 
REMARK  5 active torsions:
REMARK  status: ('A' for Active; 'I' for Inactive)
REMARK    1  A    between atoms: C_1  and  C_2
REMARK    2  A    between atoms: C_4  and  C_5
REMARK    3  A    between atoms: C_13  and  C_14
REMARK    4  A    between atoms: N_15  and  C_16
REMARK    5  A    between atoms: C_21  and  C_22
REMARK                            x       y       z     vdW  Elec       q    Type
REMARK                         _______ _______ _______ _____ _____    ______ ____
ROOT
ATOM      1  C   UNL     1       2.259   7.502  18.389  0.00  0.00    +0.000 C 
ATOM      2  C   UNL     1       3.227   6.534  17.795  0.00  0.00    +0.000 A 
ATOM      3  C   UNL     1       4.038   6.809  16.711  0.00  0.00    +0.000 A 
ATOM      4  C   UNL     1       5.009   5.805  16.643  0.00  0.00    +0.000 A 
ATOM      5  C   UNL     1       4.730   4.860  17.612  0.00  0.00    +0.000 A 
ATOM      6  C   UNL     1       5.490   3.594  17.862  0.00  0.00    +0.000 C 
ATOM      7  N   UNL     1       3.558   5.265  18.288  0.00  0.00    +0.000 N 
ENDROOT
BRANCH   4   8
ATOM      8  C   UNL     1       6.119   5.776  15.754  0.00  0.00    +0.000 C 
ATOM      9  C   UNL     1       6.208   5.019  14.650  0.00  0.00    +0.000 C 
ATOM     10  S   UNL     1       5.045   3.907  14.022  0.00  0.00    +0.000 S 
ATOM     11  C   UNL     1       6.062   3.490  12.666  0.00  0.00    +0.000 C 
ATOM     12  O   UNL     1       5.759   2.691  11.795  0.00  0.00    +0.000 OA
ATOM     13  N   UNL     1       7.225   4.187  12.731  0.00  0.00    +0.000 N 
ATOM     14  C   UNL     1       7.401   5.047  13.764  0.00  0.00    +0.000 C 
ATOM     15  O   UNL     1       8.382   5.753  13.927  0.00  0.00    +0.000 OA
ATOM     16  H   UNL     1       7.932   4.079  12.018  0.00  0.00    +0.000 HD
ENDBRANCH   4   8
BRANCH   7  17
ATOM     17  C   UNL     1       2.895   4.524  19.334  0.00  0.00    +0.000 A 
ATOM     18  C   UNL     1       2.980   5.030  20.649  0.00  0.00    +0.000 A 
ATOM     19  C   UNL     1       2.447   4.348  21.746  0.00  0.00    +0.000 A 
ATOM     20  C   UNL     1       1.739   3.177  21.548  0.00  0.00    +0.000 A 
ATOM     21  C   UNL     1       1.600   2.680  20.256  0.00  0.00    +0.000 A 
ATOM     22  C   UNL     1       2.211   3.305  19.135  0.00  0.00    +0.000 A 
BRANCH  22  23
ATOM     23  C   UNL     1       2.128   2.495  17.861  0.00  0.00    +0.000 C 
ATOM     24  F   UNL     1       2.173   3.198  16.702  0.00  0.00    +0.000 F 
ATOM     25  F   UNL     1       3.160   1.602  17.763  0.00  0.00    +0.000 F 
ATOM     26  F   UNL     1       1.003   1.725  17.817  0.00  0.00    +0.000 F 
ENDBRANCH  22  23
ENDBRANCH   7  17
TORSDOF 3
ENDMDL
MODEL 5
REMARK VINA RESULT:      -7.2      4.900      8.185
REMARK  Name = 
REMARK  5 active torsions:
REMARK  status: ('A' for Active; 'I' for Inactive)
REMARK    1  A    between atoms: C_1  and  C_2
REMARK    2  A    between atoms: C_4  and  C_5
REMARK    3  A    between atoms: C_13  and  C_14
REMARK    4  A    between atoms: N_15  and  C_16
REMARK    5  A    between atoms: C_21  and  C_22
REMARK                            x       y       z     vdW  Elec       q    Type
REMARK                         _______ _______ _______ _____ _____    ______ ____
ROOT
ATOM      1  C   UNL     1       3.521   2.452  17.727  0.00  0.00    +0.000 C 
ATOM      2  C   UNL     1       3.421   3.923  17.954  0.00  0.00    +0.000 A 
ATOM      3  C   UNL     1       2.563   4.515  18.862  0.00  0.00    +0.000 A 
ATOM      4  C   UNL     1       2.966   5.845  19.020  0.00  0.00    +0.000 A 
ATOM      5  C   UNL     1       3.995   6.099  18.133  0.00  0.00    +0.000 A 
ATOM      6  C   UNL     1       4.694   7.408  17.936  0.00  0.00    +0.000 C 
ATOM      7  N   UNL     1       4.233   4.919  17.395  0.00  0.00    +0.000 N 
ENDROOT
BRANCH   4   8
ATOM      8  C   UNL     1       2.435   6.772  19.959  0.00  0.00    +0.000 C 
ATOM      9  C   UNL     1       1.769   7.894  19.647  0.00  0.00    +0.000 C 
ATOM     10  S   UNL     1       1.385   8.507  18.079  0.00  0.00    +0.000 S 
ATOM     11  C   UNL     1       0.570   9.903  18.740  0.00  0.00    +0.000 C 
ATOM     12  O   UNL     1       0.040  10.774  18.070  0.00  0.00    +0.000 OA
ATOM     13  N   UNL     1       0.616   9.863  20.096  0.00  0.00    +0.000 N 
ATOM     14  C   UNL     1       1.237   8.814  20.687  0.00  0.00    +0.000 C 
ATOM     15  O   UNL     1       1.325   8.640  21.891  0.00  0.00    +0.000 OA
ATOM     16  H   UNL     1       0.181  10.589  20.648  0.00  0.00    +0.000 HD
ENDBRANCH   4   8
BRANCH   7  17
ATOM     17  C   UNL     1       5.189   4.778  16.323  0.00  0.00    +0.000 A 
ATOM     18  C   UNL     1       4.689   4.529  15.027  0.00  0.00    +0.000 A 
ATOM     19  C   UNL     1       5.530   4.291  13.936  0.00  0.00    +0.000 A 
ATOM     20  C   UNL     1       6.900   4.379  14.095  0.00  0.00    +0.000 A 
ATOM     21  C   UNL     1       7.419   4.669  15.352  0.00  0.00    +0.000 A 
ATOM     22  C   UNL     1       6.590   4.823  16.497  0.00  0.00    +0.000 A 
BRANCH  22  23
ATOM     23  C   UNL     1       7.353   4.913  17.799  0.00  0.00    +0.000 C 
ATOM     24  F   UNL     1       6.665   4.574  18.918  0.00  0.00    +0.000 F 
ATOM     25  F   UNL     1       8.444   4.087  17.803  0.00  0.00    +0.000 F 
ATOM     26  F   UNL     1       7.865   6.159  18.007  0.00  0.00    +0.000 F 
ENDBRANCH  22  23
ENDBRANCH   7  17
TORSDOF 3
ENDMDL
MODEL 6
REMARK VINA RESULT:      -7.2      1.889      2.440
REMARK  Name = 
REMARK  5 active torsions:
REMARK  status: ('A' for Active; 'I' for Inactive)
REMARK    1  A    between atoms: C_1  and  C_2
REMARK    2  A    between atoms: C_4  and  C_5
REMARK    3  A    between atoms: C_13  and  C_14
REMARK    4  A    between atoms: N_15  and  C_16
REMARK    5  A    between atoms: C_21  and  C_22
REMARK                            x       y       z     vdW  Elec       q    Type
REMARK                         _______ _______ _______ _____ _____    ______ ____
ROOT
ATOM      1  C   UNL     1      -0.502   9.037  22.084  0.00  0.00    +0.000 C 
ATOM      2  C   UNL     1       0.541   8.762  21.054  0.00  0.00    +0.000 A 
ATOM      3  C   UNL     1       1.578   7.862  21.215  0.00  0.00    +0.000 A 
ATOM      4  C   UNL     1       2.148   7.644  19.957  0.00  0.00    +0.000 A 
ATOM      5  C   UNL     1       1.540   8.488  19.047  0.00  0.00    +0.000 A 
ATOM      6  C   UNL     1       1.874   8.617  17.594  0.00  0.00    +0.000 C 
ATOM      7  N   UNL     1       0.584   9.260  19.744  0.00  0.00    +0.000 N 
ENDROOT
BRANCH   4   8
ATOM      8  C   UNL     1       3.159   6.691  19.653  0.00  0.00    +0.000 C 
ATOM      9  C   UNL     1       2.974   5.365  19.569  0.00  0.00    +0.000 C 
ATOM     10  S   UNL     1       1.512   4.474  19.798  0.00  0.00    +0.000 S 
ATOM     11  C   UNL     1       2.301   2.949  19.484  0.00  0.00    +0.000 C 
ATOM     12  O   UNL     1       1.739   1.866  19.497  0.00  0.00    +0.000 OA
ATOM     13  N   UNL     1       3.617   3.156  19.225  0.00  0.00    +0.000 N 
ATOM     14  C   UNL     1       4.081   4.429  19.240  0.00  0.00    +0.000 C 
ATOM     15  O   UNL     1       5.231   4.758  18.997  0.00  0.00    +0.000 OA
ATOM     16  H   UNL     1       4.228   2.382  19.009  0.00  0.00    +0.000 HD
ENDBRANCH   4   8
BRANCH   7  17
ATOM     17  C   UNL     1      -0.231  10.304  19.172  0.00  0.00    +0.000 A 
ATOM     18  C   UNL     1      -1.478   9.935  18.623  0.00  0.00    +0.000 A 
ATOM     19  C   UNL     1      -2.305  10.852  17.969  0.00  0.00    +0.000 A 
ATOM     20  C   UNL     1      -1.945  12.186  17.918  0.00  0.00    +0.000 A 
ATOM     21  C   UNL     1      -0.742  12.585  18.491  0.00  0.00    +0.000 A 
ATOM     22  C   UNL     1       0.160  11.658  19.080  0.00  0.00    +0.000 A 
BRANCH  22  23
ATOM     23  C   UNL     1       1.501  12.254  19.445  0.00  0.00    +0.000 C 
ATOM     24  F   UNL     1       2.555  11.862  18.688  0.00  0.00    +0.000 F 
ATOM     25  F   UNL     1       1.491  13.619  19.340  0.00  0.00    +0.000 F 
ATOM     26  F   UNL     1       1.831  12.013  20.746  0.00  0.00    +0.000 F 
ENDBRANCH  22  23
ENDBRANCH   7  17
TORSDOF 3
ENDMDL
MODEL 7
REMARK VINA RESULT:      -7.1      2.428      3.767
REMARK  Name = 
REMARK  5 active torsions:
REMARK  status: ('A' for Active; 'I' for Inactive)
REMARK    1  A    between atoms: C_1  and  C_2
REMARK    2  A    between atoms: C_4  and  C_5
REMARK    3  A    between atoms: C_13  and  C_14
REMARK    4  A    between atoms: N_15  and  C_16
REMARK    5  A    between atoms: C_21  and  C_22
REMARK                            x       y       z     vdW  Elec       q    Type
REMARK                         _______ _______ _______ _____ _____    ______ ____
ROOT
ATOM      1  C   UNL     1       2.426  10.554  17.977  0.00  0.00    +0.000 C 
ATOM      2  C   UNL     1       2.224   9.111  18.299  0.00  0.00    +0.000 A 
ATOM      3  C   UNL     1       2.728   8.067  17.548  0.00  0.00    +0.000 A 
ATOM      4  C   UNL     1       2.610   6.901  18.311  0.00  0.00    +0.000 A 
ATOM      5  C   UNL     1       1.936   7.207  19.478  0.00  0.00    +0.000 A 
ATOM      6  C   UNL     1       1.554   6.247  20.561  0.00  0.00    +0.000 C 
ATOM      7  N   UNL     1       1.611   8.581  19.442  0.00  0.00    +0.000 N 
ENDROOT
BRANCH   4   8
ATOM      8  C   UNL     1       3.126   5.621  17.965  0.00  0.00    +0.000 C 
ATOM      9  C   UNL     1       4.299   5.398  17.353  0.00  0.00    +0.000 C 
ATOM     10  S   UNL     1       5.469   6.557  16.833  0.00  0.00    +0.000 S 
ATOM     11  C   UNL     1       6.534   5.320  16.214  0.00  0.00    +0.000 C 
ATOM     12  O   UNL     1       7.612   5.537  15.686  0.00  0.00    +0.000 OA
ATOM     13  N   UNL     1       5.981   4.096  16.413  0.00  0.00    +0.000 N 
ATOM     14  C   UNL     1       4.776   4.029  17.028  0.00  0.00    +0.000 C 
ATOM     15  O   UNL     1       4.182   2.996  17.294  0.00  0.00    +0.000 OA
ATOM     16  H   UNL     1       6.467   3.258  16.127  0.00  0.00    +0.000 HD
ENDBRANCH   4   8
BRANCH   7  17
ATOM     17  C   UNL     1       0.854   9.290  20.446  0.00  0.00    +0.000 A 
ATOM     18  C   UNL     1       1.208   9.090  21.797  0.00  0.00    +0.000 A 
ATOM     19  C   UNL     1       0.487   9.659  22.850  0.00  0.00    +0.000 A 
ATOM     20  C   UNL     1      -0.562  10.517  22.577  0.00  0.00    +0.000 A 
ATOM     21  C   UNL     1      -0.904  10.769  21.253  0.00  0.00    +0.000 A 
ATOM     22  C   UNL     1      -0.247  10.129  20.166  0.00  0.00    +0.000 A 
BRANCH  22  23
ATOM     23  C   UNL     1      -0.906  10.365  18.827  0.00  0.00    +0.000 C 
ATOM     24  F   UNL     1      -0.528  11.485  18.163  0.00  0.00    +0.000 F 
ATOM     25  F   UNL     1      -0.651   9.344  17.951  0.00  0.00    +0.000 F 
ATOM     26  F   UNL     1      -2.266  10.399  18.925  0.00  0.00    +0.000 F 
ENDBRANCH  22  23
ENDBRANCH   7  17
TORSDOF 3
ENDMDL
MODEL 8
REMARK VINA RESULT:      -7.0      2.294      3.534
REMARK  Name = 
REMARK  5 active torsions:
REMARK  status: ('A' for Active; 'I' for Inactive)
REMARK    1  A    between atoms: C_1  and  C_2
REMARK    2  A    between atoms: C_4  and  C_5
REMARK    3  A    between atoms: C_13  and  C_14
REMARK    4  A    between atoms: N_15  and  C_16
REMARK    5  A    between atoms: C_21  and  C_22
REMARK                            x       y       z     vdW  Elec       q    Type
REMARK                         _______ _______ _______ _____ _____    ______ ____
ROOT
ATOM      1  C   UNL     1       2.380  10.657  18.084  0.00  0.00    +0.000 C 
ATOM      2  C   UNL     1       2.148   9.209  18.353  0.00  0.00    +0.000 A 
ATOM      3  C   UNL     1       2.611   8.183  17.550  0.00  0.00    +0.000 A 
ATOM      4  C   UNL     1       2.479   6.991  18.268  0.00  0.00    +0.000 A 
ATOM      5  C   UNL     1       1.837   7.266  19.461  0.00  0.00    +0.000 A 
ATOM      6  C   UNL     1       1.455   6.272  20.513  0.00  0.00    +0.000 C 
ATOM      7  N   UNL     1       1.546   8.647  19.487  0.00  0.00    +0.000 N 
ENDROOT
BRANCH   4   8
ATOM      8  C   UNL     1       2.956   5.714  17.860  0.00  0.00    +0.000 C 
ATOM      9  C   UNL     1       4.231   5.304  17.933  0.00  0.00    +0.000 C 
ATOM     10  S   UNL     1       5.602   6.176  18.519  0.00  0.00    +0.000 S 
ATOM     11  C   UNL     1       6.683   4.842  18.203  0.00  0.00    +0.000 C 
ATOM     12  O   UNL     1       7.881   4.855  18.432  0.00  0.00    +0.000 OA
ATOM     13  N   UNL     1       5.989   3.803  17.672  0.00  0.00    +0.000 N 
ATOM     14  C   UNL     1       4.654   3.949  17.491  0.00  0.00    +0.000 C 
ATOM     15  O   UNL     1       3.909   3.088  17.053  0.00  0.00    +0.000 OA
ATOM     16  H   UNL     1       6.455   2.938  17.437  0.00  0.00    +0.000 HD
ENDBRANCH   4   8
BRANCH   7  17
ATOM     17  C   UNL     1       0.828   9.333  20.535  0.00  0.00    +0.000 A 
ATOM     18  C   UNL     1       1.203   9.067  21.869  0.00  0.00    +0.000 A 
ATOM     19  C   UNL     1       0.519   9.611  22.959  0.00  0.00    +0.000 A 
ATOM     20  C   UNL     1      -0.513  10.507  22.744  0.00  0.00    +0.000 A 
ATOM     21  C   UNL     1      -0.873  10.823  21.438  0.00  0.00    +0.000 A 
ATOM     22  C   UNL     1      -0.254  10.212  20.313  0.00  0.00    +0.000 A 
BRANCH  22  23
ATOM     23  C   UNL     1      -0.934  10.521  18.998  0.00  0.00    +0.000 C 
ATOM     24  F   UNL     1      -0.914   9.532  18.069  0.00  0.00    +0.000 F 
ATOM     25  F   UNL     1      -2.261  10.805  19.169  0.00  0.00    +0.000 F 
ATOM     26  F   UNL     1      -0.418  11.635  18.404  0.00  0.00    +0.000 F 
ENDBRANCH  22  23
ENDBRANCH   7  17
TORSDOF 3
ENDMDL
MODEL 9
REMARK VINA RESULT:      -7.0      1.234      2.380
REMARK  Name = 
REMARK  5 active torsions:
REMARK  status: ('A' for Active; 'I' for Inactive)
REMARK    1  A    between atoms: C_1  and  C_2
REMARK    2  A    between atoms: C_4  and  C_5
REMARK    3  A    between atoms: C_13  and  C_14
REMARK    4  A    between atoms: N_15  and  C_16
REMARK    5  A    between atoms: C_21  and  C_22
REMARK                            x       y       z     vdW  Elec       q    Type
REMARK                         _______ _______ _______ _____ _____    ______ ____
ROOT
ATOM      1  C   UNL     1       2.549   9.877  17.661  0.00  0.00    +0.000 C 
ATOM      2  C   UNL     1       1.901   9.024  18.698  0.00  0.00    +0.000 A 
ATOM      3  C   UNL     1       2.184   7.685  18.894  0.00  0.00    +0.000 A 
ATOM      4  C   UNL     1       1.634   7.312  20.124  0.00  0.00    +0.000 A 
ATOM      5  C   UNL     1       0.921   8.384  20.629  0.00  0.00    +0.000 A 
ATOM      6  C   UNL     1       0.136   8.407  21.903  0.00  0.00    +0.000 C 
ATOM      7  N   UNL     1       1.011   9.441  19.697  0.00  0.00    +0.000 N 
ENDROOT
BRANCH   4   8
ATOM      8  C   UNL     1       1.805   6.056  20.768  0.00  0.00    +0.000 C 
ATOM      9  C   UNL     1       1.957   4.878  20.143  0.00  0.00    +0.000 C 
ATOM     10  S   UNL     1       1.987   4.568  18.444  0.00  0.00    +0.000 S 
ATOM     11  C   UNL     1       2.219   2.855  18.683  0.00  0.00    +0.000 C 
ATOM     12  O   UNL     1       2.328   2.041  17.781  0.00  0.00    +0.000 OA
ATOM     13  N   UNL     1       2.263   2.577  20.011  0.00  0.00    +0.000 N 
ATOM     14  C   UNL     1       2.137   3.604  20.885  0.00  0.00    +0.000 C 
ATOM     15  O   UNL     1       2.187   3.499  22.100  0.00  0.00    +0.000 OA
ATOM     16  H   UNL     1       2.405   1.631  20.335  0.00  0.00    +0.000 HD
ENDBRANCH   4   8
BRANCH   7  17
ATOM     17  C   UNL     1       0.357  10.722  19.816  0.00  0.00    +0.000 A 
ATOM     18  C   UNL     1       0.812  11.598  20.825  0.00  0.00    +0.000 A 
ATOM     19  C   UNL     1       0.195  12.825  21.082  0.00  0.00    +0.000 A 
ATOM     20  C   UNL     1      -0.847  13.250  20.278  0.00  0.00    +0.000 A 
ATOM     21  C   UNL     1      -1.286  12.427  19.246  0.00  0.00    +0.000 A 
ATOM     22  C   UNL     1      -0.736  11.134  19.023  0.00  0.00    +0.000 A 
BRANCH  22  23
ATOM     23  C   UNL     1      -1.493  10.314  18.003  0.00  0.00    +0.000 C 
ATOM     24  F   UNL     1      -0.739   9.571  17.156  0.00  0.00    +0.000 F 
ATOM     25  F   UNL     1      -2.329   9.411  18.602  0.00  0.00    +0.000 F 
ATOM     26  F   UNL     1      -2.315  11.085  17.235  0.00  0.00    +0.000 F 
ENDBRANCH  22  23
ENDBRANCH   7  17
TORSDOF 3
ENDMDL
