MODEL 1
REMARK VINA RESULT:      -7.6      0.000      0.000
REMARK  Name = 
REMARK  9 active torsions:
REMARK  status: ('A' for Active; 'I' for Inactive)
REMARK    1  A    between atoms: C_1  and  C_2
REMARK    2  A    between atoms: C_5  and  C_6
REMARK    3  A    between atoms: C_6  and  C_7
REMARK    4  A    between atoms: C_6  and  N_8
REMARK    5  A    between atoms: C_9  and  C_11
REMARK    6  A    between atoms: C_11  and  O_12
REMARK    7  A    between atoms: O_12  and  C_13
REMARK    8  A    between atoms: C_13  and  C_15
REMARK    9  A    between atoms: C_22  and  C_23
REMARK                            x       y       z     vdW  Elec       q    Type
REMARK                         _______ _______ _______ _____ _____    ______ ____
ROOT
ATOM      1  N   UNL     1       3.449   5.119  18.593  0.00  0.00    +0.000 N 
ATOM      2  C   UNL     1       4.597   4.348  18.639  0.00  0.00    +0.000 C 
ATOM      3  O   UNL     1       5.297   4.243  19.640  0.00  0.00    +0.000 OA
ATOM      4  H   UNL     1       2.896   5.112  17.744  0.00  0.00    +0.000 HD
ENDROOT
BRANCH   1   5
ATOM      5  C   UNL     1       2.906   5.733  19.795  0.00  0.00    +0.000 C 
ATOM      6  C   UNL     1       1.899   4.808  20.483  0.00  0.00    +0.000 C 
BRANCH   5  11
ATOM      7  C   UNL     1       0.433  10.954  18.788  0.00  0.00    +0.000 C 
ATOM      8  C   UNL     1       1.080   9.621  19.062  0.00  0.00    +0.000 A 
ATOM      9  C   UNL     1       1.769   8.961  18.036  0.00  0.00    +0.000 A 
ATOM     10  C   UNL     1       2.380   7.715  18.259  0.00  0.00    +0.000 A 
ATOM     11  C   UNL     1       2.314   7.106  19.517  0.00  0.00    +0.000 A 
ATOM     12  C   UNL     1       1.630   7.778  20.544  0.00  0.00    +0.000 A 
ATOM     13  C   UNL     1       1.001   9.017  20.332  0.00  0.00    +0.000 A 
ATOM     14  C   UNL     1       0.246   9.663  21.460  0.00  0.00    +0.000 C 
ENDBRANCH   5  11
ENDBRANCH   1   5
BRANCH   2  15
ATOM     15  C   UNL     1       4.977   3.692  17.310  0.00  0.00    +0.000 C 
BRANCH  15  16
ATOM     16  O   UNL     1       5.414   4.636  16.331  0.00  0.00    +0.000 OA
BRANCH  16  17
ATOM     17  C   UNL     1       6.746   4.579  16.063  0.00  0.00    +0.000 C 
ATOM     18  O   UNL     1       7.633   4.470  16.894  0.00  0.00    +0.000 OA
BRANCH  17  19
ATOM     19  C   UNL     1       6.972   4.649  14.587  0.00  0.00    +0.000 C 
ATOM     20  C   UNL     1       6.282   3.787  13.832  0.00  0.00    +0.000 C 
ATOM     21  O   UNL     1       6.341   3.677  12.479  0.00  0.00    +0.000 OA
ATOM     22  C   UNL     1       7.248   4.557  11.828  0.00  0.00    +0.000 C 
ATOM     23  C   UNL     1       8.136   5.457  12.694  0.00  0.00    +0.000 C 
ATOM     24  O   UNL     1       7.836   5.586  14.080  0.00  0.00    +0.000 OA
ENDBRANCH  17  19
ENDBRANCH  16  17
ENDBRANCH  15  16
ENDBRANCH   2  15
TORSDOF 6
ENDMDL
MODEL 2
REMARK VINA RESULT:      -7.4      2.007      3.962
REMARK  Name = 
REMARK  9 active torsions:
REMARK  status: ('A' for Active; 'I' for Inactive)
REMARK    1  A    between atoms: C_1  and  C_2
REMARK    2  A    between atoms: C_5  and  C_6
REMARK    3  A    between atoms: C_6  and  C_7
REMARK    4  A    between atoms: C_6  and  N_8
REMARK    5  A    between atoms: C_9  and  C_11
REMARK    6  A    between atoms: C_11  and  O_12
REMARK    7  A    between atoms: O_12  and  C_13
REMARK    8  A    between atoms: C_13  and  C_15
REMARK    9  A    between atoms: C_22  and  C_23
REMARK                            x       y       z     vdW  Elec       q    Type
REMARK                         _______ _______ _______ _____ _____    ______ ____
ROOT
ATOM      1  N   UNL     1       4.702   6.652  17.859  0.00  0.00    +0.000 N 
ATOM      2  C   UNL     1       5.433   7.047  16.753  0.00  0.00    +0.000 C 
ATOM      3  O   UNL     1       4.950   7.159  15.631  0.00  0.00    +0.000 OA
ATOM      4  H   UNL     1       5.163   6.635  18.762  0.00  0.00    +0.000 HD
ENDROOT
BRANCH   1   5
ATOM      5  C   UNL     1       3.258   6.499  17.790  0.00  0.00    +0.000 C 
ATOM      6  C   UNL     1       2.550   7.851  17.921  0.00  0.00    +0.000 C 
BRANCH   5  11
ATOM      7  C   UNL     1       1.077   2.615  21.605  0.00  0.00    +0.000 C 
ATOM      8  C   UNL     1       1.650   3.599  20.618  0.00  0.00    +0.000 A 
ATOM      9  C   UNL     1       2.211   4.797  21.078  0.00  0.00    +0.000 A 
ATOM     10  C   UNL     1       2.751   5.736  20.183  0.00  0.00    +0.000 A 
ATOM     11  C   UNL     1       2.741   5.491  18.805  0.00  0.00    +0.000 A 
ATOM     12  C   UNL     1       2.186   4.282  18.350  0.00  0.00    +0.000 A 
ATOM     13  C   UNL     1       1.629   3.341  19.233  0.00  0.00    +0.000 A 
ATOM     14  C   UNL     1       1.009   2.088  18.679  0.00  0.00    +0.000 C 
ENDBRANCH   5  11
ENDBRANCH   1   5
BRANCH   2  15
ATOM     15  C   UNL     1       6.926   7.259  17.018  0.00  0.00    +0.000 C 
BRANCH  15  16
ATOM     16  O   UNL     1       7.737   6.212  16.485  0.00  0.00    +0.000 OA
BRANCH  16  17
ATOM     17  C   UNL     1       7.062   5.057  16.244  0.00  0.00    +0.000 C 
ATOM     18  O   UNL     1       6.542   4.349  17.092  0.00  0.00    +0.000 OA
BRANCH  17  19
ATOM     19  C   UNL     1       7.029   4.783  14.775  0.00  0.00    +0.000 C 
ATOM     20  C   UNL     1       6.212   3.807  14.364  0.00  0.00    +0.000 C 
ATOM     21  O   UNL     1       6.035   3.393  13.082  0.00  0.00    +0.000 OA
ATOM     22  C   UNL     1       6.823   4.060  12.105  0.00  0.00    +0.000 C 
ATOM     23  C   UNL     1       7.854   5.089  12.580  0.00  0.00    +0.000 C 
ATOM     24  O   UNL     1       7.799   5.540  13.929  0.00  0.00    +0.000 OA
ENDBRANCH  17  19
ENDBRANCH  16  17
ENDBRANCH  15  16
ENDBRANCH   2  15
TORSDOF 6
ENDMDL
MODEL 3
REMARK VINA RESULT:      -7.4      0.665      1.470
REMARK  Name = 
REMARK  9 active torsions:
REMARK  status: ('A' for Active; 'I' for Inactive)
REMARK    1  A    between atoms: C_1  and  C_2
REMARK    2  A    between atoms: C_5  and  C_6
REMARK    3  A    between atoms: C_6  and  C_7
REMARK    4  A    between atoms: C_6  and  N_8
REMARK    5  A    between atoms: C_9  and  C_11
REMARK    6  A    between atoms: C_11  and  O_12
REMARK    7  A    between atoms: O_12  and  C_13
REMARK    8  A    between atoms: C_13  and  C_15
REMARK    9  A    between atoms: C_22  and  C_23
REMARK                            x       y       z     vdW  Elec       q    Type
REMARK                         _______ _______ _______ _____ _____    ______ ____
ROOT
ATOM      1  N   UNL     1       3.384   4.777  18.686  0.00  0.00    +0.000 N 
ATOM      2  C   UNL     1       4.487   3.953  18.555  0.00  0.00    +0.000 C 
ATOM      3  O   UNL     1       5.153   3.563  19.508  0.00  0.00    +0.000 OA
ATOM      4  H   UNL     1       2.855   5.012  17.854  0.00  0.00    +0.000 HD
ENDROOT
BRANCH   1   5
ATOM      5  C   UNL     1       2.842   5.105  19.995  0.00  0.00    +0.000 C 
ATOM      6  C   UNL     1       1.884   4.016  20.487  0.00  0.00    +0.000 C 
BRANCH   5  11
ATOM      7  C   UNL     1       0.523  10.491  20.035  0.00  0.00    +0.000 C 
ATOM      8  C   UNL     1       1.108   9.103  20.008  0.00  0.00    +0.000 A 
ATOM      9  C   UNL     1       0.954   8.264  21.119  0.00  0.00    +0.000 A 
ATOM     10  C   UNL     1       1.490   6.965  21.126  0.00  0.00    +0.000 A 
ATOM     11  C   UNL     1       2.191   6.479  20.016  0.00  0.00    +0.000 A 
ATOM     12  C   UNL     1       2.333   7.323  18.901  0.00  0.00    +0.000 A 
ATOM     13  C   UNL     1       1.815   8.629  18.886  0.00  0.00    +0.000 A 
ATOM     14  C   UNL     1       2.041   9.498  17.679  0.00  0.00    +0.000 C 
ENDBRANCH   5  11
ENDBRANCH   1   5
BRANCH   2  15
ATOM     15  C   UNL     1       4.869   3.625  17.109  0.00  0.00    +0.000 C 
BRANCH  15  16
ATOM     16  O   UNL     1       5.411   4.747  16.411  0.00  0.00    +0.000 OA
BRANCH  16  17
ATOM     17  C   UNL     1       6.741   4.644  16.146  0.00  0.00    +0.000 C 
ATOM     18  O   UNL     1       7.623   4.520  16.981  0.00  0.00    +0.000 OA
BRANCH  17  19
ATOM     19  C   UNL     1       6.971   4.687  14.670  0.00  0.00    +0.000 C 
ATOM     20  C   UNL     1       6.232   3.861  13.922  0.00  0.00    +0.000 C 
ATOM     21  O   UNL     1       6.285   3.734  12.570  0.00  0.00    +0.000 OA
ATOM     22  C   UNL     1       7.244   4.553  11.913  0.00  0.00    +0.000 C 
ATOM     23  C   UNL     1       8.182   5.407  12.771  0.00  0.00    +0.000 C 
ATOM     24  O   UNL     1       7.890   5.566  14.155  0.00  0.00    +0.000 OA
ENDBRANCH  17  19
ENDBRANCH  16  17
ENDBRANCH  15  16
ENDBRANCH   2  15
TORSDOF 6
ENDMDL
MODEL 4
REMARK VINA RESULT:      -7.4      1.261      2.465
REMARK  Name = 
REMARK  9 active torsions:
REMARK  status: ('A' for Active; 'I' for Inactive)
REMARK    1  A    between atoms: C_1  and  C_2
REMARK    2  A    between atoms: C_5  and  C_6
REMARK    3  A    between atoms: C_6  and  C_7
REMARK    4  A    between atoms: C_6  and  N_8
REMARK    5  A    between atoms: C_9  and  C_11
REMARK    6  A    between atoms: C_11  and  O_12
REMARK    7  A    between atoms: O_12  and  C_13
REMARK    8  A    between atoms: C_13  and  C_15
REMARK    9  A    between atoms: C_22  and  C_23
REMARK                            x       y       z     vdW  Elec       q    Type
REMARK                         _______ _______ _______ _____ _____    ______ ____
ROOT
ATOM      1  N   UNL     1       5.319   4.185  17.965  0.00  0.00    +0.000 N 
ATOM      2  C   UNL     1       6.332   4.681  18.765  0.00  0.00    +0.000 C 
ATOM      3  O   UNL     1       6.178   4.962  19.949  0.00  0.00    +0.000 OA
ATOM      4  H   UNL     1       5.540   3.928  17.010  0.00  0.00    +0.000 HD
ENDROOT
BRANCH   1   5
ATOM      5  C   UNL     1       4.032   3.807  18.527  0.00  0.00    +0.000 C 
ATOM      6  C   UNL     1       3.221   2.964  17.539  0.00  0.00    +0.000 C 
BRANCH   5  11
ATOM      7  C   UNL     1       1.179   8.578  20.395  0.00  0.00    +0.000 C 
ATOM      8  C   UNL     1       1.900   7.352  19.899  0.00  0.00    +0.000 A 
ATOM      9  C   UNL     1       1.939   6.200  20.695  0.00  0.00    +0.000 A 
ATOM     10  C   UNL     1       2.606   5.041  20.262  0.00  0.00    +0.000 A 
ATOM     11  C   UNL     1       3.246   5.014  19.017  0.00  0.00    +0.000 A 
ATOM     12  C   UNL     1       3.195   6.169  18.219  0.00  0.00    +0.000 A 
ATOM     13  C   UNL     1       2.545   7.340  18.647  0.00  0.00    +0.000 A 
ATOM     14  C   UNL     1       2.566   8.558  17.765  0.00  0.00    +0.000 C 
ENDBRANCH   5  11
ENDBRANCH   1   5
BRANCH   2  15
ATOM     15  C   UNL     1       7.654   4.934  18.036  0.00  0.00    +0.000 C 
BRANCH  15  16
ATOM     16  O   UNL     1       7.608   4.557  16.660  0.00  0.00    +0.000 OA
BRANCH  16  17
ATOM     17  C   UNL     1       6.969   5.454  15.862  0.00  0.00    +0.000 C 
ATOM     18  O   UNL     1       6.541   6.541  16.217  0.00  0.00    +0.000 OA
BRANCH  17  19
ATOM     19  C   UNL     1       6.880   4.922  14.468  0.00  0.00    +0.000 C 
ATOM     20  C   UNL     1       6.010   3.928  14.258  0.00  0.00    +0.000 C 
ATOM     21  O   UNL     1       5.777   3.299  13.076  0.00  0.00    +0.000 OA
ATOM     22  C   UNL     1       6.563   3.742  11.977  0.00  0.00    +0.000 C 
ATOM     23  C   UNL     1       7.651   4.790  12.236  0.00  0.00    +0.000 C 
ATOM     24  O   UNL     1       7.656   5.478  13.482  0.00  0.00    +0.000 OA
ENDBRANCH  17  19
ENDBRANCH  16  17
ENDBRANCH  15  16
ENDBRANCH   2  15
TORSDOF 6
ENDMDL
MODEL 5
REMARK VINA RESULT:      -7.3      5.604      7.307
REMARK  Name = 
REMARK  9 active torsions:
REMARK  status: ('A' for Active; 'I' for Inactive)
REMARK    1  A    between atoms: C_1  and  C_2
REMARK    2  A    between atoms: C_5  and  C_6
REMARK    3  A    between atoms: C_6  and  C_7
REMARK    4  A    between atoms: C_6  and  N_8
REMARK    5  A    between atoms: C_9  and  C_11
REMARK    6  A    between atoms: C_11  and  O_12
REMARK    7  A    between atoms: O_12  and  C_13
REMARK    8  A    between atoms: C_13  and  C_15
REMARK    9  A    between atoms: C_22  and  C_23
REMARK                            x       y       z     vdW  Elec       q    Type
REMARK                         _______ _______ _______ _____ _____    ______ ____
ROOT
ATOM      1  N   UNL     1       6.865   7.193  16.931  0.00  0.00    +0.000 N 
ATOM      2  C   UNL     1       7.738   7.719  17.866  0.00  0.00    +0.000 C 
ATOM      3  O   UNL     1       8.291   7.042  18.727  0.00  0.00    +0.000 OA
ATOM      4  H   UNL     1       6.490   7.810  16.219  0.00  0.00    +0.000 HD
ENDROOT
BRANCH   1   5
ATOM      5  C   UNL     1       6.671   5.757  16.807  0.00  0.00    +0.000 C 
ATOM      6  C   UNL     1       6.970   5.278  15.384  0.00  0.00    +0.000 C 
BRANCH   5  11
ATOM      7  C   UNL     1       1.318   3.977  18.409  0.00  0.00    +0.000 C 
ATOM      8  C   UNL     1       2.701   4.424  18.013  0.00  0.00    +0.000 A 
ATOM      9  C   UNL     1       2.982   5.792  17.903  0.00  0.00    +0.000 A 
ATOM     10  C   UNL     1       4.261   6.241  17.533  0.00  0.00    +0.000 A 
ATOM     11  C   UNL     1       5.287   5.326  17.269  0.00  0.00    +0.000 A 
ATOM     12  C   UNL     1       5.001   3.956  17.391  0.00  0.00    +0.000 A 
ATOM     13  C   UNL     1       3.722   3.492  17.746  0.00  0.00    +0.000 A 
ATOM     14  C   UNL     1       3.468   2.011  17.815  0.00  0.00    +0.000 C 
ENDBRANCH   5  11
ENDBRANCH   1   5
BRANCH   2  15
ATOM     15  C   UNL     1       7.904   9.239  17.799  0.00  0.00    +0.000 C 
BRANCH  15  16
ATOM     16  O   UNL     1       9.241   9.662  18.069  0.00  0.00    +0.000 OA
BRANCH  16  17
ATOM     17  C   UNL     1       9.337  10.608  19.042  0.00  0.00    +0.000 C 
ATOM     18  O   UNL     1       9.106  10.430  20.228  0.00  0.00    +0.000 OA
BRANCH  17  19
ATOM     19  C   UNL     1       9.787  11.904  18.450  0.00  0.00    +0.000 C 
ATOM     20  C   UNL     1      10.871  11.863  17.668  0.00  0.00    +0.000 C 
ATOM     21  O   UNL     1      11.451  12.920  17.040  0.00  0.00    +0.000 OA
ATOM     22  C   UNL     1      10.841  14.183  17.272  0.00  0.00    +0.000 C 
ATOM     23  C   UNL     1       9.679  14.259  18.267  0.00  0.00    +0.000 C 
ATOM     24  O   UNL     1       9.075  13.048  18.708  0.00  0.00    +0.000 OA
ENDBRANCH  17  19
ENDBRANCH  16  17
ENDBRANCH  15  16
ENDBRANCH   2  15
TORSDOF 6
ENDMDL
MODEL 6
REMARK VINA RESULT:      -7.2      5.478      7.724
REMARK  Name = 
REMARK  9 active torsions:
REMARK  status: ('A' for Active; 'I' for Inactive)
REMARK    1  A    between atoms: C_1  and  C_2
REMARK    2  A    between atoms: C_5  and  C_6
REMARK    3  A    between atoms: C_6  and  C_7
REMARK    4  A    between atoms: C_6  and  N_8
REMARK    5  A    between atoms: C_9  and  C_11
REMARK    6  A    between atoms: C_11  and  O_12
REMARK    7  A    between atoms: O_12  and  C_13
REMARK    8  A    between atoms: C_13  and  C_15
REMARK    9  A    between atoms: C_22  and  C_23
REMARK                            x       y       z     vdW  Elec       q    Type
REMARK                         _______ _______ _______ _____ _____    ______ ____
ROOT
ATOM      1  N   UNL     1       7.022   7.132  16.823  0.00  0.00    +0.000 N 
ATOM      2  C   UNL     1       7.803   7.590  17.869  0.00  0.00    +0.000 C 
ATOM      3  O   UNL     1       8.198   6.869  18.779  0.00  0.00    +0.000 OA
ATOM      4  H   UNL     1       6.780   7.780  16.082  0.00  0.00    +0.000 HD
ENDROOT
BRANCH   1   5
ATOM      5  C   UNL     1       6.753   5.714  16.649  0.00  0.00    +0.000 C 
ATOM      6  C   UNL     1       6.963   5.284  15.194  0.00  0.00    +0.000 C 
BRANCH   5  11
ATOM      7  C   UNL     1       1.405   4.102  18.436  0.00  0.00    +0.000 C 
ATOM      8  C   UNL     1       2.787   4.507  17.993  0.00  0.00    +0.000 A 
ATOM      9  C   UNL     1       3.093   5.863  17.827  0.00  0.00    +0.000 A 
ATOM     10  C   UNL     1       4.371   6.273  17.412  0.00  0.00    +0.000 A 
ATOM     11  C   UNL     1       5.372   5.328  17.157  0.00  0.00    +0.000 A 
ATOM     12  C   UNL     1       5.062   3.969  17.335  0.00  0.00    +0.000 A 
ATOM     13  C   UNL     1       3.783   3.545  17.735  0.00  0.00    +0.000 A 
ATOM     14  C   UNL     1       3.502   2.073  17.863  0.00  0.00    +0.000 C 
ENDBRANCH   5  11
ENDBRANCH   1   5
BRANCH   2  15
ATOM     15  C   UNL     1       8.074   9.096  17.852  0.00  0.00    +0.000 C 
BRANCH  15  16
ATOM     16  O   UNL     1       8.979   9.508  18.877  0.00  0.00    +0.000 OA
BRANCH  16  17
ATOM     17  C   UNL     1       9.547  10.723  18.658  0.00  0.00    +0.000 C 
ATOM     18  O   UNL     1      10.199  11.035  17.673  0.00  0.00    +0.000 OA
BRANCH  17  19
ATOM     19  C   UNL     1       9.244  11.641  19.797  0.00  0.00    +0.000 C 
ATOM     20  C   UNL     1       9.125  12.941  19.507  0.00  0.00    +0.000 C 
ATOM     21  O   UNL     1       8.860  13.942  20.387  0.00  0.00    +0.000 OA
ATOM     22  C   UNL     1       8.723  13.545  21.746  0.00  0.00    +0.000 C 
ATOM     23  C   UNL     1       8.985  12.079  22.106  0.00  0.00    +0.000 C 
ATOM     24  O   UNL     1       9.079  11.123  21.057  0.00  0.00    +0.000 OA
ENDBRANCH  17  19
ENDBRANCH  16  17
ENDBRANCH  15  16
ENDBRANCH   2  15
TORSDOF 6
ENDMDL
MODEL 7
REMARK VINA RESULT:      -7.2      1.768      2.747
REMARK  Name = 
REMARK  9 active torsions:
REMARK  status: ('A' for Active; 'I' for Inactive)
REMARK    1  A    between atoms: C_1  and  C_2
REMARK    2  A    between atoms: C_5  and  C_6
REMARK    3  A    between atoms: C_6  and  C_7
REMARK    4  A    between atoms: C_6  and  N_8
REMARK    5  A    between atoms: C_9  and  C_11
REMARK    6  A    between atoms: C_11  and  O_12
REMARK    7  A    between atoms: O_12  and  C_13
REMARK    8  A    between atoms: C_13  and  C_15
REMARK    9  A    between atoms: C_22  and  C_23
REMARK                            x       y       z     vdW  Elec       q    Type
REMARK                         _______ _______ _______ _____ _____    ______ ____
ROOT
ATOM      1  N   UNL     1       2.894   5.520  18.397  0.00  0.00    +0.000 N 
ATOM      2  C   UNL     1       3.606   4.334  18.367  0.00  0.00    +0.000 C 
ATOM      3  O   UNL     1       4.144   3.846  19.356  0.00  0.00    +0.000 OA
ATOM      4  H   UNL     1       2.435   5.829  17.548  0.00  0.00    +0.000 HD
ENDROOT
BRANCH   1   5
ATOM      5  C   UNL     1       2.597   6.187  19.654  0.00  0.00    +0.000 C 
ATOM      6  C   UNL     1       1.634   5.358  20.508  0.00  0.00    +0.000 C 
BRANCH   5  11
ATOM      7  C   UNL     1       0.435  11.585  18.894  0.00  0.00    +0.000 C 
ATOM      8  C   UNL     1       1.002  10.205  19.104  0.00  0.00    +0.000 A 
ATOM      9  C   UNL     1       1.659   9.557  18.051  0.00  0.00    +0.000 A 
ATOM     10  C   UNL     1       2.196   8.268  18.214  0.00  0.00    +0.000 A 
ATOM     11  C   UNL     1       2.087   7.604  19.442  0.00  0.00    +0.000 A 
ATOM     12  C   UNL     1       1.436   8.265  20.497  0.00  0.00    +0.000 A 
ATOM     13  C   UNL     1       0.881   9.547  20.343  0.00  0.00    +0.000 A 
ATOM     14  C   UNL     1       0.156  10.180  21.499  0.00  0.00    +0.000 C 
ENDBRANCH   5  11
ENDBRANCH   1   5
BRANCH   2  15
ATOM     15  C   UNL     1       3.745   3.708  16.977  0.00  0.00    +0.000 C 
BRANCH  15  16
ATOM     16  O   UNL     1       5.097   3.391  16.645  0.00  0.00    +0.000 OA
BRANCH  16  17
ATOM     17  C   UNL     1       5.722   4.341  15.898  0.00  0.00    +0.000 C 
ATOM     18  O   UNL     1       5.631   4.463  14.687  0.00  0.00    +0.000 OA
BRANCH  17  19
ATOM     19  C   UNL     1       6.528   5.236  16.783  0.00  0.00    +0.000 C 
ATOM     20  C   UNL     1       7.186   4.651  17.790  0.00  0.00    +0.000 C 
ATOM     21  O   UNL     1       7.967   5.275  18.711  0.00  0.00    +0.000 OA
ATOM     22  C   UNL     1       8.059   6.688  18.583  0.00  0.00    +0.000 C 
ATOM     23  C   UNL     1       7.208   7.380  17.513  0.00  0.00    +0.000 C 
ATOM     24  O   UNL     1       6.579   6.581  16.517  0.00  0.00    +0.000 OA
ENDBRANCH  17  19
ENDBRANCH  16  17
ENDBRANCH  15  16
ENDBRANCH   2  15
TORSDOF 6
ENDMDL
MODEL 8
REMARK VINA RESULT:      -7.2      5.491      7.711
REMARK  Name = 
REMARK  9 active torsions:
REMARK  status: ('A' for Active; 'I' for Inactive)
REMARK    1  A    between atoms: C_1  and  C_2
REMARK    2  A    between atoms: C_5  and  C_6
REMARK    3  A    between atoms: C_6  and  C_7
REMARK    4  A    between atoms: C_6  and  N_8
REMARK    5  A    between atoms: C_9  and  C_11
REMARK    6  A    between atoms: C_11  and  O_12
REMARK    7  A    between atoms: O_12  and  C_13
REMARK    8  A    between atoms: C_13  and  C_15
REMARK    9  A    between atoms: C_22  and  C_23
REMARK                            x       y       z     vdW  Elec       q    Type
REMARK                         _______ _______ _______ _____ _____    ______ ____
ROOT
ATOM      1  N   UNL     1       7.034   7.127  16.853  0.00  0.00    +0.000 N 
ATOM      2  C   UNL     1       7.831   7.628  17.867  0.00  0.00    +0.000 C 
ATOM      3  O   UNL     1       8.255   6.943  18.791  0.00  0.00    +0.000 OA
ATOM      4  H   UNL     1       6.768   7.747  16.097  0.00  0.00    +0.000 HD
ENDROOT
BRANCH   1   5
ATOM      5  C   UNL     1       6.781   5.701  16.731  0.00  0.00    +0.000 C 
ATOM      6  C   UNL     1       7.040   5.212  15.303  0.00  0.00    +0.000 C 
BRANCH   5  11
ATOM      7  C   UNL     1       1.388   4.128  18.413  0.00  0.00    +0.000 C 
ATOM      8  C   UNL     1       2.781   4.523  17.997  0.00  0.00    +0.000 A 
ATOM      9  C   UNL     1       3.102   5.878  17.845  0.00  0.00    +0.000 A 
ATOM     10  C   UNL     1       4.391   6.277  17.455  0.00  0.00    +0.000 A 
ATOM     11  C   UNL     1       5.388   5.325  17.212  0.00  0.00    +0.000 A 
ATOM     12  C   UNL     1       5.062   3.968  17.377  0.00  0.00    +0.000 A 
ATOM     13  C   UNL     1       3.772   3.553  17.751  0.00  0.00    +0.000 A 
ATOM     14  C   UNL     1       3.475   2.083  17.866  0.00  0.00    +0.000 C 
ENDBRANCH   5  11
ENDBRANCH   1   5
BRANCH   2  15
ATOM     15  C   UNL     1       8.081   9.137  17.795  0.00  0.00    +0.000 C 
BRANCH  15  16
ATOM     16  O   UNL     1       8.846   9.625  18.897  0.00  0.00    +0.000 OA
BRANCH  16  17
ATOM     17  C   UNL     1       9.522  10.775  18.636  0.00  0.00    +0.000 C 
ATOM     18  O   UNL     1      10.185  10.996  17.634  0.00  0.00    +0.000 OA
BRANCH  17  19
ATOM     19  C   UNL     1       9.323  11.748  19.753  0.00  0.00    +0.000 C 
ATOM     20  C   UNL     1       9.199  11.236  20.982  0.00  0.00    +0.000 C 
ATOM     21  O   UNL     1       9.005  11.936  22.130  0.00  0.00    +0.000 OA
ATOM     22  C   UNL     1       8.905  13.347  21.981  0.00  0.00    +0.000 C 
ATOM     23  C   UNL     1       8.917  13.932  20.565  0.00  0.00    +0.000 C 
ATOM     24  O   UNL     1       9.301  13.093  19.481  0.00  0.00    +0.000 OA
ENDBRANCH  17  19
ENDBRANCH  16  17
ENDBRANCH  15  16
ENDBRANCH   2  15
TORSDOF 6
ENDMDL
MODEL 9
REMARK VINA RESULT:      -7.2      1.908      3.093
REMARK  Name = 
REMARK  9 active torsions:
REMARK  status: ('A' for Active; 'I' for Inactive)
REMARK    1  A    between atoms: C_1  and  C_2
REMARK    2  A    between atoms: C_5  and  C_6
REMARK    3  A    between atoms: C_6  and  C_7
REMARK    4  A    between atoms: C_6  and  N_8
REMARK    5  A    between atoms: C_9  and  C_11
REMARK    6  A    between atoms: C_11  and  O_12
REMARK    7  A    between atoms: O_12  and  C_13
REMARK    8  A    between atoms: C_13  and  C_15
REMARK    9  A    between atoms: C_22  and  C_23
REMARK                            x       y       z     vdW  Elec       q    Type
REMARK                         _______ _______ _______ _____ _____    ______ ____
ROOT
ATOM      1  N   UNL     1       2.897   4.741  18.838  0.00  0.00    +0.000 N 
ATOM      2  C   UNL     1       3.720   3.636  18.713  0.00  0.00    +0.000 C 
ATOM      3  O   UNL     1       4.215   3.053  19.672  0.00  0.00    +0.000 OA
ATOM      4  H   UNL     1       2.486   5.134  17.999  0.00  0.00    +0.000 HD
ENDROOT
BRANCH   1   5
ATOM      5  C   UNL     1       2.431   5.188  20.141  0.00  0.00    +0.000 C 
ATOM      6  C   UNL     1       1.395   4.221  20.720  0.00  0.00    +0.000 C 
BRANCH   5  11
ATOM      7  C   UNL     1       0.621  10.763  19.958  0.00  0.00    +0.000 C 
ATOM      8  C   UNL     1       1.075   9.327  19.988  0.00  0.00    +0.000 A 
ATOM      9  C   UNL     1       0.795   8.534  21.107  0.00  0.00    +0.000 A 
ATOM     10  C   UNL     1       1.208   7.192  21.167  0.00  0.00    +0.000 A 
ATOM     11  C   UNL     1       1.910   6.616  20.102  0.00  0.00    +0.000 A 
ATOM     12  C   UNL     1       2.179   7.415  18.977  0.00  0.00    +0.000 A 
ATOM     13  C   UNL     1       1.785   8.762  18.910  0.00  0.00    +0.000 A 
ATOM     14  C   UNL     1       2.145   9.576  17.697  0.00  0.00    +0.000 C 
ENDBRANCH   5  11
ENDBRANCH   1   5
BRANCH   2  15
ATOM     15  C   UNL     1       4.038   3.238  17.269  0.00  0.00    +0.000 C 
BRANCH  15  16
ATOM     16  O   UNL     1       4.439   4.347  16.464  0.00  0.00    +0.000 OA
BRANCH  16  17
ATOM     17  C   UNL     1       5.739   4.302  16.068  0.00  0.00    +0.000 C 
ATOM     18  O   UNL     1       6.180   3.616  15.160  0.00  0.00    +0.000 OA
BRANCH  17  19
ATOM     19  C   UNL     1       6.557   5.236  16.899  0.00  0.00    +0.000 C 
ATOM     20  C   UNL     1       7.153   4.716  17.978  0.00  0.00    +0.000 C 
ATOM     21  O   UNL     1       7.932   5.385  18.868  0.00  0.00    +0.000 OA
ATOM     22  C   UNL     1       8.095   6.776  18.620  0.00  0.00    +0.000 C 
ATOM     23  C   UNL     1       7.313   7.405  17.463  0.00  0.00    +0.000 C 
ATOM     24  O   UNL     1       6.680   6.549  16.518  0.00  0.00    +0.000 OA
ENDBRANCH  17  19
ENDBRANCH  16  17
ENDBRANCH  15  16
ENDBRANCH   2  15
TORSDOF 6
ENDMDL
