MODEL 1
REMARK VINA RESULT:      -8.3      0.000      0.000
REMARK  Name = 
REMARK  5 active torsions:
REMARK  status: ('A' for Active; 'I' for Inactive)
REMARK    1  A    between atoms: C_1  and  N_2
REMARK    2  A    between atoms: C_5  and  C_6
REMARK    3  A    between atoms: C_9  and  C_10
REMARK    4  A    between atoms: C_10  and  C_11
REMARK    5  A    between atoms: C_11  and  O_13
REMARK                            x       y       z     vdW  Elec       q    Type
REMARK                         _______ _______ _______ _____ _____    ______ ____
ROOT
ATOM      1  C   UNL     1       2.666  12.201  17.858  0.00  0.00    +0.000 C 
ATOM      2  N   UNL     1       1.489  11.620  18.490  0.00  0.00    +0.000 N 
ATOM      3  C   UNL     1       1.228  10.208  18.329  0.00  0.00    +0.000 C 
ATOM      4  C   UNL     1       1.302   9.369  19.555  0.00  0.00    +0.000 A 
ATOM      5  C   UNL     1       1.780   8.064  19.698  0.00  0.00    +0.000 A 
ATOM      6  N   UNL     1       1.332   7.630  20.925  0.00  0.00    +0.000 N 
ATOM      7  C   UNL     1       0.673   8.635  21.578  0.00  0.00    +0.000 A 
ATOM      8  N   UNL     1       0.056   8.485  22.762  0.00  0.00    +0.000 NA
ATOM      9  C   UNL     1      -0.532   9.623  23.179  0.00  0.00    +0.000 A 
ATOM     10  C   UNL     1      -0.462  10.852  22.532  0.00  0.00    +0.000 A 
ATOM     11  C   UNL     1       0.235  10.995  21.308  0.00  0.00    +0.000 A 
ATOM     12  C   UNL     1       0.754   9.784  20.800  0.00  0.00    +0.000 A 
ATOM     13  C   UNL     1       0.330  12.296  20.578  0.00  0.00    +0.000 A 
ATOM     14  C   UNL     1       0.109  13.495  21.298  0.00  0.00    +0.000 A 
ATOM     15  C   UNL     1      -0.034  14.725  20.663  0.00  0.00    +0.000 A 
ATOM     16  F   UNL     1      -0.181  15.836  21.396  0.00  0.00    +0.000 F 
ATOM     17  C   UNL     1      -0.033  14.813  19.289  0.00  0.00    +0.000 A 
ATOM     18  C   UNL     1       0.317  13.685  18.569  0.00  0.00    +0.000 A 
ATOM     19  C   UNL     1       0.658  12.469  19.209  0.00  0.00    +0.000 A 
ATOM     20  H   UNL     1       1.438   6.701  21.305  0.00  0.00    +0.000 HD
ENDROOT
BRANCH   5  21
ATOM     21  C   UNL     1       2.509   7.226  18.742  0.00  0.00    +0.000 A 
ATOM     22  C   UNL     1       2.296   5.841  18.747  0.00  0.00    +0.000 A 
ATOM     23  C   UNL     1       3.136   4.983  18.046  0.00  0.00    +0.000 A 
ATOM     24  C   UNL     1       4.176   5.493  17.255  0.00  0.00    +0.000 A 
ATOM     25  C   UNL     1       4.320   6.885  17.158  0.00  0.00    +0.000 A 
ATOM     26  C   UNL     1       3.491   7.744  17.893  0.00  0.00    +0.000 A 
BRANCH  24  27
ATOM     27  C   UNL     1       5.181   4.538  16.667  0.00  0.00    +0.000 C 
BRANCH  27  28
ATOM     28  C   UNL     1       6.527   4.501  17.357  0.00  0.00    +0.000 C 
ATOM     29  O   UNL     1       7.578   4.803  16.810  0.00  0.00    +0.000 OA
BRANCH  28  30
ATOM     30  O   UNL     1       6.466   4.152  18.662  0.00  0.00    +0.000 OA
ATOM     31  H   UNL     1       5.923   3.356  18.825  0.00  0.00    +0.000 HD
ENDBRANCH  28  30
ENDBRANCH  27  28
ENDBRANCH  24  27
ENDBRANCH   5  21
TORSDOF 4
ENDMDL
MODEL 2
REMARK VINA RESULT:      -8.2      1.179      1.334
REMARK  Name = 
REMARK  5 active torsions:
REMARK  status: ('A' for Active; 'I' for Inactive)
REMARK    1  A    between atoms: C_1  and  N_2
REMARK    2  A    between atoms: C_5  and  C_6
REMARK    3  A    between atoms: C_9  and  C_10
REMARK    4  A    between atoms: C_10  and  C_11
REMARK    5  A    between atoms: C_11  and  O_13
REMARK                            x       y       z     vdW  Elec       q    Type
REMARK                         _______ _______ _______ _____ _____    ______ ____
ROOT
ATOM      1  C   UNL     1       2.496  12.712  18.124  0.00  0.00    +0.000 C 
ATOM      2  N   UNL     1       1.226  12.270  18.686  0.00  0.00    +0.000 N 
ATOM      3  C   UNL     1       0.894  10.864  18.656  0.00  0.00    +0.000 C 
ATOM      4  C   UNL     1       0.790  10.173  19.969  0.00  0.00    +0.000 A 
ATOM      5  C   UNL     1       1.167   8.871  20.307  0.00  0.00    +0.000 A 
ATOM      6  N   UNL     1       0.569   8.608  21.519  0.00  0.00    +0.000 N 
ATOM      7  C   UNL     1      -0.087   9.715  21.980  0.00  0.00    +0.000 A 
ATOM      8  N   UNL     1      -0.831   9.738  23.100  0.00  0.00    +0.000 NA
ATOM      9  C   UNL     1      -1.384  10.946  23.321  0.00  0.00    +0.000 A 
ATOM     10  C   UNL     1      -1.171  12.085  22.552  0.00  0.00    +0.000 A 
ATOM     11  C   UNL     1      -0.345  12.046  21.403  0.00  0.00    +0.000 A 
ATOM     12  C   UNL     1       0.145  10.759  21.093  0.00  0.00    +0.000 A 
ATOM     13  C   UNL     1      -0.094  13.246  20.547  0.00  0.00    +0.000 A 
ATOM     14  C   UNL     1      -0.310  14.531  21.101  0.00  0.00    +0.000 A 
ATOM     15  C   UNL     1      -0.310  15.683  20.320  0.00  0.00    +0.000 A 
ATOM     16  F   UNL     1      -0.460  16.879  20.904  0.00  0.00    +0.000 F 
ATOM     17  C   UNL     1      -0.163  15.609  18.954  0.00  0.00    +0.000 A 
ATOM     18  C   UNL     1       0.186  14.387  18.406  0.00  0.00    +0.000 A 
ATOM     19  C   UNL     1       0.382  13.239  19.211  0.00  0.00    +0.000 A 
ATOM     20  H   UNL     1       0.576   7.726  22.009  0.00  0.00    +0.000 HD
ENDROOT
BRANCH   5  21
ATOM     21  C   UNL     1       1.934   7.890  19.536  0.00  0.00    +0.000 A 
ATOM     22  C   UNL     1       2.176   6.625  20.087  0.00  0.00    +0.000 A 
ATOM     23  C   UNL     1       3.101   5.757  19.517  0.00  0.00    +0.000 A 
ATOM     24  C   UNL     1       3.761   6.101  18.328  0.00  0.00    +0.000 A 
ATOM     25  C   UNL     1       3.436   7.318  17.712  0.00  0.00    +0.000 A 
ATOM     26  C   UNL     1       2.528   8.204  18.310  0.00  0.00    +0.000 A 
BRANCH  24  27
ATOM     27  C   UNL     1       4.890   5.231  17.842  0.00  0.00    +0.000 C 
BRANCH  27  28
ATOM     28  C   UNL     1       5.730   4.589  18.924  0.00  0.00    +0.000 C 
ATOM     29  O   UNL     1       6.507   5.208  19.636  0.00  0.00    +0.000 OA
BRANCH  28  30
ATOM     30  O   UNL     1       5.509   3.263  19.078  0.00  0.00    +0.000 OA
ATOM     31  H   UNL     1       5.265   3.015  19.991  0.00  0.00    +0.000 HD
ENDBRANCH  28  30
ENDBRANCH  27  28
ENDBRANCH  24  27
ENDBRANCH   5  21
TORSDOF 4
ENDMDL
MODEL 3
REMARK VINA RESULT:      -7.7      2.411      3.701
REMARK  Name = 
REMARK  5 active torsions:
REMARK  status: ('A' for Active; 'I' for Inactive)
REMARK    1  A    between atoms: C_1  and  N_2
REMARK    2  A    between atoms: C_5  and  C_6
REMARK    3  A    between atoms: C_9  and  C_10
REMARK    4  A    between atoms: C_10  and  C_11
REMARK    5  A    between atoms: C_11  and  O_13
REMARK                            x       y       z     vdW  Elec       q    Type
REMARK                         _______ _______ _______ _____ _____    ______ ____
ROOT
ATOM      1  C   UNL     1       0.184   9.860  22.960  0.00  0.00    +0.000 C 
ATOM      2  N   UNL     1       0.040  10.709  21.784  0.00  0.00    +0.000 N 
ATOM      3  C   UNL     1       0.905  10.490  20.648  0.00  0.00    +0.000 C 
ATOM      4  C   UNL     1       0.257  10.026  19.392  0.00  0.00    +0.000 A 
ATOM      5  C   UNL     1       0.735   9.124  18.440  0.00  0.00    +0.000 A 
ATOM      6  N   UNL     1      -0.065   9.287  17.331  0.00  0.00    +0.000 N 
ATOM      7  C   UNL     1      -1.063  10.185  17.588  0.00  0.00    +0.000 A 
ATOM      8  N   UNL     1      -1.951  10.607  16.671  0.00  0.00    +0.000 NA
ATOM      9  C   UNL     1      -2.819  11.505  17.175  0.00  0.00    +0.000 A 
ATOM     10  C   UNL     1      -2.877  11.914  18.503  0.00  0.00    +0.000 A 
ATOM     11  C   UNL     1      -1.959  11.419  19.461  0.00  0.00    +0.000 A 
ATOM     12  C   UNL     1      -0.970  10.569  18.920  0.00  0.00    +0.000 A 
ATOM     13  C   UNL     1      -1.985  11.836  20.896  0.00  0.00    +0.000 A 
ATOM     14  C   UNL     1      -3.179  12.384  21.422  0.00  0.00    +0.000 A 
ATOM     15  C   UNL     1      -3.228  12.991  22.673  0.00  0.00    +0.000 A 
ATOM     16  F   UNL     1      -4.398  13.439  23.148  0.00  0.00    +0.000 F 
ATOM     17  C   UNL     1      -2.087  13.144  23.427  0.00  0.00    +0.000 A 
ATOM     18  C   UNL     1      -0.939  12.498  23.002  0.00  0.00    +0.000 A 
ATOM     19  C   UNL     1      -0.921  11.710  21.826  0.00  0.00    +0.000 A 
ATOM     20  H   UNL     1       0.058   8.840  16.435  0.00  0.00    +0.000 HD
ENDROOT
BRANCH   5  21
ATOM     21  C   UNL     1       1.905   8.244  18.490  0.00  0.00    +0.000 A 
ATOM     22  C   UNL     1       2.899   8.371  17.510  0.00  0.00    +0.000 A 
ATOM     23  C   UNL     1       3.889   7.406  17.363  0.00  0.00    +0.000 A 
ATOM     24  C   UNL     1       3.961   6.318  18.246  0.00  0.00    +0.000 A 
ATOM     25  C   UNL     1       3.036   6.250  19.297  0.00  0.00    +0.000 A 
ATOM     26  C   UNL     1       2.019   7.207  19.420  0.00  0.00    +0.000 A 
BRANCH  24  27
ATOM     27  C   UNL     1       4.921   5.197  17.945  0.00  0.00    +0.000 C 
BRANCH  27  28
ATOM     28  C   UNL     1       5.687   4.659  19.134  0.00  0.00    +0.000 C 
ATOM     29  O   UNL     1       6.472   5.325  19.793  0.00  0.00    +0.000 OA
BRANCH  28  30
ATOM     30  O   UNL     1       5.388   3.377  19.445  0.00  0.00    +0.000 OA
ATOM     31  H   UNL     1       6.114   2.752  19.250  0.00  0.00    +0.000 HD
ENDBRANCH  28  30
ENDBRANCH  27  28
ENDBRANCH  24  27
ENDBRANCH   5  21
TORSDOF 4
ENDMDL
MODEL 4
REMARK VINA RESULT:      -7.7      1.267      1.819
REMARK  Name = 
REMARK  5 active torsions:
REMARK  status: ('A' for Active; 'I' for Inactive)
REMARK    1  A    between atoms: C_1  and  N_2
REMARK    2  A    between atoms: C_5  and  C_6
REMARK    3  A    between atoms: C_9  and  C_10
REMARK    4  A    between atoms: C_10  and  C_11
REMARK    5  A    between atoms: C_11  and  O_13
REMARK                            x       y       z     vdW  Elec       q    Type
REMARK                         _______ _______ _______ _____ _____    ______ ____
ROOT
ATOM      1  C   UNL     1       2.570  12.051  18.002  0.00  0.00    +0.000 C 
ATOM      2  N   UNL     1       1.293  11.698  18.609  0.00  0.00    +0.000 N 
ATOM      3  C   UNL     1       0.937  10.304  18.740  0.00  0.00    +0.000 C 
ATOM      4  C   UNL     1       0.821   9.771  20.124  0.00  0.00    +0.000 A 
ATOM      5  C   UNL     1       1.176   8.511  20.611  0.00  0.00    +0.000 A 
ATOM      6  N   UNL     1       0.574   8.399  21.844  0.00  0.00    +0.000 N 
ATOM      7  C   UNL     1      -0.064   9.563  22.173  0.00  0.00    +0.000 A 
ATOM      8  N   UNL     1      -0.808   9.727  23.280  0.00  0.00    +0.000 NA
ATOM      9  C   UNL     1      -1.341  10.961  23.360  0.00  0.00    +0.000 A 
ATOM     10  C   UNL     1      -1.109  12.000  22.465  0.00  0.00    +0.000 A 
ATOM     11  C   UNL     1      -0.283  11.816  21.330  0.00  0.00    +0.000 A 
ATOM     12  C   UNL     1       0.185  10.494  21.171  0.00  0.00    +0.000 A 
ATOM     13  C   UNL     1      -0.012  12.904  20.342  0.00  0.00    +0.000 A 
ATOM     14  C   UNL     1      -0.207  14.248  20.742  0.00  0.00    +0.000 A 
ATOM     15  C   UNL     1      -0.187  15.302  19.833  0.00  0.00    +0.000 A 
ATOM     16  F   UNL     1      -0.318  16.560  20.275  0.00  0.00    +0.000 F 
ATOM     17  C   UNL     1      -0.041  15.068  18.485  0.00  0.00    +0.000 A 
ATOM     18  C   UNL     1       0.288  13.785  18.083  0.00  0.00    +0.000 A 
ATOM     19  C   UNL     1       0.465  12.735  19.016  0.00  0.00    +0.000 A 
ATOM     20  H   UNL     1       0.566   7.580  22.433  0.00  0.00    +0.000 HD
ENDROOT
BRANCH   5  21
ATOM     21  C   UNL     1       1.928   7.435  19.961  0.00  0.00    +0.000 A 
ATOM     22  C   UNL     1       2.584   7.694  18.750  0.00  0.00    +0.000 A 
ATOM     23  C   UNL     1       3.090   6.659  17.971  0.00  0.00    +0.000 A 
ATOM     24  C   UNL     1       3.022   5.331  18.420  0.00  0.00    +0.000 A 
ATOM     25  C   UNL     1       2.469   5.081  19.684  0.00  0.00    +0.000 A 
ATOM     26  C   UNL     1       1.929   6.125  20.449  0.00  0.00    +0.000 A 
BRANCH  24  27
ATOM     27  C   UNL     1       3.403   4.222  17.475  0.00  0.00    +0.000 C 
BRANCH  27  28
ATOM     28  C   UNL     1       4.099   3.037  18.108  0.00  0.00    +0.000 C 
ATOM     29  O   UNL     1       3.661   1.896  18.074  0.00  0.00    +0.000 OA
BRANCH  28  30
ATOM     30  O   UNL     1       5.288   3.338  18.678  0.00  0.00    +0.000 OA
ATOM     31  H   UNL     1       5.525   2.743  19.416  0.00  0.00    +0.000 HD
ENDBRANCH  28  30
ENDBRANCH  27  28
ENDBRANCH  24  27
ENDBRANCH   5  21
TORSDOF 4
ENDMDL
MODEL 5
REMARK VINA RESULT:      -7.7      1.120      1.164
REMARK  Name = 
REMARK  5 active torsions:
REMARK  status: ('A' for Active; 'I' for Inactive)
REMARK    1  A    between atoms: C_1  and  N_2
REMARK    2  A    between atoms: C_5  and  C_6
REMARK    3  A    between atoms: C_9  and  C_10
REMARK    4  A    between atoms: C_10  and  C_11
REMARK    5  A    between atoms: C_11  and  O_13
REMARK                            x       y       z     vdW  Elec       q    Type
REMARK                         _______ _______ _______ _____ _____    ______ ____
ROOT
ATOM      1  C   UNL     1       2.479  12.698  18.122  0.00  0.00    +0.000 C 
ATOM      2  N   UNL     1       1.249  12.152  18.680  0.00  0.00    +0.000 N 
ATOM      3  C   UNL     1       0.997  10.733  18.575  0.00  0.00    +0.000 C 
ATOM      4  C   UNL     1       0.959   9.964  19.848  0.00  0.00    +0.000 A 
ATOM      5  C   UNL     1       1.418   8.670  20.106  0.00  0.00    +0.000 A 
ATOM      6  N   UNL     1       0.861   8.305  21.311  0.00  0.00    +0.000 N 
ATOM      7  C   UNL     1       0.151   9.345  21.845  0.00  0.00    +0.000 A 
ATOM      8  N   UNL     1      -0.569   9.261  22.977  0.00  0.00    +0.000 NA
ATOM      9  C   UNL     1      -1.187  10.420  23.276  0.00  0.00    +0.000 A 
ATOM     10  C   UNL     1      -1.055  11.611  22.569  0.00  0.00    +0.000 A 
ATOM     11  C   UNL     1      -0.252  11.685  21.406  0.00  0.00    +0.000 A 
ATOM     12  C   UNL     1       0.305  10.448  21.014  0.00  0.00    +0.000 A 
ATOM     13  C   UNL     1      -0.088  12.943  20.615  0.00  0.00    +0.000 A 
ATOM     14  C   UNL     1      -0.366  14.180  21.244  0.00  0.00    +0.000 A 
ATOM     15  C   UNL     1      -0.448  15.373  20.530  0.00  0.00    +0.000 A 
ATOM     16  F   UNL     1      -0.655  16.523  21.184  0.00  0.00    +0.000 F 
ATOM     17  C   UNL     1      -0.325  15.383  19.160  0.00  0.00    +0.000 A 
ATOM     18  C   UNL     1       0.083  14.217  18.538  0.00  0.00    +0.000 A 
ATOM     19  C   UNL     1       0.361  13.039  19.273  0.00  0.00    +0.000 A 
ATOM     20  H   UNL     1       0.929   7.400  21.750  0.00  0.00    +0.000 HD
ENDROOT
BRANCH   5  21
ATOM     21  C   UNL     1       2.225   7.780  19.267  0.00  0.00    +0.000 A 
ATOM     22  C   UNL     1       2.568   6.510  19.751  0.00  0.00    +0.000 A 
ATOM     23  C   UNL     1       3.530   5.735  19.114  0.00  0.00    +0.000 A 
ATOM     24  C   UNL     1       4.128   6.178  17.924  0.00  0.00    +0.000 A 
ATOM     25  C   UNL     1       3.703   7.397  17.377  0.00  0.00    +0.000 A 
ATOM     26  C   UNL     1       2.757   8.189  18.041  0.00  0.00    +0.000 A 
BRANCH  24  27
ATOM     27  C   UNL     1       5.297   5.410  17.366  0.00  0.00    +0.000 C 
BRANCH  27  28
ATOM     28  C   UNL     1       4.943   4.217  16.505  0.00  0.00    +0.000 C 
ATOM     29  O   UNL     1       5.009   4.218  15.285  0.00  0.00    +0.000 OA
BRANCH  28  30
ATOM     30  O   UNL     1       4.591   3.117  17.209  0.00  0.00    +0.000 OA
ATOM     31  H   UNL     1       5.145   2.336  17.009  0.00  0.00    +0.000 HD
ENDBRANCH  28  30
ENDBRANCH  27  28
ENDBRANCH  24  27
ENDBRANCH   5  21
TORSDOF 4
ENDMDL
MODEL 6
REMARK VINA RESULT:      -7.4      1.519      2.081
REMARK  Name = 
REMARK  5 active torsions:
REMARK  status: ('A' for Active; 'I' for Inactive)
REMARK    1  A    between atoms: C_1  and  N_2
REMARK    2  A    between atoms: C_5  and  C_6
REMARK    3  A    between atoms: C_9  and  C_10
REMARK    4  A    between atoms: C_10  and  C_11
REMARK    5  A    between atoms: C_11  and  O_13
REMARK                            x       y       z     vdW  Elec       q    Type
REMARK                         _______ _______ _______ _____ _____    ______ ____
ROOT
ATOM      1  C   UNL     1       2.914  13.397  18.577  0.00  0.00    +0.000 C 
ATOM      2  N   UNL     1       1.557  13.100  19.018  0.00  0.00    +0.000 N 
ATOM      3  C   UNL     1       1.031  11.767  18.827  0.00  0.00    +0.000 C 
ATOM      4  C   UNL     1       0.735  10.983  20.056  0.00  0.00    +0.000 A 
ATOM      5  C   UNL     1       0.898   9.615  20.284  0.00  0.00    +0.000 A 
ATOM      6  N   UNL     1       0.182   9.334  21.426  0.00  0.00    +0.000 N 
ATOM      7  C   UNL     1      -0.341  10.481  21.957  0.00  0.00    +0.000 A 
ATOM      8  N   UNL     1      -1.153  10.512  23.028  0.00  0.00    +0.000 NA
ATOM      9  C   UNL     1      -1.544  11.763  23.337  0.00  0.00    +0.000 A 
ATOM     10  C   UNL     1      -1.116  12.923  22.699  0.00  0.00    +0.000 A 
ATOM     11  C   UNL     1      -0.223  12.867  21.602  0.00  0.00    +0.000 A 
ATOM     12  C   UNL     1       0.100  11.555  21.193  0.00  0.00    +0.000 A 
ATOM     13  C   UNL     1       0.258  14.088  20.887  0.00  0.00    +0.000 A 
ATOM     14  C   UNL     1       0.187  15.335  21.553  0.00  0.00    +0.000 A 
ATOM     15  C   UNL     1       0.408  16.541  20.892  0.00  0.00    +0.000 A 
ATOM     16  F   UNL     1       0.388  17.688  21.584  0.00  0.00    +0.000 F 
ATOM     17  C   UNL     1       0.640  16.570  19.537  0.00  0.00    +0.000 A 
ATOM     18  C   UNL     1       0.852  15.364  18.891  0.00  0.00    +0.000 A 
ATOM     19  C   UNL     1       0.824  14.132  19.586  0.00  0.00    +0.000 A 
ATOM     20  H   UNL     1       0.029   8.421  21.825  0.00  0.00    +0.000 HD
ENDROOT
BRANCH   5  21
ATOM     21  C   UNL     1       1.571   8.604  19.464  0.00  0.00    +0.000 A 
ATOM     22  C   UNL     1       1.957   7.393  20.053  0.00  0.00    +0.000 A 
ATOM     23  C   UNL     1       2.814   6.516  19.397  0.00  0.00    +0.000 A 
ATOM     24  C   UNL     1       3.253   6.791  18.094  0.00  0.00    +0.000 A 
ATOM     25  C   UNL     1       2.777   7.947  17.459  0.00  0.00    +0.000 A 
ATOM     26  C   UNL     1       1.941   8.845  18.138  0.00  0.00    +0.000 A 
BRANCH  24  27
ATOM     27  C   UNL     1       4.326   5.925  17.487  0.00  0.00    +0.000 C 
BRANCH  27  28
ATOM     28  C   UNL     1       5.314   6.640  16.593  0.00  0.00    +0.000 C 
ATOM     29  O   UNL     1       5.216   6.689  15.376  0.00  0.00    +0.000 OA
BRANCH  28  30
ATOM     30  O   UNL     1       6.301   7.277  17.264  0.00  0.00    +0.000 OA
ATOM     31  H   UNL     1       6.702   8.011  16.759  0.00  0.00    +0.000 HD
ENDBRANCH  28  30
ENDBRANCH  27  28
ENDBRANCH  24  27
ENDBRANCH   5  21
TORSDOF 4
ENDMDL
MODEL 7
REMARK VINA RESULT:      -7.2      6.753      9.966
REMARK  Name = 
REMARK  5 active torsions:
REMARK  status: ('A' for Active; 'I' for Inactive)
REMARK    1  A    between atoms: C_1  and  N_2
REMARK    2  A    between atoms: C_5  and  C_6
REMARK    3  A    between atoms: C_9  and  C_10
REMARK    4  A    between atoms: C_10  and  C_11
REMARK    5  A    between atoms: C_11  and  O_13
REMARK                            x       y       z     vdW  Elec       q    Type
REMARK                         _______ _______ _______ _____ _____    ______ ____
ROOT
ATOM      1  C   UNL     1      -0.848  12.864  18.774  0.00  0.00    +0.000 C 
ATOM      2  N   UNL     1      -2.034  12.151  19.231  0.00  0.00    +0.000 N 
ATOM      3  C   UNL     1      -2.439  12.270  20.613  0.00  0.00    +0.000 C 
ATOM      4  C   UNL     1      -3.737  12.947  20.874  0.00  0.00    +0.000 A 
ATOM      5  C   UNL     1      -4.087  13.799  21.924  0.00  0.00    +0.000 A 
ATOM      6  N   UNL     1      -5.461  13.885  21.900  0.00  0.00    +0.000 N 
ATOM      7  C   UNL     1      -5.965  13.194  20.833  0.00  0.00    +0.000 A 
ATOM      8  N   UNL     1      -7.277  13.032  20.594  0.00  0.00    +0.000 NA
ATOM      9  C   UNL     1      -7.508  12.297  19.489  0.00  0.00    +0.000 A 
ATOM     10  C   UNL     1      -6.534  11.813  18.623  0.00  0.00    +0.000 A 
ATOM     11  C   UNL     1      -5.158  12.038  18.872  0.00  0.00    +0.000 A 
ATOM     12  C   UNL     1      -4.898  12.704  20.089  0.00  0.00    +0.000 A 
ATOM     13  C   UNL     1      -4.080  11.532  17.969  0.00  0.00    +0.000 A 
ATOM     14  C   UNL     1      -4.412  11.203  16.633  0.00  0.00    +0.000 A 
ATOM     15  C   UNL     1      -3.529  10.529  15.794  0.00  0.00    +0.000 A 
ATOM     16  F   UNL     1      -3.873  10.297  14.520  0.00  0.00    +0.000 F 
ATOM     17  C   UNL     1      -2.311  10.091  16.259  0.00  0.00    +0.000 A 
ATOM     18  C   UNL     1      -1.905  10.517  17.512  0.00  0.00    +0.000 A 
ATOM     19  C   UNL     1      -2.711  11.368  18.306  0.00  0.00    +0.000 A 
ATOM     20  H   UNL     1      -6.041  14.362  22.573  0.00  0.00    +0.000 HD
ENDROOT
BRANCH   5  21
ATOM     21  C   UNL     1      -3.240  14.415  22.950  0.00  0.00    +0.000 A 
ATOM     22  C   UNL     1      -3.480  14.124  24.300  0.00  0.00    +0.000 A 
ATOM     23  C   UNL     1      -2.883  14.867  25.311  0.00  0.00    +0.000 A 
ATOM     24  C   UNL     1      -1.963  15.881  25.003  0.00  0.00    +0.000 A 
ATOM     25  C   UNL     1      -1.635  16.097  23.657  0.00  0.00    +0.000 A 
ATOM     26  C   UNL     1      -2.266  15.368  22.639  0.00  0.00    +0.000 A 
BRANCH  24  27
ATOM     27  C   UNL     1      -1.482  16.789  26.104  0.00  0.00    +0.000 C 
BRANCH  27  28
ATOM     28  C   UNL     1      -0.133  16.441  26.693  0.00  0.00    +0.000 C 
ATOM     29  O   UNL     1       0.922  16.555  26.087  0.00  0.00    +0.000 OA
BRANCH  28  30
ATOM     30  O   UNL     1      -0.185  16.036  27.983  0.00  0.00    +0.000 OA
ATOM     31  H   UNL     1       0.345  15.234  28.159  0.00  0.00    +0.000 HD
ENDBRANCH  28  30
ENDBRANCH  27  28
ENDBRANCH  24  27
ENDBRANCH   5  21
TORSDOF 4
ENDMDL
MODEL 8
REMARK VINA RESULT:      -7.1      1.989      3.054
REMARK  Name = 
REMARK  5 active torsions:
REMARK  status: ('A' for Active; 'I' for Inactive)
REMARK    1  A    between atoms: C_1  and  N_2
REMARK    2  A    between atoms: C_5  and  C_6
REMARK    3  A    between atoms: C_9  and  C_10
REMARK    4  A    between atoms: C_10  and  C_11
REMARK    5  A    between atoms: C_11  and  O_13
REMARK                            x       y       z     vdW  Elec       q    Type
REMARK                         _______ _______ _______ _____ _____    ______ ____
ROOT
ATOM      1  C   UNL     1       3.261  13.691  18.485  0.00  0.00    +0.000 C 
ATOM      2  N   UNL     1       1.879  13.660  18.945  0.00  0.00    +0.000 N 
ATOM      3  C   UNL     1       1.141  12.420  18.871  0.00  0.00    +0.000 C 
ATOM      4  C   UNL     1       0.734  11.805  20.163  0.00  0.00    +0.000 A 
ATOM      5  C   UNL     1       0.674  10.454  20.511  0.00  0.00    +0.000 A 
ATOM      6  N   UNL     1      -0.064  10.395  21.672  0.00  0.00    +0.000 N 
ATOM      7  C   UNL     1      -0.388  11.653  22.098  0.00  0.00    +0.000 A 
ATOM      8  N   UNL     1      -1.171  11.910  23.159  0.00  0.00    +0.000 NA
ATOM      9  C   UNL     1      -1.349  13.231  23.355  0.00  0.00    +0.000 A 
ATOM     10  C   UNL     1      -0.745  14.245  22.620  0.00  0.00    +0.000 A 
ATOM     11  C   UNL     1       0.115  13.947  21.535  0.00  0.00    +0.000 A 
ATOM     12  C   UNL     1       0.214  12.570  21.244  0.00  0.00    +0.000 A 
ATOM     13  C   UNL     1       0.780  15.007  20.716  0.00  0.00    +0.000 A 
ATOM     14  C   UNL     1       0.921  16.302  21.269  0.00  0.00    +0.000 A 
ATOM     15  C   UNL     1       1.329  17.393  20.506  0.00  0.00    +0.000 A 
ATOM     16  F   UNL     1       1.504  18.584  21.094  0.00  0.00    +0.000 F 
ATOM     17  C   UNL     1       1.547  17.265  19.154  0.00  0.00    +0.000 A 
ATOM     18  C   UNL     1       1.552  15.989  18.617  0.00  0.00    +0.000 A 
ATOM     19  C   UNL     1       1.331  14.844  19.419  0.00  0.00    +0.000 A 
ATOM     20  H   UNL     1      -0.360   9.557  22.149  0.00  0.00    +0.000 HD
ENDROOT
BRANCH   5  21
ATOM     21  C   UNL     1       1.165   9.279  19.786  0.00  0.00    +0.000 A 
ATOM     22  C   UNL     1       1.485   8.118  20.502  0.00  0.00    +0.000 A 
ATOM     23  C   UNL     1       2.185   7.076  19.905  0.00  0.00    +0.000 A 
ATOM     24  C   UNL     1       2.523   7.132  18.544  0.00  0.00    +0.000 A 
ATOM     25  C   UNL     1       2.104   8.243  17.798  0.00  0.00    +0.000 A 
ATOM     26  C   UNL     1       1.428   9.305  18.413  0.00  0.00    +0.000 A 
BRANCH  24  27
ATOM     27  C   UNL     1       3.443   6.083  17.977  0.00  0.00    +0.000 C 
BRANCH  27  28
ATOM     28  C   UNL     1       2.992   4.651  18.165  0.00  0.00    +0.000 C 
ATOM     29  O   UNL     1       3.584   3.840  18.862  0.00  0.00    +0.000 OA
BRANCH  28  30
ATOM     30  O   UNL     1       1.835   4.351  17.531  0.00  0.00    +0.000 OA
ATOM     31  H   UNL     1       1.410   3.537  17.866  0.00  0.00    +0.000 HD
ENDBRANCH  28  30
ENDBRANCH  27  28
ENDBRANCH  24  27
ENDBRANCH   5  21
TORSDOF 4
ENDMDL
MODEL 9
REMARK VINA RESULT:      -7.1      3.646      4.261
REMARK  Name = 
REMARK  5 active torsions:
REMARK  status: ('A' for Active; 'I' for Inactive)
REMARK    1  A    between atoms: C_1  and  N_2
REMARK    2  A    between atoms: C_5  and  C_6
REMARK    3  A    between atoms: C_9  and  C_10
REMARK    4  A    between atoms: C_10  and  C_11
REMARK    5  A    between atoms: C_11  and  O_13
REMARK                            x       y       z     vdW  Elec       q    Type
REMARK                         _______ _______ _______ _____ _____    ______ ____
ROOT
ATOM      1  C   UNL     1      -2.578  10.648  16.408  0.00  0.00    +0.000 C 
ATOM      2  N   UNL     1      -2.825  10.576  17.842  0.00  0.00    +0.000 N 
ATOM      3  C   UNL     1      -1.935   9.797  18.672  0.00  0.00    +0.000 C 
ATOM      4  C   UNL     1      -1.123  10.545  19.670  0.00  0.00    +0.000 A 
ATOM      5  C   UNL     1       0.190  10.312  20.084  0.00  0.00    +0.000 A 
ATOM      6  N   UNL     1       0.358  11.047  21.236  0.00  0.00    +0.000 N 
ATOM      7  C   UNL     1      -0.762  11.786  21.500  0.00  0.00    +0.000 A 
ATOM      8  N   UNL     1      -0.922  12.541  22.601  0.00  0.00    +0.000 NA
ATOM      9  C   UNL     1      -2.122  13.153  22.630  0.00  0.00    +0.000 A 
ATOM     10  C   UNL     1      -3.078  13.103  21.621  0.00  0.00    +0.000 A 
ATOM     11  C   UNL     1      -2.865  12.337  20.450  0.00  0.00    +0.000 A 
ATOM     12  C   UNL     1      -1.664  11.596  20.460  0.00  0.00    +0.000 A 
ATOM     13  C   UNL     1      -3.869  12.253  19.345  0.00  0.00    +0.000 A 
ATOM     14  C   UNL     1      -4.848  13.269  19.240  0.00  0.00    +0.000 A 
ATOM     15  C   UNL     1      -5.941  13.159  18.384  0.00  0.00    +0.000 A 
ATOM     16  F   UNL     1      -6.806  14.177  18.280  0.00  0.00    +0.000 F 
ATOM     17  C   UNL     1      -6.148  12.015  17.649  0.00  0.00    +0.000 A 
ATOM     18  C   UNL     1      -5.139  11.069  17.627  0.00  0.00    +0.000 A 
ATOM     19  C   UNL     1      -3.930  11.253  18.340  0.00  0.00    +0.000 A 
ATOM     20  H   UNL     1       1.171  11.044  21.833  0.00  0.00    +0.000 HD
ENDROOT
BRANCH   5  21
ATOM     21  C   UNL     1       1.197   9.402  19.532  0.00  0.00    +0.000 A 
ATOM     22  C   UNL     1       1.676   9.619  18.233  0.00  0.00    +0.000 A 
ATOM     23  C   UNL     1       2.430   8.654  17.576  0.00  0.00    +0.000 A 
ATOM     24  C   UNL     1       2.794   7.467  18.229  0.00  0.00    +0.000 A 
ATOM     25  C   UNL     1       2.413   7.298  19.568  0.00  0.00    +0.000 A 
ATOM     26  C   UNL     1       1.623   8.259  20.215  0.00  0.00    +0.000 A 
BRANCH  24  27
ATOM     27  C   UNL     1       3.444   6.365  17.433  0.00  0.00    +0.000 C 
BRANCH  27  28
ATOM     28  C   UNL     1       4.863   6.634  16.986  0.00  0.00    +0.000 C 
ATOM     29  O   UNL     1       5.832   6.564  17.727  0.00  0.00    +0.000 OA
BRANCH  28  30
ATOM     30  O   UNL     1       4.981   6.912  15.667  0.00  0.00    +0.000 OA
ATOM     31  H   UNL     1       5.075   6.114  15.111  0.00  0.00    +0.000 HD
ENDBRANCH  28  30
ENDBRANCH  27  28
ENDBRANCH  24  27
ENDBRANCH   5  21
TORSDOF 4
ENDMDL
