MODEL 1
REMARK VINA RESULT:      -7.0      0.000      0.000
REMARK  Name = 
REMARK  2 active torsions:
REMARK  status: ('A' for Active; 'I' for Inactive)
REMARK    1  A    between atoms: C_1  and  O_2
REMARK    2  A    between atoms: O_2  and  C_3
REMARK                            x       y       z     vdW  Elec       q    Type
REMARK                         _______ _______ _______ _____ _____    ______ ____
ROOT
ATOM      1  C   UNL     1       3.576   3.001  17.946  0.00  0.00    +0.000 C 
ATOM      2  C   UNL     1       3.932   3.249  16.671  0.00  0.00    +0.000 C 
ATOM      3  C   UNL     1       5.088   4.078  16.331  0.00  0.00    +0.000 A 
ATOM      4  C   UNL     1       5.436   4.328  15.008  0.00  0.00    +0.000 A 
ATOM      5  C   UNL     1       6.536   5.131  14.770  0.00  0.00    +0.000 A 
ATOM      6  N   UNL     1       7.292   5.683  15.746  0.00  0.00    +0.000 NA
ATOM      7  C   UNL     1       6.958   5.439  17.025  0.00  0.00    +0.000 A 
ATOM      8  C   UNL     1       7.706   5.986  18.051  0.00  0.00    +0.000 A 
ATOM      9  C   UNL     1       7.352   5.728  19.363  0.00  0.00    +0.000 A 
ATOM     10  N   UNL     1       6.303   4.962  19.712  0.00  0.00    +0.000 NA
ATOM     11  C   UNL     1       5.572   4.430  18.700  0.00  0.00    +0.000 A 
ATOM     12  C   UNL     1       5.858   4.637  17.356  0.00  0.00    +0.000 A 
ATOM     13  C   UNL     1       4.402   3.581  19.075  0.00  0.00    +0.000 C 
ATOM     14  O   UNL     1       4.113   3.362  20.247  0.00  0.00    +0.000 OA
ENDROOT
BRANCH   1  16
ATOM     15  C   UNL     1       1.225   2.874  18.451  0.00  0.00    +0.000 C 
ATOM     16  O   UNL     1       2.492   2.241  18.342  0.00  0.00    +0.000 OA
ENDBRANCH   1  16
TORSDOF 1
ENDMDL
MODEL 2
REMARK VINA RESULT:      -6.7      2.703      4.200
REMARK  Name = 
REMARK  2 active torsions:
REMARK  status: ('A' for Active; 'I' for Inactive)
REMARK    1  A    between atoms: C_1  and  O_2
REMARK    2  A    between atoms: O_2  and  C_3
REMARK                            x       y       z     vdW  Elec       q    Type
REMARK                         _______ _______ _______ _____ _____    ______ ____
ROOT
ATOM      1  C   UNL     1       6.077   4.125  14.415  0.00  0.00    +0.000 C 
ATOM      2  C   UNL     1       5.087   3.546  15.121  0.00  0.00    +0.000 C 
ATOM      3  C   UNL     1       4.931   3.754  16.561  0.00  0.00    +0.000 A 
ATOM      4  C   UNL     1       3.905   3.141  17.274  0.00  0.00    +0.000 A 
ATOM      5  C   UNL     1       3.833   3.379  18.634  0.00  0.00    +0.000 A 
ATOM      6  N   UNL     1       4.699   4.170  19.308  0.00  0.00    +0.000 NA
ATOM      7  C   UNL     1       5.688   4.764  18.619  0.00  0.00    +0.000 A 
ATOM      8  C   UNL     1       6.592   5.580  19.273  0.00  0.00    +0.000 A 
ATOM      9  C   UNL     1       7.606   6.185  18.552  0.00  0.00    +0.000 A 
ATOM     10  N   UNL     1       7.773   6.026  17.227  0.00  0.00    +0.000 NA
ATOM     11  C   UNL     1       6.883   5.222  16.592  0.00  0.00    +0.000 A 
ATOM     12  C   UNL     1       5.835   4.578  17.238  0.00  0.00    +0.000 A 
ATOM     13  C   UNL     1       7.060   5.035  15.122  0.00  0.00    +0.000 C 
ATOM     14  O   UNL     1       7.965   5.588  14.505  0.00  0.00    +0.000 OA
ENDROOT
BRANCH   1  16
ATOM     15  C   UNL     1       5.322   3.264  12.297  0.00  0.00    +0.000 C 
ATOM     16  O   UNL     1       6.294   3.965  13.060  0.00  0.00    +0.000 OA
ENDBRANCH   1  16
TORSDOF 1
ENDMDL
MODEL 3
REMARK VINA RESULT:      -6.5      3.049      4.917
REMARK  Name = 
REMARK  2 active torsions:
REMARK  status: ('A' for Active; 'I' for Inactive)
REMARK    1  A    between atoms: C_1  and  O_2
REMARK    2  A    between atoms: O_2  and  C_3
REMARK                            x       y       z     vdW  Elec       q    Type
REMARK                         _______ _______ _______ _____ _____    ______ ____
ROOT
ATOM      1  C   UNL     1       4.707   5.071  16.570  0.00  0.00    +0.000 C 
ATOM      2  C   UNL     1       4.287   3.800  16.718  0.00  0.00    +0.000 C 
ATOM      3  C   UNL     1       3.344   3.406  17.764  0.00  0.00    +0.000 A 
ATOM      4  C   UNL     1       2.927   2.086  17.904  0.00  0.00    +0.000 A 
ATOM      5  C   UNL     1       2.043   1.794  18.926  0.00  0.00    +0.000 A 
ATOM      6  N   UNL     1       1.561   2.713  19.793  0.00  0.00    +0.000 NA
ATOM      7  C   UNL     1       1.962   3.989  19.656  0.00  0.00    +0.000 A 
ATOM      8  C   UNL     1       1.491   4.957  20.523  0.00  0.00    +0.000 A 
ATOM      9  C   UNL     1       1.911   6.266  20.372  0.00  0.00    +0.000 A 
ATOM     10  N   UNL     1       2.768   6.666  19.415  0.00  0.00    +0.000 NA
ATOM     11  C   UNL     1       3.227   5.709  18.568  0.00  0.00    +0.000 A 
ATOM     12  C   UNL     1       2.856   4.373  18.648  0.00  0.00    +0.000 A 
ATOM     13  C   UNL     1       4.181   6.140  17.504  0.00  0.00    +0.000 C 
ATOM     14  O   UNL     1       4.533   7.310  17.388  0.00  0.00    +0.000 OA
ENDROOT
BRANCH   1  16
ATOM     15  C   UNL     1       6.455   4.561  14.995  0.00  0.00    +0.000 C 
ATOM     16  O   UNL     1       5.603   5.513  15.616  0.00  0.00    +0.000 OA
ENDBRANCH   1  16
TORSDOF 1
ENDMDL
MODEL 4
REMARK VINA RESULT:      -6.4      2.328      2.793
REMARK  Name = 
REMARK  2 active torsions:
REMARK  status: ('A' for Active; 'I' for Inactive)
REMARK    1  A    between atoms: C_1  and  O_2
REMARK    2  A    between atoms: O_2  and  C_3
REMARK                            x       y       z     vdW  Elec       q    Type
REMARK                         _______ _______ _______ _____ _____    ______ ____
ROOT
ATOM      1  C   UNL     1       2.865   3.396  19.835  0.00  0.00    +0.000 C 
ATOM      2  C   UNL     1       2.265   4.505  19.361  0.00  0.00    +0.000 C 
ATOM      3  C   UNL     1       3.004   5.548  18.650  0.00  0.00    +0.000 A 
ATOM      4  C   UNL     1       2.368   6.690  18.174  0.00  0.00    +0.000 A 
ATOM      5  C   UNL     1       3.140   7.634  17.522  0.00  0.00    +0.000 A 
ATOM      6  N   UNL     1       4.471   7.512  17.322  0.00  0.00    +0.000 NA
ATOM      7  C   UNL     1       5.086   6.408  17.780  0.00  0.00    +0.000 A 
ATOM      8  C   UNL     1       6.446   6.247  17.594  0.00  0.00    +0.000 A 
ATOM      9  C   UNL     1       7.067   5.106  18.070  0.00  0.00    +0.000 A 
ATOM     10  N   UNL     1       6.417   4.122  18.718  0.00  0.00    +0.000 NA
ATOM     11  C   UNL     1       5.082   4.288  18.898  0.00  0.00    +0.000 A 
ATOM     12  C   UNL     1       4.380   5.400  18.451  0.00  0.00    +0.000 A 
ATOM     13  C   UNL     1       4.351   3.204  19.619  0.00  0.00    +0.000 C 
ATOM     14  O   UNL     1       4.925   2.199  20.026  0.00  0.00    +0.000 OA
ENDROOT
BRANCH   1  16
ATOM     15  C   UNL     1       1.487   2.709  21.687  0.00  0.00    +0.000 C 
ATOM     16  O   UNL     1       2.235   2.378  20.526  0.00  0.00    +0.000 OA
ENDBRANCH   1  16
TORSDOF 1
ENDMDL
MODEL 5
REMARK VINA RESULT:      -6.4      2.555      3.386
REMARK  Name = 
REMARK  2 active torsions:
REMARK  status: ('A' for Active; 'I' for Inactive)
REMARK    1  A    between atoms: C_1  and  O_2
REMARK    2  A    between atoms: O_2  and  C_3
REMARK                            x       y       z     vdW  Elec       q    Type
REMARK                         _______ _______ _______ _____ _____    ______ ____
ROOT
ATOM      1  C   UNL     1       2.136   3.400  19.389  0.00  0.00    +0.000 C 
ATOM      2  C   UNL     1       1.904   4.726  19.423  0.00  0.00    +0.000 C 
ATOM      3  C   UNL     1       2.651   5.670  18.591  0.00  0.00    +0.000 A 
ATOM      4  C   UNL     1       2.402   7.037  18.644  0.00  0.00    +0.000 A 
ATOM      5  C   UNL     1       3.159   7.864  17.835  0.00  0.00    +0.000 A 
ATOM      6  N   UNL     1       4.124   7.421  16.998  0.00  0.00    +0.000 NA
ATOM      7  C   UNL     1       4.364   6.099  16.944  0.00  0.00    +0.000 A 
ATOM      8  C   UNL     1       5.343   5.609  16.100  0.00  0.00    +0.000 A 
ATOM      9  C   UNL     1       5.580   4.247  16.055  0.00  0.00    +0.000 A 
ATOM     10  N   UNL     1       4.905   3.350  16.796  0.00  0.00    +0.000 NA
ATOM     11  C   UNL     1       3.947   3.839  17.623  0.00  0.00    +0.000 A 
ATOM     12  C   UNL     1       3.643   5.190  17.730  0.00  0.00    +0.000 A 
ATOM     13  C   UNL     1       3.193   2.854  18.454  0.00  0.00    +0.000 C 
ATOM     14  O   UNL     1       3.420   1.649  18.390  0.00  0.00    +0.000 OA
ENDROOT
BRANCH   1  16
ATOM     15  C   UNL     1       1.511   2.585  21.567  0.00  0.00    +0.000 C 
ATOM     16  O   UNL     1       1.481   2.453  20.153  0.00  0.00    +0.000 OA
ENDBRANCH   1  16
TORSDOF 1
ENDMDL
MODEL 6
REMARK VINA RESULT:      -6.4      3.083      4.712
REMARK  Name = 
REMARK  2 active torsions:
REMARK  status: ('A' for Active; 'I' for Inactive)
REMARK    1  A    between atoms: C_1  and  O_2
REMARK    2  A    between atoms: O_2  and  C_3
REMARK                            x       y       z     vdW  Elec       q    Type
REMARK                         _______ _______ _______ _____ _____    ______ ____
ROOT
ATOM      1  C   UNL     1       5.575   4.616  15.811  0.00  0.00    +0.000 C 
ATOM      2  C   UNL     1       5.088   3.475  16.336  0.00  0.00    +0.000 C 
ATOM      3  C   UNL     1       4.080   3.473  17.396  0.00  0.00    +0.000 A 
ATOM      4  C   UNL     1       3.594   2.284  17.931  0.00  0.00    +0.000 A 
ATOM      5  C   UNL     1       2.651   2.368  18.939  0.00  0.00    +0.000 A 
ATOM      6  N   UNL     1       2.176   3.534  19.432  0.00  0.00    +0.000 NA
ATOM      7  C   UNL     1       2.644   4.682  18.914  0.00  0.00    +0.000 A 
ATOM      8  C   UNL     1       2.182   5.894  19.392  0.00  0.00    +0.000 A 
ATOM      9  C   UNL     1       2.671   7.069  18.851  0.00  0.00    +0.000 A 
ATOM     10  N   UNL     1       3.589   7.109  17.868  0.00  0.00    +0.000 NA
ATOM     11  C   UNL     1       4.039   5.915  17.405  0.00  0.00    +0.000 A 
ATOM     12  C   UNL     1       3.600   4.690  17.890  0.00  0.00    +0.000 A 
ATOM     13  C   UNL     1       5.060   5.946  16.316  0.00  0.00    +0.000 C 
ATOM     14  O   UNL     1       5.473   7.003  15.849  0.00  0.00    +0.000 OA
ENDROOT
BRANCH   1  16
ATOM     15  C   UNL     1       6.335   3.956  13.623  0.00  0.00    +0.000 C 
ATOM     16  O   UNL     1       6.535   4.695  14.819  0.00  0.00    +0.000 OA
ENDBRANCH   1  16
TORSDOF 1
ENDMDL
MODEL 7
REMARK VINA RESULT:      -6.3      3.649      5.408
REMARK  Name = 
REMARK  2 active torsions:
REMARK  status: ('A' for Active; 'I' for Inactive)
REMARK    1  A    between atoms: C_1  and  O_2
REMARK    2  A    between atoms: O_2  and  C_3
REMARK                            x       y       z     vdW  Elec       q    Type
REMARK                         _______ _______ _______ _____ _____    ______ ____
ROOT
ATOM      1  C   UNL     1       2.047   7.170  19.795  0.00  0.00    +0.000 C 
ATOM      2  C   UNL     1       1.606   6.134  20.533  0.00  0.00    +0.000 C 
ATOM      3  C   UNL     1       1.918   4.745  20.193  0.00  0.00    +0.000 A 
ATOM      4  C   UNL     1       1.448   3.687  20.964  0.00  0.00    +0.000 A 
ATOM      5  C   UNL     1       1.777   2.404  20.569  0.00  0.00    +0.000 A 
ATOM      6  N   UNL     1       2.528   2.120  19.481  0.00  0.00    +0.000 NA
ATOM      7  C   UNL     1       2.985   3.142  18.737  0.00  0.00    +0.000 A 
ATOM      8  C   UNL     1       3.756   2.891  17.617  0.00  0.00    +0.000 A 
ATOM      9  C   UNL     1       4.219   3.951  16.860  0.00  0.00    +0.000 A 
ATOM     10  N   UNL     1       3.962   5.240  17.149  0.00  0.00    +0.000 NA
ATOM     11  C   UNL     1       3.203   5.478  18.249  0.00  0.00    +0.000 A 
ATOM     12  C   UNL     1       2.699   4.474  19.065  0.00  0.00    +0.000 A 
ATOM     13  C   UNL     1       2.907   6.904  18.579  0.00  0.00    +0.000 C 
ATOM     14  O   UNL     1       3.336   7.827  17.893  0.00  0.00    +0.000 OA
ENDROOT
BRANCH   1  16
ATOM     15  C   UNL     1       1.007   8.834  21.191  0.00  0.00    +0.000 C 
ATOM     16  O   UNL     1       1.782   8.503  20.048  0.00  0.00    +0.000 OA
ENDBRANCH   1  16
TORSDOF 1
ENDMDL
MODEL 8
REMARK VINA RESULT:      -6.3      2.743      3.553
REMARK  Name = 
REMARK  2 active torsions:
REMARK  status: ('A' for Active; 'I' for Inactive)
REMARK    1  A    between atoms: C_1  and  O_2
REMARK    2  A    between atoms: O_2  and  C_3
REMARK                            x       y       z     vdW  Elec       q    Type
REMARK                         _______ _______ _______ _____ _____    ______ ____
ROOT
ATOM      1  C   UNL     1       3.092   3.803  20.472  0.00  0.00    +0.000 C 
ATOM      2  C   UNL     1       2.441   4.976  20.358  0.00  0.00    +0.000 C 
ATOM      3  C   UNL     1       2.796   5.970  19.345  0.00  0.00    +0.000 A 
ATOM      4  C   UNL     1       2.116   7.180  19.247  0.00  0.00    +0.000 A 
ATOM      5  C   UNL     1       2.521   8.071  18.270  0.00  0.00    +0.000 A 
ATOM      6  N   UNL     1       3.535   7.834  17.408  0.00  0.00    +0.000 NA
ATOM      7  C   UNL     1       4.191   6.665  17.501  0.00  0.00    +0.000 A 
ATOM      8  C   UNL     1       5.234   6.387  16.636  0.00  0.00    +0.000 A 
ATOM      9  C   UNL     1       5.901   5.180  16.743  0.00  0.00    +0.000 A 
ATOM     10  N   UNL     1       5.594   4.239  17.653  0.00  0.00    +0.000 NA
ATOM     11  C   UNL     1       4.570   4.519  18.499  0.00  0.00    +0.000 A 
ATOM     12  C   UNL     1       3.847   5.704  18.461  0.00  0.00    +0.000 A 
ATOM     13  C   UNL     1       4.222   3.484  19.517  0.00  0.00    +0.000 C 
ATOM     14  O   UNL     1       4.827   2.418  19.586  0.00  0.00    +0.000 OA
ENDROOT
BRANCH   1  16
ATOM     15  C   UNL     1       1.463   2.528  21.705  0.00  0.00    +0.000 C 
ATOM     16  O   UNL     1       2.821   2.825  21.410  0.00  0.00    +0.000 OA
ENDBRANCH   1  16
TORSDOF 1
ENDMDL
MODEL 9
REMARK VINA RESULT:      -6.2      1.464      3.117
REMARK  Name = 
REMARK  2 active torsions:
REMARK  status: ('A' for Active; 'I' for Inactive)
REMARK    1  A    between atoms: C_1  and  O_2
REMARK    2  A    between atoms: O_2  and  C_3
REMARK                            x       y       z     vdW  Elec       q    Type
REMARK                         _______ _______ _______ _____ _____    ______ ____
ROOT
ATOM      1  C   UNL     1       3.209   4.008  18.839  0.00  0.00    +0.000 C 
ATOM      2  C   UNL     1       4.251   4.569  19.481  0.00  0.00    +0.000 C 
ATOM      3  C   UNL     1       5.491   4.927  18.793  0.00  0.00    +0.000 A 
ATOM      4  C   UNL     1       6.559   5.500  19.475  0.00  0.00    +0.000 A 
ATOM      5  C   UNL     1       7.701   5.798  18.754  0.00  0.00    +0.000 A 
ATOM      6  N   UNL     1       7.838   5.566  17.429  0.00  0.00    +0.000 NA
ATOM      7  C   UNL     1       6.805   5.014  16.769  0.00  0.00    +0.000 A 
ATOM      8  C   UNL     1       6.907   4.762  15.414  0.00  0.00    +0.000 A 
ATOM      9  C   UNL     1       5.837   4.193  14.746  0.00  0.00    +0.000 A 
ATOM     10  N   UNL     1       4.679   3.863  15.344  0.00  0.00    +0.000 NA
ATOM     11  C   UNL     1       4.586   4.112  16.675  0.00  0.00    +0.000 A 
ATOM     12  C   UNL     1       5.610   4.681  17.421  0.00  0.00    +0.000 A 
ATOM     13  C   UNL     1       3.307   3.746  17.351  0.00  0.00    +0.000 C 
ATOM     14  O   UNL     1       2.370   3.248  16.734  0.00  0.00    +0.000 OA
ENDROOT
BRANCH   1  16
ATOM     15  C   UNL     1       1.723   4.107  20.732  0.00  0.00    +0.000 C 
ATOM     16  O   UNL     1       2.015   3.633  19.425  0.00  0.00    +0.000 OA
ENDBRANCH   1  16
TORSDOF 1
ENDMDL
