MODEL 1
REMARK VINA RESULT:      -8.7      0.000      0.000
REMARK  Name = 
REMARK  4 active torsions:
REMARK  status: ('A' for Active; 'I' for Inactive)
REMARK    1  A    between atoms: C_1  and  C_2
REMARK    2  A    between atoms: C_4  and  C_5
REMARK    3  A    between atoms: N_7  and  C_8
REMARK    4  A    between atoms: C_16  and  C_17
REMARK                            x       y       z     vdW  Elec       q    Type
REMARK                         _______ _______ _______ _____ _____    ______ ____
ROOT
ATOM      1  C   UNL     1       4.170   4.590  16.993  0.00  0.00    +0.000 C 
ATOM      2  O   UNL     1       3.863   5.701  17.423  0.00  0.00    +0.000 OA
ATOM      3  N   UNL     1       3.630   3.422  17.499  0.00  0.00    +0.000 N 
ATOM      4  H   UNL     1       3.901   2.554  17.044  0.00  0.00    +0.000 HD
ENDROOT
BRANCH   3   5
ATOM      5  C   UNL     1       2.804   3.376  18.601  0.00  0.00    +0.000 A 
ATOM      6  N   UNL     1       3.280   2.906  19.795  0.00  0.00    +0.000 N 
ATOM      7  C   UNL     1       2.548   2.790  20.952  0.00  0.00    +0.000 A 
ATOM      8  O   UNL     1       3.080   2.343  21.962  0.00  0.00    +0.000 OA
ATOM      9  N   UNL     1       1.234   3.186  20.920  0.00  0.00    +0.000 NA
ATOM     10  C   UNL     1       0.766   3.635  19.800  0.00  0.00    +0.000 A 
ATOM     11  C   UNL     1       1.526   3.758  18.549  0.00  0.00    +0.000 A 
ATOM     12  F   UNL     1       0.900   4.225  17.457  0.00  0.00    +0.000 F 
ATOM     13  H   UNL     1       4.255   2.616  19.857  0.00  0.00    +0.000 HD
ENDBRANCH   3   5
BRANCH   1  17
ATOM     14  C   UNL     1       6.424   3.666  12.687  0.00  0.00    +0.000 C 
ATOM     15  C   UNL     1       6.089   3.996  14.089  0.00  0.00    +0.000 A 
ATOM     16  N   UNL     1       4.987   3.728  14.768  0.00  0.00    +0.000 NA
ATOM     17  C   UNL     1       5.171   4.416  15.954  0.00  0.00    +0.000 A 
ATOM     18  C   UNL     1       6.438   4.970  15.984  0.00  0.00    +0.000 A 
ATOM     19  O   UNL     1       7.026   4.723  14.775  0.00  0.00    +0.000 OA
BRANCH  18  20
ATOM     20  C   UNL     1       7.190   5.730  16.974  0.00  0.00    +0.000 A 
ATOM     21  C   UNL     1       7.624   5.101  18.154  0.00  0.00    +0.000 A 
ATOM     22  C   UNL     1       8.159   5.839  19.208  0.00  0.00    +0.000 A 
ATOM     23  C   UNL     1       8.307   7.215  19.080  0.00  0.00    +0.000 A 
ATOM     24  C   UNL     1       7.950   7.845  17.886  0.00  0.00    +0.000 A 
ATOM     25  C   UNL     1       7.398   7.105  16.835  0.00  0.00    +0.000 A 
ENDBRANCH  18  20
ENDBRANCH   1  17
TORSDOF 3
ENDMDL
MODEL 2
REMARK VINA RESULT:      -8.6      1.607      1.802
REMARK  Name = 
REMARK  4 active torsions:
REMARK  status: ('A' for Active; 'I' for Inactive)
REMARK    1  A    between atoms: C_1  and  C_2
REMARK    2  A    between atoms: C_4  and  C_5
REMARK    3  A    between atoms: N_7  and  C_8
REMARK    4  A    between atoms: C_16  and  C_17
REMARK                            x       y       z     vdW  Elec       q    Type
REMARK                         _______ _______ _______ _____ _____    ______ ____
ROOT
ATOM      1  C   UNL     1       4.480   4.259  16.560  0.00  0.00    +0.000 C 
ATOM      2  O   UNL     1       3.798   5.235  16.868  0.00  0.00    +0.000 OA
ATOM      3  N   UNL     1       4.339   3.029  17.177  0.00  0.00    +0.000 N 
ATOM      4  H   UNL     1       4.906   2.266  16.818  0.00  0.00    +0.000 HD
ENDROOT
BRANCH   3   5
ATOM      5  C   UNL     1       3.524   2.810  18.266  0.00  0.00    +0.000 A 
ATOM      6  N   UNL     1       2.198   2.526  18.084  0.00  0.00    +0.000 N 
ATOM      7  C   UNL     1       1.285   2.313  19.089  0.00  0.00    +0.000 A 
ATOM      8  O   UNL     1       0.117   2.077  18.804  0.00  0.00    +0.000 OA
ATOM      9  N   UNL     1       1.734   2.379  20.385  0.00  0.00    +0.000 NA
ATOM     10  C   UNL     1       2.986   2.645  20.577  0.00  0.00    +0.000 A 
ATOM     11  C   UNL     1       3.977   2.886  19.520  0.00  0.00    +0.000 A 
ATOM     12  F   UNL     1       5.240   3.170  19.872  0.00  0.00    +0.000 F 
ATOM     13  H   UNL     1       1.835   2.458  17.134  0.00  0.00    +0.000 HD
ENDBRANCH   3   5
BRANCH   1  17
ATOM     14  C   UNL     1       6.975   4.174  12.289  0.00  0.00    +0.000 C 
ATOM     15  C   UNL     1       6.555   4.275  13.702  0.00  0.00    +0.000 A 
ATOM     16  N   UNL     1       5.470   3.797  14.286  0.00  0.00    +0.000 NA
ATOM     17  C   UNL     1       5.529   4.338  15.558  0.00  0.00    +0.000 A 
ATOM     18  C   UNL     1       6.721   5.022  15.722  0.00  0.00    +0.000 A 
ATOM     19  O   UNL     1       7.376   5.005  14.521  0.00  0.00    +0.000 OA
BRANCH  18  20
ATOM     20  C   UNL     1       7.343   5.723  16.837  0.00  0.00    +0.000 A 
ATOM     21  C   UNL     1       7.678   5.018  18.006  0.00  0.00    +0.000 A 
ATOM     22  C   UNL     1       8.079   5.687  19.161  0.00  0.00    +0.000 A 
ATOM     23  C   UNL     1       8.191   7.072  19.150  0.00  0.00    +0.000 A 
ATOM     24  C   UNL     1       7.935   7.782  17.975  0.00  0.00    +0.000 A 
ATOM     25  C   UNL     1       7.517   7.110  16.821  0.00  0.00    +0.000 A 
ENDBRANCH  18  20
ENDBRANCH   1  17
TORSDOF 3
ENDMDL
MODEL 3
REMARK VINA RESULT:      -8.6      1.670      2.123
REMARK  Name = 
REMARK  4 active torsions:
REMARK  status: ('A' for Active; 'I' for Inactive)
REMARK    1  A    between atoms: C_1  and  C_2
REMARK    2  A    between atoms: C_4  and  C_5
REMARK    3  A    between atoms: N_7  and  C_8
REMARK    4  A    between atoms: C_16  and  C_17
REMARK                            x       y       z     vdW  Elec       q    Type
REMARK                         _______ _______ _______ _____ _____    ______ ____
ROOT
ATOM      1  C   UNL     1       4.524   4.370  16.522  0.00  0.00    +0.000 C 
ATOM      2  O   UNL     1       3.692   5.259  16.704  0.00  0.00    +0.000 OA
ATOM      3  N   UNL     1       4.491   3.171  17.208  0.00  0.00    +0.000 N 
ATOM      4  H   UNL     1       5.186   2.474  16.952  0.00  0.00    +0.000 HD
ENDROOT
BRANCH   3   5
ATOM      5  C   UNL     1       3.616   2.902  18.239  0.00  0.00    +0.000 A 
ATOM      6  N   UNL     1       2.298   2.650  17.970  0.00  0.00    +0.000 N 
ATOM      7  C   UNL     1       1.330   2.395  18.910  0.00  0.00    +0.000 A 
ATOM      8  O   UNL     1       0.176   2.193  18.551  0.00  0.00    +0.000 OA
ATOM      9  N   UNL     1       1.708   2.381  20.230  0.00  0.00    +0.000 NA
ATOM     10  C   UNL     1       2.951   2.615  20.504  0.00  0.00    +0.000 A 
ATOM     11  C   UNL     1       4.001   2.901  19.517  0.00  0.00    +0.000 A 
ATOM     12  F   UNL     1       5.247   3.145  19.952  0.00  0.00    +0.000 F 
ATOM     13  H   UNL     1       1.986   2.641  17.000  0.00  0.00    +0.000 HD
ENDBRANCH   3   5
BRANCH   1  17
ATOM     14  C   UNL     1       7.363   4.475  12.472  0.00  0.00    +0.000 C 
ATOM     15  C   UNL     1       6.819   4.551  13.845  0.00  0.00    +0.000 A 
ATOM     16  N   UNL     1       5.738   3.980  14.346  0.00  0.00    +0.000 NA
ATOM     17  C   UNL     1       5.641   4.538  15.608  0.00  0.00    +0.000 A 
ATOM     18  C   UNL     1       6.746   5.332  15.857  0.00  0.00    +0.000 A 
ATOM     19  O   UNL     1       7.497   5.363  14.715  0.00  0.00    +0.000 OA
BRANCH  18  20
ATOM     20  C   UNL     1       7.205   6.100  17.006  0.00  0.00    +0.000 A 
ATOM     21  C   UNL     1       7.462   7.476  16.868  0.00  0.00    +0.000 A 
ATOM     22  C   UNL     1       8.096   8.194  17.880  0.00  0.00    +0.000 A 
ATOM     23  C   UNL     1       8.442   7.556  19.065  0.00  0.00    +0.000 A 
ATOM     24  C   UNL     1       8.126   6.208  19.247  0.00  0.00    +0.000 A 
ATOM     25  C   UNL     1       7.505   5.483  18.224  0.00  0.00    +0.000 A 
ENDBRANCH  18  20
ENDBRANCH   1  17
TORSDOF 3
ENDMDL
MODEL 4
REMARK VINA RESULT:      -8.5      0.359      1.066
REMARK  Name = 
REMARK  4 active torsions:
REMARK  status: ('A' for Active; 'I' for Inactive)
REMARK    1  A    between atoms: C_1  and  C_2
REMARK    2  A    between atoms: C_4  and  C_5
REMARK    3  A    between atoms: N_7  and  C_8
REMARK    4  A    between atoms: C_16  and  C_17
REMARK                            x       y       z     vdW  Elec       q    Type
REMARK                         _______ _______ _______ _____ _____    ______ ____
ROOT
ATOM      1  C   UNL     1       4.121   4.725  17.043  0.00  0.00    +0.000 C 
ATOM      2  O   UNL     1       3.657   5.803  17.412  0.00  0.00    +0.000 OA
ATOM      3  N   UNL     1       3.707   3.518  17.576  0.00  0.00    +0.000 N 
ATOM      4  H   UNL     1       4.106   2.675  17.171  0.00  0.00    +0.000 HD
ENDROOT
BRANCH   3   5
ATOM      5  C   UNL     1       2.842   3.409  18.643  0.00  0.00    +0.000 A 
ATOM      6  N   UNL     1       3.293   2.934  19.845  0.00  0.00    +0.000 N 
ATOM      7  C   UNL     1       2.522   2.759  20.969  0.00  0.00    +0.000 A 
ATOM      8  O   UNL     1       3.035   2.314  21.989  0.00  0.00    +0.000 OA
ATOM      9  N   UNL     1       1.193   3.093  20.892  0.00  0.00    +0.000 NA
ATOM     10  C   UNL     1       0.749   3.546  19.764  0.00  0.00    +0.000 A 
ATOM     11  C   UNL     1       1.550   3.732  18.547  0.00  0.00    +0.000 A 
ATOM     12  F   UNL     1       0.947   4.194  17.441  0.00  0.00    +0.000 F 
ATOM     13  H   UNL     1       4.277   2.688  19.939  0.00  0.00    +0.000 HD
ENDBRANCH   3   5
BRANCH   1  17
ATOM     14  C   UNL     1       6.668   3.967  12.871  0.00  0.00    +0.000 C 
ATOM     15  C   UNL     1       6.232   4.286  14.247  0.00  0.00    +0.000 A 
ATOM     16  N   UNL     1       5.134   3.913  14.881  0.00  0.00    +0.000 NA
ATOM     17  C   UNL     1       5.184   4.641  16.056  0.00  0.00    +0.000 A 
ATOM     18  C   UNL     1       6.381   5.330  16.131  0.00  0.00    +0.000 A 
ATOM     19  O   UNL     1       7.050   5.124  14.957  0.00  0.00    +0.000 OA
BRANCH  18  20
ATOM     20  C   UNL     1       6.996   6.187  17.135  0.00  0.00    +0.000 A 
ATOM     21  C   UNL     1       7.184   7.555  16.866  0.00  0.00    +0.000 A 
ATOM     22  C   UNL     1       7.950   8.356  17.710  0.00  0.00    +0.000 A 
ATOM     23  C   UNL     1       8.506   7.810  18.860  0.00  0.00    +0.000 A 
ATOM     24  C   UNL     1       8.267   6.472  19.182  0.00  0.00    +0.000 A 
ATOM     25  C   UNL     1       7.511   5.665  18.325  0.00  0.00    +0.000 A 
ENDBRANCH  18  20
ENDBRANCH   1  17
TORSDOF 3
ENDMDL
MODEL 5
REMARK VINA RESULT:      -8.2      3.088      6.522
REMARK  Name = 
REMARK  4 active torsions:
REMARK  status: ('A' for Active; 'I' for Inactive)
REMARK    1  A    between atoms: C_1  and  C_2
REMARK    2  A    between atoms: C_4  and  C_5
REMARK    3  A    between atoms: N_7  and  C_8
REMARK    4  A    between atoms: C_16  and  C_17
REMARK                            x       y       z     vdW  Elec       q    Type
REMARK                         _______ _______ _______ _____ _____    ______ ____
ROOT
ATOM      1  C   UNL     1       4.642   4.620  19.193  0.00  0.00    +0.000 C 
ATOM      2  O   UNL     1       5.627   5.076  19.773  0.00  0.00    +0.000 OA
ATOM      3  N   UNL     1       4.617   4.409  17.827  0.00  0.00    +0.000 N 
ATOM      4  H   UNL     1       3.781   3.977  17.443  0.00  0.00    +0.000 HD
ENDROOT
BRANCH   3   5
ATOM      5  C   UNL     1       5.627   4.798  16.974  0.00  0.00    +0.000 A 
ATOM      6  N   UNL     1       6.306   5.964  17.203  0.00  0.00    +0.000 N 
ATOM      7  C   UNL     1       7.311   6.467  16.413  0.00  0.00    +0.000 A 
ATOM      8  O   UNL     1       7.840   7.531  16.713  0.00  0.00    +0.000 OA
ATOM      9  N   UNL     1       7.679   5.741  15.307  0.00  0.00    +0.000 NA
ATOM     10  C   UNL     1       7.050   4.634  15.075  0.00  0.00    +0.000 A 
ATOM     11  C   UNL     1       5.966   4.083  15.899  0.00  0.00    +0.000 A 
ATOM     12  F   UNL     1       5.391   2.930  15.522  0.00  0.00    +0.000 F 
ATOM     13  H   UNL     1       6.066   6.520  18.023  0.00  0.00    +0.000 HD
ENDBRANCH   3   5
BRANCH   1  17
ATOM     14  C   UNL     1       1.200   2.497  22.042  0.00  0.00    +0.000 C 
ATOM     15  C   UNL     1       1.962   3.364  21.118  0.00  0.00    +0.000 A 
ATOM     16  N   UNL     1       3.071   3.100  20.450  0.00  0.00    +0.000 NA
ATOM     17  C   UNL     1       3.405   4.321  19.894  0.00  0.00    +0.000 A 
ATOM     18  C   UNL     1       2.407   5.243  20.153  0.00  0.00    +0.000 A 
ATOM     19  O   UNL     1       1.485   4.638  20.962  0.00  0.00    +0.000 OA
BRANCH  18  20
ATOM     20  C   UNL     1       2.188   6.634  19.777  0.00  0.00    +0.000 A 
ATOM     21  C   UNL     1       1.619   7.526  20.703  0.00  0.00    +0.000 A 
ATOM     22  C   UNL     1       1.206   8.799  20.316  0.00  0.00    +0.000 A 
ATOM     23  C   UNL     1       1.397   9.215  19.004  0.00  0.00    +0.000 A 
ATOM     24  C   UNL     1       2.029   8.370  18.091  0.00  0.00    +0.000 A 
ATOM     25  C   UNL     1       2.428   7.085  18.476  0.00  0.00    +0.000 A 
ENDBRANCH  18  20
ENDBRANCH   1  17
TORSDOF 3
ENDMDL
MODEL 6
REMARK VINA RESULT:      -8.2      4.935      6.609
REMARK  Name = 
REMARK  4 active torsions:
REMARK  status: ('A' for Active; 'I' for Inactive)
REMARK    1  A    between atoms: C_1  and  C_2
REMARK    2  A    between atoms: C_4  and  C_5
REMARK    3  A    between atoms: N_7  and  C_8
REMARK    4  A    between atoms: C_16  and  C_17
REMARK                            x       y       z     vdW  Elec       q    Type
REMARK                         _______ _______ _______ _____ _____    ______ ____
ROOT
ATOM      1  C   UNL     1       2.133   8.005  19.094  0.00  0.00    +0.000 C 
ATOM      2  O   UNL     1       1.931   7.821  20.294  0.00  0.00    +0.000 OA
ATOM      3  N   UNL     1       1.565   9.056  18.399  0.00  0.00    +0.000 N 
ATOM      4  H   UNL     1       1.834   9.162  17.424  0.00  0.00    +0.000 HD
ENDROOT
BRANCH   3   5
ATOM      5  C   UNL     1       0.631   9.914  18.938  0.00  0.00    +0.000 A 
ATOM      6  N   UNL     1       0.877  10.530  20.135  0.00  0.00    +0.000 N 
ATOM      7  C   UNL     1       0.015  11.383  20.781  0.00  0.00    +0.000 A 
ATOM      8  O   UNL     1       0.340  11.867  21.859  0.00  0.00    +0.000 OA
ATOM      9  N   UNL     1      -1.189  11.653  20.179  0.00  0.00    +0.000 NA
ATOM     10  C   UNL     1      -1.438  11.082  19.045  0.00  0.00    +0.000 A 
ATOM     11  C   UNL     1      -0.538  10.159  18.341  0.00  0.00    +0.000 A 
ATOM     12  F   UNL     1      -0.941   9.626  17.177  0.00  0.00    +0.000 F 
ATOM     13  H   UNL     1       1.766  10.360  20.603  0.00  0.00    +0.000 HD
ENDBRANCH   3   5
BRANCH   1  17
ATOM     14  C   UNL     1       5.595   6.114  16.109  0.00  0.00    +0.000 C 
ATOM     15  C   UNL     1       4.441   6.339  17.005  0.00  0.00    +0.000 A 
ATOM     16  N   UNL     1       3.818   7.467  17.297  0.00  0.00    +0.000 NA
ATOM     17  C   UNL     1       2.943   7.096  18.302  0.00  0.00    +0.000 A 
ATOM     18  C   UNL     1       2.993   5.726  18.485  0.00  0.00    +0.000 A 
ATOM     19  O   UNL     1       3.974   5.235  17.669  0.00  0.00    +0.000 OA
BRANCH  18  20
ATOM     20  C   UNL     1       2.272   4.790  19.338  0.00  0.00    +0.000 A 
ATOM     21  C   UNL     1       2.599   4.695  20.702  0.00  0.00    +0.000 A 
ATOM     22  C   UNL     1       2.081   3.674  21.496  0.00  0.00    +0.000 A 
ATOM     23  C   UNL     1       1.193   2.757  20.947  0.00  0.00    +0.000 A 
ATOM     24  C   UNL     1       0.799   2.883  19.613  0.00  0.00    +0.000 A 
ATOM     25  C   UNL     1       1.333   3.898  18.812  0.00  0.00    +0.000 A 
ENDBRANCH  18  20
ENDBRANCH   1  17
TORSDOF 3
ENDMDL
MODEL 7
REMARK VINA RESULT:      -8.2      1.698      2.100
REMARK  Name = 
REMARK  4 active torsions:
REMARK  status: ('A' for Active; 'I' for Inactive)
REMARK    1  A    between atoms: C_1  and  C_2
REMARK    2  A    between atoms: C_4  and  C_5
REMARK    3  A    between atoms: N_7  and  C_8
REMARK    4  A    between atoms: C_16  and  C_17
REMARK                            x       y       z     vdW  Elec       q    Type
REMARK                         _______ _______ _______ _____ _____    ______ ____
ROOT
ATOM      1  C   UNL     1       4.450   4.164  16.943  0.00  0.00    +0.000 C 
ATOM      2  O   UNL     1       3.330   4.650  16.792  0.00  0.00    +0.000 OA
ATOM      3  N   UNL     1       4.824   3.506  18.100  0.00  0.00    +0.000 N 
ATOM      4  H   UNL     1       5.751   3.089  18.113  0.00  0.00    +0.000 HD
ENDROOT
BRANCH   3   5
ATOM      5  C   UNL     1       4.039   3.439  19.230  0.00  0.00    +0.000 A 
ATOM      6  N   UNL     1       3.234   4.493  19.568  0.00  0.00    +0.000 N 
ATOM      7  C   UNL     1       2.427   4.553  20.680  0.00  0.00    +0.000 A 
ATOM      8  O   UNL     1       1.757   5.557  20.886  0.00  0.00    +0.000 OA
ATOM      9  N   UNL     1       2.415   3.467  21.519  0.00  0.00    +0.000 NA
ATOM     10  C   UNL     1       3.168   2.459  21.215  0.00  0.00    +0.000 A 
ATOM     11  C   UNL     1       4.045   2.377  20.039  0.00  0.00    +0.000 A 
ATOM     12  F   UNL     1       4.786   1.272  19.863  0.00  0.00    +0.000 F 
ATOM     13  H   UNL     1       3.211   5.310  18.960  0.00  0.00    +0.000 HD
ENDBRANCH   3   5
BRANCH   1  17
ATOM     14  C   UNL     1       6.970   4.040  12.688  0.00  0.00    +0.000 C 
ATOM     15  C   UNL     1       6.528   4.207  14.088  0.00  0.00    +0.000 A 
ATOM     16  N   UNL     1       5.511   3.642  14.716  0.00  0.00    +0.000 NA
ATOM     17  C   UNL     1       5.488   4.295  15.935  0.00  0.00    +0.000 A 
ATOM     18  C   UNL     1       6.577   5.142  16.035  0.00  0.00    +0.000 A 
ATOM     19  O   UNL     1       7.238   5.107  14.838  0.00  0.00    +0.000 OA
BRANCH  18  20
ATOM     20  C   UNL     1       7.091   6.014  17.082  0.00  0.00    +0.000 A 
ATOM     21  C   UNL     1       7.217   7.393  16.843  0.00  0.00    +0.000 A 
ATOM     22  C   UNL     1       7.893   8.221  17.737  0.00  0.00    +0.000 A 
ATOM     23  C   UNL     1       8.417   7.686  18.908  0.00  0.00    +0.000 A 
ATOM     24  C   UNL     1       8.236   6.332  19.197  0.00  0.00    +0.000 A 
ATOM     25  C   UNL     1       7.572   5.499  18.290  0.00  0.00    +0.000 A 
ENDBRANCH  18  20
ENDBRANCH   1  17
TORSDOF 3
ENDMDL
MODEL 8
REMARK VINA RESULT:      -8.1      1.736      2.074
REMARK  Name = 
REMARK  4 active torsions:
REMARK  status: ('A' for Active; 'I' for Inactive)
REMARK    1  A    between atoms: C_1  and  C_2
REMARK    2  A    between atoms: C_4  and  C_5
REMARK    3  A    between atoms: N_7  and  C_8
REMARK    4  A    between atoms: C_16  and  C_17
REMARK                            x       y       z     vdW  Elec       q    Type
REMARK                         _______ _______ _______ _____ _____    ______ ____
ROOT
ATOM      1  C   UNL     1       4.823   3.659  16.835  0.00  0.00    +0.000 C 
ATOM      2  O   UNL     1       4.697   2.482  17.171  0.00  0.00    +0.000 OA
ATOM      3  N   UNL     1       4.068   4.675  17.393  0.00  0.00    +0.000 N 
ATOM      4  H   UNL     1       4.281   5.623  17.095  0.00  0.00    +0.000 HD
ENDROOT
BRANCH   3   5
ATOM      5  C   UNL     1       3.028   4.461  18.271  0.00  0.00    +0.000 A 
ATOM      6  N   UNL     1       2.126   3.460  18.033  0.00  0.00    +0.000 N 
ATOM      7  C   UNL     1       1.038   3.168  18.821  0.00  0.00    +0.000 A 
ATOM      8  O   UNL     1       0.289   2.252  18.500  0.00  0.00    +0.000 OA
ATOM      9  N   UNL     1       0.839   3.931  19.945  0.00  0.00    +0.000 NA
ATOM     10  C   UNL     1       1.684   4.880  20.188  0.00  0.00    +0.000 A 
ATOM     11  C   UNL     1       2.846   5.218  19.356  0.00  0.00    +0.000 A 
ATOM     12  F   UNL     1       3.626   6.246  19.724  0.00  0.00    +0.000 F 
ATOM     13  H   UNL     1       2.251   2.868  17.214  0.00  0.00    +0.000 HD
ENDBRANCH   3   5
BRANCH   1  17
ATOM     14  C   UNL     1       6.967   4.410  12.441  0.00  0.00    +0.000 C 
ATOM     15  C   UNL     1       6.623   4.350  13.877  0.00  0.00    +0.000 A 
ATOM     16  N   UNL     1       5.762   3.562  14.497  0.00  0.00    +0.000 NA
ATOM     17  C   UNL     1       5.740   4.066  15.785  0.00  0.00    +0.000 A 
ATOM     18  C   UNL     1       6.689   5.064  15.914  0.00  0.00    +0.000 A 
ATOM     19  O   UNL     1       7.245   5.268  14.682  0.00  0.00    +0.000 OA
BRANCH  18  20
ATOM     20  C   UNL     1       7.147   5.890  17.023  0.00  0.00    +0.000 A 
ATOM     21  C   UNL     1       7.295   7.277  16.846  0.00  0.00    +0.000 A 
ATOM     22  C   UNL     1       7.923   8.063  17.810  0.00  0.00    +0.000 A 
ATOM     23  C   UNL     1       8.376   7.479  18.987  0.00  0.00    +0.000 A 
ATOM     24  C   UNL     1       8.170   6.116  19.211  0.00  0.00    +0.000 A 
ATOM     25  C   UNL     1       7.554   5.325  18.235  0.00  0.00    +0.000 A 
ENDBRANCH  18  20
ENDBRANCH   1  17
TORSDOF 3
ENDMDL
MODEL 9
REMARK VINA RESULT:      -8.1      1.340      1.418
REMARK  Name = 
REMARK  4 active torsions:
REMARK  status: ('A' for Active; 'I' for Inactive)
REMARK    1  A    between atoms: C_1  and  C_2
REMARK    2  A    between atoms: C_4  and  C_5
REMARK    3  A    between atoms: N_7  and  C_8
REMARK    4  A    between atoms: C_16  and  C_17
REMARK                            x       y       z     vdW  Elec       q    Type
REMARK                         _______ _______ _______ _____ _____    ______ ____
ROOT
ATOM      1  C   UNL     1       4.188   4.684  16.914  0.00  0.00    +0.000 C 
ATOM      2  O   UNL     1       3.768   5.799  17.222  0.00  0.00    +0.000 OA
ATOM      3  N   UNL     1       3.764   3.531  17.549  0.00  0.00    +0.000 N 
ATOM      4  H   UNL     1       4.123   2.650  17.191  0.00  0.00    +0.000 HD
ENDROOT
BRANCH   3   5
ATOM      5  C   UNL     1       2.941   3.525  18.655  0.00  0.00    +0.000 A 
ATOM      6  N   UNL     1       2.579   4.705  19.246  0.00  0.00    +0.000 N 
ATOM      7  C   UNL     1       1.787   4.823  20.362  0.00  0.00    +0.000 A 
ATOM      8  O   UNL     1       1.538   5.936  20.811  0.00  0.00    +0.000 OA
ATOM      9  N   UNL     1       1.308   3.670  20.932  0.00  0.00    +0.000 NA
ATOM     10  C   UNL     1       1.637   2.544  20.386  0.00  0.00    +0.000 A 
ATOM     11  C   UNL     1       2.491   2.392  19.199  0.00  0.00    +0.000 A 
ATOM     12  F   UNL     1       2.764   1.155  18.756  0.00  0.00    +0.000 F 
ATOM     13  H   UNL     1       2.908   5.579  18.841  0.00  0.00    +0.000 HD
ENDBRANCH   3   5
BRANCH   1  17
ATOM     14  C   UNL     1       6.512   3.730  12.653  0.00  0.00    +0.000 C 
ATOM     15  C   UNL     1       6.154   4.065  14.048  0.00  0.00    +0.000 A 
ATOM     16  N   UNL     1       5.037   3.810  14.707  0.00  0.00    +0.000 NA
ATOM     17  C   UNL     1       5.205   4.498  15.894  0.00  0.00    +0.000 A 
ATOM     18  C   UNL     1       6.478   5.039  15.948  0.00  0.00    +0.000 A 
ATOM     19  O   UNL     1       7.086   4.783  14.750  0.00  0.00    +0.000 OA
BRANCH  18  20
ATOM     20  C   UNL     1       7.218   5.792  16.951  0.00  0.00    +0.000 A 
ATOM     21  C   UNL     1       7.627   5.159  18.138  0.00  0.00    +0.000 A 
ATOM     22  C   UNL     1       8.150   5.893  19.201  0.00  0.00    +0.000 A 
ATOM     23  C   UNL     1       8.311   7.267  19.076  0.00  0.00    +0.000 A 
ATOM     24  C   UNL     1       7.981   7.900  17.876  0.00  0.00    +0.000 A 
ATOM     25  C   UNL     1       7.440   7.165  16.815  0.00  0.00    +0.000 A 
ENDBRANCH  18  20
ENDBRANCH   1  17
TORSDOF 3
ENDMDL
