MODEL 1
REMARK VINA RESULT:      -8.2      0.000      0.000
REMARK  Name = 
REMARK  10 active torsions:
REMARK  status: ('A' for Active; 'I' for Inactive)
REMARK    1  A    between atoms: C_1  and  C_2
REMARK    2  A    between atoms: C_2  and  C_3
REMARK    3  A    between atoms: C_8  and  C_9
REMARK    4  A    between atoms: C_9  and  C_10
REMARK    5  A    between atoms: C_11  and  N_12
REMARK    6  A    between atoms: C_13  and  C_15
REMARK    7  A    between atoms: C_15  and  C_16
REMARK    8  A    between atoms: C_16  and  C_17
REMARK    9  A    between atoms: C_18  and  C_19
REMARK   10  A    between atoms: C_23  and  C_24
REMARK                            x       y       z     vdW  Elec       q    Type
REMARK                         _______ _______ _______ _____ _____    ______ ____
ROOT
ATOM      1  N   UNL     1       2.770   6.404  19.943  0.00  0.00    +0.000 N 
ATOM      2  C   UNL     1       2.099   7.560  19.555  0.00  0.00    +0.000 C 
ATOM      3  O   UNL     1       1.678   7.786  18.421  0.00  0.00    +0.000 OA
ATOM      4  H   UNL     1       2.655   6.175  20.923  0.00  0.00    +0.000 HD
ENDROOT
BRANCH   1  11
ATOM      5  C   UNL     1       3.830   5.318  17.983  0.00  0.00    +0.000 A 
ATOM      6  C   UNL     1       3.878   4.231  17.090  0.00  0.00    +0.000 A 
ATOM      7  C   UNL     1       3.063   3.120  17.274  0.00  0.00    +0.000 A 
ATOM      8  C   UNL     1       2.191   3.067  18.360  0.00  0.00    +0.000 A 
ATOM      9 CL   UNL     1       1.256   1.617  18.525  0.00  0.00    +0.000 Cl
ATOM     10  C   UNL     1       2.082   4.148  19.265  0.00  0.00    +0.000 A 
ATOM     11  C   UNL     1       2.899   5.294  19.053  0.00  0.00    +0.000 A 
BRANCH   5  13
ATOM     12  C   UNL     1       5.096   6.721  16.328  0.00  0.00    +0.000 C 
ATOM     13  C   UNL     1       4.886   6.390  17.801  0.00  0.00    +0.000 C 
ENDBRANCH   5  13
BRANCH  10  14
ATOM     14  C   UNL     1       1.059   4.096  20.386  0.00  0.00    +0.000 C 
ATOM     15  C   UNL     1       1.505   3.244  21.566  0.00  0.00    +0.000 C 
ENDBRANCH  10  14
ENDBRANCH   1  11
BRANCH   2  16
ATOM     16  C   UNL     1       1.780   8.526  20.686  0.00  0.00    +0.000 C 
BRANCH  16  17
ATOM     17  C   UNL     1       0.354   8.443  21.227  0.00  0.00    +0.000 C 
BRANCH  17  18
ATOM     18  C   UNL     1      -0.216   9.831  21.506  0.00  0.00    +0.000 A 
ATOM     19  C   UNL     1      -0.694  10.686  20.569  0.00  0.00    +0.000 A 
ATOM     20  C   UNL     1      -0.774  10.357  19.099  0.00  0.00    +0.000 C 
ATOM     21  C   UNL     1      -1.205  12.006  20.984  0.00  0.00    +0.000 A 
ATOM     22  C   UNL     1      -1.741  12.949  20.095  0.00  0.00    +0.000 A 
ATOM     23  C   UNL     1      -2.242  14.176  20.546  0.00  0.00    +0.000 A 
ATOM     24  C   UNL     1      -2.213  14.502  21.904  0.00  0.00    +0.000 A 
ATOM     25  C   UNL     1      -2.751  15.819  22.380  0.00  0.00    +0.000 C 
ATOM     26  C   UNL     1      -1.652  13.585  22.801  0.00  0.00    +0.000 A 
ATOM     27  C   UNL     1      -1.169  12.357  22.330  0.00  0.00    +0.000 A 
ATOM     28  O   UNL     1      -0.651  11.473  23.293  0.00  0.00    +0.000 OA
ATOM     29  C   UNL     1      -0.209  10.205  22.951  0.00  0.00    +0.000 A 
ATOM     30  O   UNL     1       0.172   9.413  23.811  0.00  0.00    +0.000 OA
ENDBRANCH  17  18
ENDBRANCH  16  17
ENDBRANCH   2  16
TORSDOF 6
ENDMDL
MODEL 2
REMARK VINA RESULT:      -8.0      1.063      2.642
REMARK  Name = 
REMARK  10 active torsions:
REMARK  status: ('A' for Active; 'I' for Inactive)
REMARK    1  A    between atoms: C_1  and  C_2
REMARK    2  A    between atoms: C_2  and  C_3
REMARK    3  A    between atoms: C_8  and  C_9
REMARK    4  A    between atoms: C_9  and  C_10
REMARK    5  A    between atoms: C_11  and  N_12
REMARK    6  A    between atoms: C_13  and  C_15
REMARK    7  A    between atoms: C_15  and  C_16
REMARK    8  A    between atoms: C_16  and  C_17
REMARK    9  A    between atoms: C_18  and  C_19
REMARK   10  A    between atoms: C_23  and  C_24
REMARK                            x       y       z     vdW  Elec       q    Type
REMARK                         _______ _______ _______ _____ _____    ______ ____
ROOT
ATOM      1  N   UNL     1       2.860   6.255  19.887  0.00  0.00    +0.000 N 
ATOM      2  C   UNL     1       2.122   7.385  19.551  0.00  0.00    +0.000 C 
ATOM      3  O   UNL     1       1.618   7.598  18.449  0.00  0.00    +0.000 OA
ATOM      4  H   UNL     1       2.820   6.019  20.871  0.00  0.00    +0.000 HD
ENDROOT
BRANCH   1  11
ATOM      5  C   UNL     1       2.143   4.007  19.125  0.00  0.00    +0.000 A 
ATOM      6  C   UNL     1       2.330   2.916  18.257  0.00  0.00    +0.000 A 
ATOM      7  C   UNL     1       3.274   2.967  17.239  0.00  0.00    +0.000 A 
ATOM      8  C   UNL     1       4.045   4.114  17.060  0.00  0.00    +0.000 A 
ATOM      9 CL   UNL     1       5.159   4.094  15.733  0.00  0.00    +0.000 Cl
ATOM     10  C   UNL     1       3.919   5.223  17.928  0.00  0.00    +0.000 A 
ATOM     11  C   UNL     1       2.969   5.152  18.986  0.00  0.00    +0.000 A 
BRANCH   5  13
ATOM     12  C   UNL     1       1.245   2.961  21.225  0.00  0.00    +0.000 C 
ATOM     13  C   UNL     1       0.965   3.922  20.076  0.00  0.00    +0.000 C 
ENDBRANCH   5  13
BRANCH  10  14
ATOM     14  C   UNL     1       4.835   6.423  17.761  0.00  0.00    +0.000 C 
ATOM     15  C   UNL     1       6.263   6.155  18.215  0.00  0.00    +0.000 C 
ENDBRANCH  10  14
ENDBRANCH   1  11
BRANCH   2  16
ATOM     16  C   UNL     1       1.844   8.337  20.705  0.00  0.00    +0.000 C 
BRANCH  16  17
ATOM     17  C   UNL     1       0.415   8.304  21.243  0.00  0.00    +0.000 C 
BRANCH  17  18
ATOM     18  C   UNL     1      -0.118   9.711  21.493  0.00  0.00    +0.000 A 
ATOM     19  C   UNL     1      -0.557  10.566  20.537  0.00  0.00    +0.000 A 
ATOM     20  C   UNL     1      -0.627  10.217  19.070  0.00  0.00    +0.000 C 
ATOM     21  C   UNL     1      -1.034  11.906  20.924  0.00  0.00    +0.000 A 
ATOM     22  C   UNL     1      -1.531  12.850  20.013  0.00  0.00    +0.000 A 
ATOM     23  C   UNL     1      -2.001  14.098  20.439  0.00  0.00    +0.000 A 
ATOM     24  C   UNL     1      -1.981  14.445  21.792  0.00  0.00    +0.000 A 
ATOM     25  C   UNL     1      -2.486  15.785  22.240  0.00  0.00    +0.000 C 
ATOM     26  C   UNL     1      -1.459  13.526  22.710  0.00  0.00    +0.000 A 
ATOM     27  C   UNL     1      -1.006  12.277  22.265  0.00  0.00    +0.000 A 
ATOM     28  O   UNL     1      -0.528  11.393  23.249  0.00  0.00    +0.000 OA
ATOM     29  C   UNL     1      -0.119  10.108  22.932  0.00  0.00    +0.000 A 
ATOM     30  O   UNL     1       0.227   9.319  23.809  0.00  0.00    +0.000 OA
ENDBRANCH  17  18
ENDBRANCH  16  17
ENDBRANCH   2  16
TORSDOF 6
ENDMDL
MODEL 3
REMARK VINA RESULT:      -7.9      3.740      8.722
REMARK  Name = 
REMARK  10 active torsions:
REMARK  status: ('A' for Active; 'I' for Inactive)
REMARK    1  A    between atoms: C_1  and  C_2
REMARK    2  A    between atoms: C_2  and  C_3
REMARK    3  A    between atoms: C_8  and  C_9
REMARK    4  A    between atoms: C_9  and  C_10
REMARK    5  A    between atoms: C_11  and  N_12
REMARK    6  A    between atoms: C_13  and  C_15
REMARK    7  A    between atoms: C_15  and  C_16
REMARK    8  A    between atoms: C_16  and  C_17
REMARK    9  A    between atoms: C_18  and  C_19
REMARK   10  A    between atoms: C_23  and  C_24
REMARK                            x       y       z     vdW  Elec       q    Type
REMARK                         _______ _______ _______ _____ _____    ______ ____
ROOT
ATOM      1  N   UNL     1       2.336   6.571  20.633  0.00  0.00    +0.000 N 
ATOM      2  C   UNL     1       1.658   5.357  20.596  0.00  0.00    +0.000 C 
ATOM      3  O   UNL     1       0.592   5.160  20.014  0.00  0.00    +0.000 OA
ATOM      4  H   UNL     1       3.338   6.475  20.745  0.00  0.00    +0.000 HD
ENDROOT
BRANCH   1  11
ATOM      5  C   UNL     1       2.367   7.873  18.524  0.00  0.00    +0.000 A 
ATOM      6  C   UNL     1       1.963   9.017  17.811  0.00  0.00    +0.000 A 
ATOM      7  C   UNL     1       1.077   9.930  18.369  0.00  0.00    +0.000 A 
ATOM      8  C   UNL     1       0.566   9.713  19.647  0.00  0.00    +0.000 A 
ATOM      9 CL   UNL     1      -0.570  10.885  20.231  0.00  0.00    +0.000 Cl
ATOM     10  C   UNL     1       0.968   8.597  20.417  0.00  0.00    +0.000 A 
ATOM     11  C   UNL     1       1.898   7.682  19.849  0.00  0.00    +0.000 A 
BRANCH   5  13
ATOM     12  C   UNL     1       4.371   7.500  17.056  0.00  0.00    +0.000 C 
ATOM     13  C   UNL     1       3.184   6.851  17.758  0.00  0.00    +0.000 C 
ENDBRANCH   5  13
BRANCH  10  14
ATOM     14  C   UNL     1       0.462   8.437  21.840  0.00  0.00    +0.000 C 
ATOM     15  C   UNL     1       1.161   9.355  22.832  0.00  0.00    +0.000 C 
ENDBRANCH  10  14
ENDBRANCH   1  11
BRANCH   2  16
ATOM     16  C   UNL     1       2.396   4.190  21.235  0.00  0.00    +0.000 C 
BRANCH  16  17
ATOM     17  C   UNL     1       2.565   2.963  20.342  0.00  0.00    +0.000 C 
BRANCH  17  18
ATOM     18  C   UNL     1       3.350   3.299  19.077  0.00  0.00    +0.000 A 
ATOM     19  C   UNL     1       4.639   3.714  19.040  0.00  0.00    +0.000 A 
ATOM     20  C   UNL     1       5.508   3.856  20.267  0.00  0.00    +0.000 C 
ATOM     21  C   UNL     1       5.268   4.017  17.742  0.00  0.00    +0.000 A 
ATOM     22  C   UNL     1       6.602   4.427  17.598  0.00  0.00    +0.000 A 
ATOM     23  C   UNL     1       7.159   4.672  16.337  0.00  0.00    +0.000 A 
ATOM     24  C   UNL     1       6.394   4.521  15.178  0.00  0.00    +0.000 A 
ATOM     25  C   UNL     1       6.999   4.785  13.830  0.00  0.00    +0.000 C 
ATOM     26  C   UNL     1       5.053   4.142  15.306  0.00  0.00    +0.000 A 
ATOM     27  C   UNL     1       4.519   3.889  16.576  0.00  0.00    +0.000 A 
ATOM     28  O   UNL     1       3.175   3.479  16.624  0.00  0.00    +0.000 OA
ATOM     29  C   UNL     1       2.562   3.137  17.819  0.00  0.00    +0.000 A 
ATOM     30  O   UNL     1       1.410   2.709  17.841  0.00  0.00    +0.000 OA
ENDBRANCH  17  18
ENDBRANCH  16  17
ENDBRANCH   2  16
TORSDOF 6
ENDMDL
MODEL 4
REMARK VINA RESULT:      -7.8      1.733      2.170
REMARK  Name = 
REMARK  10 active torsions:
REMARK  status: ('A' for Active; 'I' for Inactive)
REMARK    1  A    between atoms: C_1  and  C_2
REMARK    2  A    between atoms: C_2  and  C_3
REMARK    3  A    between atoms: C_8  and  C_9
REMARK    4  A    between atoms: C_9  and  C_10
REMARK    5  A    between atoms: C_11  and  N_12
REMARK    6  A    between atoms: C_13  and  C_15
REMARK    7  A    between atoms: C_15  and  C_16
REMARK    8  A    between atoms: C_16  and  C_17
REMARK    9  A    between atoms: C_18  and  C_19
REMARK   10  A    between atoms: C_23  and  C_24
REMARK                            x       y       z     vdW  Elec       q    Type
REMARK                         _______ _______ _______ _____ _____    ______ ____
ROOT
ATOM      1  N   UNL     1       2.801   6.950  19.291  0.00  0.00    +0.000 N 
ATOM      2  C   UNL     1       2.047   7.921  18.640  0.00  0.00    +0.000 C 
ATOM      3  O   UNL     1       1.766   7.913  17.443  0.00  0.00    +0.000 OA
ATOM      4  H   UNL     1       2.580   6.851  20.274  0.00  0.00    +0.000 HD
ENDROOT
BRANCH   1  11
ATOM      5  C   UNL     1       4.237   5.769  17.651  0.00  0.00    +0.000 A 
ATOM      6  C   UNL     1       4.552   4.582  16.963  0.00  0.00    +0.000 A 
ATOM      7  C   UNL     1       3.896   3.393  17.256  0.00  0.00    +0.000 A 
ATOM      8  C   UNL     1       2.919   3.361  18.249  0.00  0.00    +0.000 A 
ATOM      9 CL   UNL     1       2.197   1.818  18.569  0.00  0.00    +0.000 Cl
ATOM     10  C   UNL     1       2.543   4.534  18.943  0.00  0.00    +0.000 A 
ATOM     11  C   UNL     1       3.199   5.754  18.618  0.00  0.00    +0.000 A 
BRANCH   5  13
ATOM     12  C   UNL     1       6.562   6.525  17.075  0.00  0.00    +0.000 C 
ATOM     13  C   UNL     1       5.136   6.961  17.389  0.00  0.00    +0.000 C 
ENDBRANCH   5  13
BRANCH  10  14
ATOM     14  C   UNL     1       1.413   4.484  19.957  0.00  0.00    +0.000 C 
ATOM     15  C   UNL     1       1.844   3.934  21.309  0.00  0.00    +0.000 C 
ENDBRANCH  10  14
ENDBRANCH   1  11
BRANCH   2  16
ATOM     16  C   UNL     1       1.447   8.983  19.550  0.00  0.00    +0.000 C 
BRANCH  16  17
ATOM     17  C   UNL     1       1.315  10.371  18.926  0.00  0.00    +0.000 C 
BRANCH  17  18
ATOM     18  C   UNL     1      -0.016  11.021  19.294  0.00  0.00    +0.000 A 
ATOM     19  C   UNL     1      -1.174  10.883  18.605  0.00  0.00    +0.000 A 
ATOM     20  C   UNL     1      -1.322  10.009  17.383  0.00  0.00    +0.000 C 
ATOM     21  C   UNL     1      -2.385  11.583  19.071  0.00  0.00    +0.000 A 
ATOM     22  C   UNL     1      -3.635  11.483  18.442  0.00  0.00    +0.000 A 
ATOM     23  C   UNL     1      -4.761  12.145  18.946  0.00  0.00    +0.000 A 
ATOM     24  C   UNL     1      -4.669  12.938  20.092  0.00  0.00    +0.000 A 
ATOM     25  C   UNL     1      -5.881  13.645  20.625  0.00  0.00    +0.000 C 
ATOM     26  C   UNL     1      -3.423  13.074  20.714  0.00  0.00    +0.000 A 
ATOM     27  C   UNL     1      -2.311  12.391  20.202  0.00  0.00    +0.000 A 
ATOM     28  O   UNL     1      -1.100  12.548  20.899  0.00  0.00    +0.000 OA
ATOM     29  C   UNL     1       0.047  11.867  20.523  0.00  0.00    +0.000 A 
ATOM     30  O   UNL     1       1.080  11.954  21.183  0.00  0.00    +0.000 OA
ENDBRANCH  17  18
ENDBRANCH  16  17
ENDBRANCH   2  16
TORSDOF 6
ENDMDL
MODEL 5
REMARK VINA RESULT:      -7.7      1.656      3.300
REMARK  Name = 
REMARK  10 active torsions:
REMARK  status: ('A' for Active; 'I' for Inactive)
REMARK    1  A    between atoms: C_1  and  C_2
REMARK    2  A    between atoms: C_2  and  C_3
REMARK    3  A    between atoms: C_8  and  C_9
REMARK    4  A    between atoms: C_9  and  C_10
REMARK    5  A    between atoms: C_11  and  N_12
REMARK    6  A    between atoms: C_13  and  C_15
REMARK    7  A    between atoms: C_15  and  C_16
REMARK    8  A    between atoms: C_16  and  C_17
REMARK    9  A    between atoms: C_18  and  C_19
REMARK   10  A    between atoms: C_23  and  C_24
REMARK                            x       y       z     vdW  Elec       q    Type
REMARK                         _______ _______ _______ _____ _____    ______ ____
ROOT
ATOM      1  N   UNL     1       2.984   6.059  19.839  0.00  0.00    +0.000 N 
ATOM      2  C   UNL     1       2.275   7.146  19.338  0.00  0.00    +0.000 C 
ATOM      3  O   UNL     1       1.887   7.263  18.176  0.00  0.00    +0.000 OA
ATOM      4  H   UNL     1       2.843   5.901  20.829  0.00  0.00    +0.000 HD
ENDROOT
BRANCH   1  11
ATOM      5  C   UNL     1       2.370   3.746  19.190  0.00  0.00    +0.000 A 
ATOM      6  C   UNL     1       2.657   2.593  18.436  0.00  0.00    +0.000 A 
ATOM      7  C   UNL     1       3.701   2.580  17.520  0.00  0.00    +0.000 A 
ATOM      8  C   UNL     1       4.476   3.723  17.329  0.00  0.00    +0.000 A 
ATOM      9 CL   UNL     1       5.722   3.617  16.129  0.00  0.00    +0.000 Cl
ATOM     10  C   UNL     1       4.250   4.895  18.088  0.00  0.00    +0.000 A 
ATOM     11  C   UNL     1       3.197   4.890  19.044  0.00  0.00    +0.000 A 
BRANCH   5  13
ATOM     12  C   UNL     1       1.291   2.909  21.298  0.00  0.00    +0.000 C 
ATOM     13  C   UNL     1       1.101   3.716  20.018  0.00  0.00    +0.000 C 
ENDBRANCH   5  13
BRANCH  10  14
ATOM     14  C   UNL     1       5.168   6.093  17.920  0.00  0.00    +0.000 C 
ATOM     15  C   UNL     1       4.910   6.871  16.638  0.00  0.00    +0.000 C 
ENDBRANCH  10  14
ENDBRANCH   1  11
BRANCH   2  16
ATOM     16  C   UNL     1       1.870   8.181  20.377  0.00  0.00    +0.000 C 
BRANCH  16  17
ATOM     17  C   UNL     1       0.378   8.225  20.701  0.00  0.00    +0.000 C 
BRANCH  17  18
ATOM     18  C   UNL     1      -0.124   9.661  20.817  0.00  0.00    +0.000 A 
ATOM     19  C   UNL     1      -0.406  10.303  21.977  0.00  0.00    +0.000 A 
ATOM     20  C   UNL     1      -0.210   9.690  23.342  0.00  0.00    +0.000 C 
ATOM     21  C   UNL     1      -0.898  11.692  21.937  0.00  0.00    +0.000 A 
ATOM     22  C   UNL     1      -1.193  12.448  23.082  0.00  0.00    +0.000 A 
ATOM     23  C   UNL     1      -1.628  13.775  22.988  0.00  0.00    +0.000 A 
ATOM     24  C   UNL     1      -1.791  14.386  21.742  0.00  0.00    +0.000 A 
ATOM     25  C   UNL     1      -2.259  15.809  21.650  0.00  0.00    +0.000 C 
ATOM     26  C   UNL     1      -1.532  13.636  20.590  0.00  0.00    +0.000 A 
ATOM     27  C   UNL     1      -1.084  12.313  20.706  0.00  0.00    +0.000 A 
ATOM     28  O   UNL     1      -0.811  11.633  19.506  0.00  0.00    +0.000 OA
ATOM     29  C   UNL     1      -0.299  10.345  19.502  0.00  0.00    +0.000 A 
ATOM     30  O   UNL     1       0.006   9.788  18.449  0.00  0.00    +0.000 OA
ENDBRANCH  17  18
ENDBRANCH  16  17
ENDBRANCH   2  16
TORSDOF 6
ENDMDL
MODEL 6
REMARK VINA RESULT:      -7.6      2.003      3.400
REMARK  Name = 
REMARK  10 active torsions:
REMARK  status: ('A' for Active; 'I' for Inactive)
REMARK    1  A    between atoms: C_1  and  C_2
REMARK    2  A    between atoms: C_2  and  C_3
REMARK    3  A    between atoms: C_8  and  C_9
REMARK    4  A    between atoms: C_9  and  C_10
REMARK    5  A    between atoms: C_11  and  N_12
REMARK    6  A    between atoms: C_13  and  C_15
REMARK    7  A    between atoms: C_15  and  C_16
REMARK    8  A    between atoms: C_16  and  C_17
REMARK    9  A    between atoms: C_18  and  C_19
REMARK   10  A    between atoms: C_23  and  C_24
REMARK                            x       y       z     vdW  Elec       q    Type
REMARK                         _______ _______ _______ _____ _____    ______ ____
ROOT
ATOM      1  N   UNL     1       2.907   6.895  19.177  0.00  0.00    +0.000 N 
ATOM      2  C   UNL     1       2.014   7.796  18.606  0.00  0.00    +0.000 C 
ATOM      3  O   UNL     1       1.470   7.655  17.511  0.00  0.00    +0.000 OA
ATOM      4  H   UNL     1       2.913   6.913  20.190  0.00  0.00    +0.000 HD
ENDROOT
BRANCH   1  11
ATOM      5  C   UNL     1       2.508   4.452  19.040  0.00  0.00    +0.000 A 
ATOM      6  C   UNL     1       2.835   3.212  18.461  0.00  0.00    +0.000 A 
ATOM      7  C   UNL     1       3.743   3.130  17.412  0.00  0.00    +0.000 A 
ATOM      8  C   UNL     1       4.336   4.287  16.911  0.00  0.00    +0.000 A 
ATOM      9 CL   UNL     1       5.415   4.081  15.571  0.00  0.00    +0.000 Cl
ATOM     10  C   UNL     1       4.067   5.553  17.481  0.00  0.00    +0.000 A 
ATOM     11  C   UNL     1       3.158   5.625  18.574  0.00  0.00    +0.000 A 
BRANCH   5  13
ATOM     12  C   UNL     1       1.121   3.057  20.600  0.00  0.00    +0.000 C 
ATOM     13  C   UNL     1       1.374   4.453  20.044  0.00  0.00    +0.000 C 
ENDBRANCH   5  13
BRANCH  10  14
ATOM     14  C   UNL     1       4.797   6.783  16.971  0.00  0.00    +0.000 C 
ATOM     15  C   UNL     1       6.262   6.823  17.378  0.00  0.00    +0.000 C 
ENDBRANCH  10  14
ENDBRANCH   1  11
BRANCH   2  16
ATOM     16  C   UNL     1       1.621   8.963  19.499  0.00  0.00    +0.000 C 
BRANCH  16  17
ATOM     17  C   UNL     1       1.412  10.292  18.776  0.00  0.00    +0.000 C 
BRANCH  17  18
ATOM     18  C   UNL     1       0.109  10.960  19.205  0.00  0.00    +0.000 A 
ATOM     19  C   UNL     1      -1.080  10.845  18.565  0.00  0.00    +0.000 A 
ATOM     20  C   UNL     1      -1.294   9.983  17.345  0.00  0.00    +0.000 C 
ATOM     21  C   UNL     1      -2.258  11.562  19.088  0.00  0.00    +0.000 A 
ATOM     22  C   UNL     1      -3.535  11.486  18.513  0.00  0.00    +0.000 A 
ATOM     23  C   UNL     1      -4.628  12.162  19.068  0.00  0.00    +0.000 A 
ATOM     24  C   UNL     1      -4.474  12.945  20.215  0.00  0.00    +0.000 A 
ATOM     25  C   UNL     1      -5.650  13.667  20.804  0.00  0.00    +0.000 C 
ATOM     26  C   UNL     1      -3.200  13.056  20.783  0.00  0.00    +0.000 A 
ATOM     27  C   UNL     1      -2.122  12.360  20.220  0.00  0.00    +0.000 A 
ATOM     28  O   UNL     1      -0.880  12.492  20.865  0.00  0.00    +0.000 OA
ATOM     29  C   UNL     1       0.239  11.796  20.435  0.00  0.00    +0.000 A 
ATOM     30  O   UNL     1       1.301  11.862  21.051  0.00  0.00    +0.000 OA
ENDBRANCH  17  18
ENDBRANCH  16  17
ENDBRANCH   2  16
TORSDOF 6
ENDMDL
MODEL 7
REMARK VINA RESULT:      -7.6      3.238      8.920
REMARK  Name = 
REMARK  10 active torsions:
REMARK  status: ('A' for Active; 'I' for Inactive)
REMARK    1  A    between atoms: C_1  and  C_2
REMARK    2  A    between atoms: C_2  and  C_3
REMARK    3  A    between atoms: C_8  and  C_9
REMARK    4  A    between atoms: C_9  and  C_10
REMARK    5  A    between atoms: C_11  and  N_12
REMARK    6  A    between atoms: C_13  and  C_15
REMARK    7  A    between atoms: C_15  and  C_16
REMARK    8  A    between atoms: C_16  and  C_17
REMARK    9  A    between atoms: C_18  and  C_19
REMARK   10  A    between atoms: C_23  and  C_24
REMARK                            x       y       z     vdW  Elec       q    Type
REMARK                         _______ _______ _______ _____ _____    ______ ____
ROOT
ATOM      1  N   UNL     1       0.171  10.347  20.119  0.00  0.00    +0.000 N 
ATOM      2  C   UNL     1       0.168   9.160  20.845  0.00  0.00    +0.000 C 
ATOM      3  O   UNL     1      -0.814   8.679  21.409  0.00  0.00    +0.000 OA
ATOM      4  H   UNL     1       0.872  10.377  19.389  0.00  0.00    +0.000 HD
ENDROOT
BRANCH   1  11
ATOM      5  C   UNL     1      -1.732  10.871  18.619  0.00  0.00    +0.000 A 
ATOM      6  C   UNL     1      -2.889  11.630  18.365  0.00  0.00    +0.000 A 
ATOM      7  C   UNL     1      -3.390  12.508  19.319  0.00  0.00    +0.000 A 
ATOM      8  C   UNL     1      -2.752  12.638  20.551  0.00  0.00    +0.000 A 
ATOM      9 CL   UNL     1      -3.486  13.722  21.686  0.00  0.00    +0.000 Cl
ATOM     10  C   UNL     1      -1.567  11.923  20.840  0.00  0.00    +0.000 A 
ATOM     11  C   UNL     1      -1.044  11.047  19.848  0.00  0.00    +0.000 A 
BRANCH   5  13
ATOM     12  C   UNL     1      -2.301   9.879  16.383  0.00  0.00    +0.000 C 
ATOM     13  C   UNL     1      -1.378   9.812  17.594  0.00  0.00    +0.000 C 
ENDBRANCH   5  13
BRANCH  10  14
ATOM     14  C   UNL     1      -0.847  12.153  22.157  0.00  0.00    +0.000 C 
ATOM     15  C   UNL     1      -1.448  11.370  23.315  0.00  0.00    +0.000 C 
ENDBRANCH  10  14
ENDBRANCH   1  11
BRANCH   2  16
ATOM     16  C   UNL     1       1.471   8.378  20.800  0.00  0.00    +0.000 C 
BRANCH  16  17
ATOM     17  C   UNL     1       1.318   6.874  20.578  0.00  0.00    +0.000 C 
BRANCH  17  18
ATOM     18  C   UNL     1       2.395   6.337  19.640  0.00  0.00    +0.000 A 
ATOM     19  C   UNL     1       2.816   6.939  18.502  0.00  0.00    +0.000 A 
ATOM     20  C   UNL     1       2.303   8.275  18.022  0.00  0.00    +0.000 C 
ATOM     21  C   UNL     1       3.861   6.296  17.684  0.00  0.00    +0.000 A 
ATOM     22  C   UNL     1       4.380   6.852  16.505  0.00  0.00    +0.000 A 
ATOM     23  C   UNL     1       5.395   6.213  15.782  0.00  0.00    +0.000 A 
ATOM     24  C   UNL     1       5.917   4.991  16.213  0.00  0.00    +0.000 A 
ATOM     25  C   UNL     1       7.004   4.313  15.432  0.00  0.00    +0.000 C 
ATOM     26  C   UNL     1       5.388   4.408  17.369  0.00  0.00    +0.000 A 
ATOM     27  C   UNL     1       4.382   5.070  18.086  0.00  0.00    +0.000 A 
ATOM     28  O   UNL     1       3.924   4.441  19.257  0.00  0.00    +0.000 OA
ATOM     29  C   UNL     1       2.981   5.036  20.080  0.00  0.00    +0.000 A 
ATOM     30  O   UNL     1       2.643   4.511  21.139  0.00  0.00    +0.000 OA
ENDBRANCH  17  18
ENDBRANCH  16  17
ENDBRANCH   2  16
TORSDOF 6
ENDMDL
MODEL 8
REMARK VINA RESULT:      -7.6      1.166      1.246
REMARK  Name = 
REMARK  10 active torsions:
REMARK  status: ('A' for Active; 'I' for Inactive)
REMARK    1  A    between atoms: C_1  and  C_2
REMARK    2  A    between atoms: C_2  and  C_3
REMARK    3  A    between atoms: C_8  and  C_9
REMARK    4  A    between atoms: C_9  and  C_10
REMARK    5  A    between atoms: C_11  and  N_12
REMARK    6  A    between atoms: C_13  and  C_15
REMARK    7  A    between atoms: C_15  and  C_16
REMARK    8  A    between atoms: C_16  and  C_17
REMARK    9  A    between atoms: C_18  and  C_19
REMARK   10  A    between atoms: C_23  and  C_24
REMARK                            x       y       z     vdW  Elec       q    Type
REMARK                         _______ _______ _______ _____ _____    ______ ____
ROOT
ATOM      1  N   UNL     1       2.957   6.096  20.176  0.00  0.00    +0.000 N 
ATOM      2  C   UNL     1       2.235   7.214  19.770  0.00  0.00    +0.000 C 
ATOM      3  O   UNL     1       1.808   7.405  18.632  0.00  0.00    +0.000 OA
ATOM      4  H   UNL     1       2.850   5.876  21.159  0.00  0.00    +0.000 HD
ENDROOT
BRANCH   1  11
ATOM      5  C   UNL     1       4.194   4.955  18.356  0.00  0.00    +0.000 A 
ATOM      6  C   UNL     1       4.296   3.867  17.469  0.00  0.00    +0.000 A 
ATOM      7  C   UNL     1       3.409   2.800  17.544  0.00  0.00    +0.000 A 
ATOM      8  C   UNL     1       2.408   2.792  18.514  0.00  0.00    +0.000 A 
ATOM      9 CL   UNL     1       1.386   1.393  18.553  0.00  0.00    +0.000 Cl
ATOM     10  C   UNL     1       2.243   3.877  19.404  0.00  0.00    +0.000 A 
ATOM     11  C   UNL     1       3.138   4.980  19.302  0.00  0.00    +0.000 A 
BRANCH   5  13
ATOM     12  C   UNL     1       5.106   6.989  17.198  0.00  0.00    +0.000 C 
ATOM     13  C   UNL     1       5.318   5.971  18.312  0.00  0.00    +0.000 C 
ENDBRANCH   5  13
BRANCH  10  14
ATOM     14  C   UNL     1       1.088   3.879  20.390  0.00  0.00    +0.000 C 
ATOM     15  C   UNL     1       1.344   3.014  21.616  0.00  0.00    +0.000 C 
ENDBRANCH  10  14
ENDBRANCH   1  11
BRANCH   2  16
ATOM     16  C   UNL     1       1.870   8.181  20.886  0.00  0.00    +0.000 C 
BRANCH  16  17
ATOM     17  C   UNL     1       0.388   8.538  20.976  0.00  0.00    +0.000 C 
BRANCH  17  18
ATOM     18  C   UNL     1       0.174  10.047  20.910  0.00  0.00    +0.000 A 
ATOM     19  C   UNL     1       0.083  10.778  19.772  0.00  0.00    +0.000 A 
ATOM     20  C   UNL     1       0.133  10.180  18.387  0.00  0.00    +0.000 C 
ATOM     21  C   UNL     1      -0.112  12.237  19.860  0.00  0.00    +0.000 A 
ATOM     22  C   UNL     1      -0.243  13.074  18.742  0.00  0.00    +0.000 A 
ATOM     23  C   UNL     1      -0.459  14.451  18.882  0.00  0.00    +0.000 A 
ATOM     24  C   UNL     1      -0.542  15.034  20.148  0.00  0.00    +0.000 A 
ATOM     25  C   UNL     1      -0.773  16.510  20.290  0.00  0.00    +0.000 C 
ATOM     26  C   UNL     1      -0.382  14.217  21.273  0.00  0.00    +0.000 A 
ATOM     27  C   UNL     1      -0.181  12.840  21.112  0.00  0.00    +0.000 A 
ATOM     28  O   UNL     1      -0.064  12.078  22.287  0.00  0.00    +0.000 OA
ATOM     29  C   UNL     1       0.070  10.699  22.249  0.00  0.00    +0.000 A 
ATOM     30  O   UNL     1       0.096  10.036  23.283  0.00  0.00    +0.000 OA
ENDBRANCH  17  18
ENDBRANCH  16  17
ENDBRANCH   2  16
TORSDOF 6
ENDMDL
MODEL 9
REMARK VINA RESULT:      -7.6      1.464      2.079
REMARK  Name = 
REMARK  10 active torsions:
REMARK  status: ('A' for Active; 'I' for Inactive)
REMARK    1  A    between atoms: C_1  and  C_2
REMARK    2  A    between atoms: C_2  and  C_3
REMARK    3  A    between atoms: C_8  and  C_9
REMARK    4  A    between atoms: C_9  and  C_10
REMARK    5  A    between atoms: C_11  and  N_12
REMARK    6  A    between atoms: C_13  and  C_15
REMARK    7  A    between atoms: C_15  and  C_16
REMARK    8  A    between atoms: C_16  and  C_17
REMARK    9  A    between atoms: C_18  and  C_19
REMARK   10  A    between atoms: C_23  and  C_24
REMARK                            x       y       z     vdW  Elec       q    Type
REMARK                         _______ _______ _______ _____ _____    ______ ____
ROOT
ATOM      1  N   UNL     1       3.335   6.478  19.692  0.00  0.00    +0.000 N 
ATOM      2  C   UNL     1       2.323   7.365  19.338  0.00  0.00    +0.000 C 
ATOM      3  O   UNL     1       1.775   7.409  18.237  0.00  0.00    +0.000 OA
ATOM      4  H   UNL     1       3.364   6.265  20.681  0.00  0.00    +0.000 HD
ENDROOT
BRANCH   1  11
ATOM      5  C   UNL     1       4.517   5.680  17.664  0.00  0.00    +0.000 A 
ATOM      6  C   UNL     1       4.825   4.621  16.790  0.00  0.00    +0.000 A 
ATOM      7  C   UNL     1       4.410   3.324  17.067  0.00  0.00    +0.000 A 
ATOM      8  C   UNL     1       3.688   3.056  18.229  0.00  0.00    +0.000 A 
ATOM      9 CL   UNL     1       3.261   1.399  18.504  0.00  0.00    +0.000 Cl
ATOM     10  C   UNL     1       3.324   4.091  19.120  0.00  0.00    +0.000 A 
ATOM     11  C   UNL     1       3.728   5.421  18.814  0.00  0.00    +0.000 A 
BRANCH   5  13
ATOM     12  C   UNL     1       6.692   6.892  17.333  0.00  0.00    +0.000 C 
ATOM     13  C   UNL     1       5.173   7.014  17.368  0.00  0.00    +0.000 C 
ENDBRANCH   5  13
BRANCH  10  14
ATOM     14  C   UNL     1       2.460   3.780  20.330  0.00  0.00    +0.000 C 
ATOM     15  C   UNL     1       0.969   3.820  20.029  0.00  0.00    +0.000 C 
ENDBRANCH  10  14
ENDBRANCH   1  11
BRANCH   2  16
ATOM     16  C   UNL     1       1.810   8.238  20.473  0.00  0.00    +0.000 C 
BRANCH  16  17
ATOM     17  C   UNL     1       0.290   8.277  20.625  0.00  0.00    +0.000 C 
BRANCH  17  18
ATOM     18  C   UNL     1      -0.217   9.708  20.781  0.00  0.00    +0.000 A 
ATOM     19  C   UNL     1      -0.461  10.330  21.959  0.00  0.00    +0.000 A 
ATOM     20  C   UNL     1      -0.213   9.697  23.307  0.00  0.00    +0.000 C 
ATOM     21  C   UNL     1      -0.964  11.716  21.958  0.00  0.00    +0.000 A 
ATOM     22  C   UNL     1      -1.223  12.453  23.124  0.00  0.00    +0.000 A 
ATOM     23  C   UNL     1      -1.669  13.778  23.066  0.00  0.00    +0.000 A 
ATOM     24  C   UNL     1      -1.880  14.407  21.836  0.00  0.00    +0.000 A 
ATOM     25  C   UNL     1      -2.360  15.828  21.783  0.00  0.00    +0.000 C 
ATOM     26  C   UNL     1      -1.657  13.676  20.664  0.00  0.00    +0.000 A 
ATOM     27  C   UNL     1      -1.196  12.355  20.744  0.00  0.00    +0.000 A 
ATOM     28  O   UNL     1      -0.961  11.695  19.525  0.00  0.00    +0.000 OA
ATOM     29  C   UNL     1      -0.442  10.411  19.483  0.00  0.00    +0.000 A 
ATOM     30  O   UNL     1      -0.171   9.872  18.412  0.00  0.00    +0.000 OA
ENDBRANCH  17  18
ENDBRANCH  16  17
ENDBRANCH   2  16
TORSDOF 6
ENDMDL
