MODEL 1
REMARK VINA RESULT:      -3.7      0.000      0.000
REMARK  Name = 
REMARK  7 active torsions:
REMARK  status: ('A' for Active; 'I' for Inactive)
REMARK    1  A    between atoms: C_1  and  C_2
REMARK    2  A    between atoms: C_2  and  O_3
REMARK    3  A    between atoms: O_3  and  P_4
REMARK    4  A    between atoms: P_4  and  S_6
REMARK    5  A    between atoms: P_4  and  O_7
REMARK    6  A    between atoms: O_7  and  C_8
REMARK    7  A    between atoms: C_8  and  C_9
REMARK                            x       y       z     vdW  Elec       q    Type
REMARK                         _______ _______ _______ _____ _____    ______ ____
ROOT
ATOM      1  P   UNL     1       5.498   5.536  16.592  0.00  0.00    +0.000 P 
ATOM      2  S   UNL     1       6.627   4.627  15.147  0.00  0.00    +0.000 S 
ENDROOT
BRANCH   1   3
ATOM      3  S   UNL     1       6.164   5.098  18.616  0.00  0.00    +0.000 S 
ATOM      4  H   UNL     1       6.168   6.399  18.945  0.00  0.00    +0.000 HD
ENDBRANCH   1   3
BRANCH   1   5
ATOM      5  O   UNL     1       6.681   6.793  16.468  0.00  0.00    +0.000 OA
BRANCH   5   7
ATOM      6  C   UNL     1       7.931   8.405  17.724  0.00  0.00    +0.000 C 
ATOM      7  C   UNL     1       7.418   6.981  17.670  0.00  0.00    +0.000 C 
ENDBRANCH   5   7
ENDBRANCH   1   5
BRANCH   1   8
ATOM      8  O   UNL     1       4.315   4.280  16.715  0.00  0.00    +0.000 OA
BRANCH   8   9
ATOM      9  C   UNL     1       3.519   4.052  17.876  0.00  0.00    +0.000 C 
ATOM     10  C   UNL     1       2.323   4.981  17.890  0.00  0.00    +0.000 C 
ENDBRANCH   8   9
ENDBRANCH   1   8
TORSDOF 5
ENDMDL
MODEL 2
REMARK VINA RESULT:      -3.7      3.043      3.316
REMARK  Name = 
REMARK  7 active torsions:
REMARK  status: ('A' for Active; 'I' for Inactive)
REMARK    1  A    between atoms: C_1  and  C_2
REMARK    2  A    between atoms: C_2  and  O_3
REMARK    3  A    between atoms: O_3  and  P_4
REMARK    4  A    between atoms: P_4  and  S_6
REMARK    5  A    between atoms: P_4  and  O_7
REMARK    6  A    between atoms: O_7  and  C_8
REMARK    7  A    between atoms: C_8  and  C_9
REMARK                            x       y       z     vdW  Elec       q    Type
REMARK                         _______ _______ _______ _____ _____    ______ ____
ROOT
ATOM      1  P   UNL     1       4.374   3.732  18.600  0.00  0.00    +0.000 P 
ATOM      2  S   UNL     1       4.319   2.217  19.975  0.00  0.00    +0.000 S 
ENDROOT
BRANCH   1   3
ATOM      3  S   UNL     1       3.483   5.584  19.314  0.00  0.00    +0.000 S 
ATOM      4  H   UNL     1       3.323   6.042  18.063  0.00  0.00    +0.000 HD
ENDBRANCH   1   3
BRANCH   1   5
ATOM      5  O   UNL     1       5.863   4.141  19.380  0.00  0.00    +0.000 OA
BRANCH   5   7
ATOM      6  C   UNL     1       7.611   5.432  18.373  0.00  0.00    +0.000 C 
ATOM      7  C   UNL     1       6.286   5.471  19.105  0.00  0.00    +0.000 C 
ENDBRANCH   5   7
ENDBRANCH   1   5
BRANCH   1   8
ATOM      8  O   UNL     1       2.885   3.323  17.821  0.00  0.00    +0.000 OA
BRANCH   8   9
ATOM      9  C   UNL     1       1.606   3.765  18.272  0.00  0.00    +0.000 C 
ATOM     10  C   UNL     1       0.793   2.597  18.791  0.00  0.00    +0.000 C 
ENDBRANCH   8   9
ENDBRANCH   1   8
TORSDOF 5
ENDMDL
MODEL 3
REMARK VINA RESULT:      -3.7      3.472      5.450
REMARK  Name = 
REMARK  7 active torsions:
REMARK  status: ('A' for Active; 'I' for Inactive)
REMARK    1  A    between atoms: C_1  and  C_2
REMARK    2  A    between atoms: C_2  and  O_3
REMARK    3  A    between atoms: O_3  and  P_4
REMARK    4  A    between atoms: P_4  and  S_6
REMARK    5  A    between atoms: P_4  and  O_7
REMARK    6  A    between atoms: O_7  and  C_8
REMARK    7  A    between atoms: C_8  and  C_9
REMARK                            x       y       z     vdW  Elec       q    Type
REMARK                         _______ _______ _______ _____ _____    ______ ____
ROOT
ATOM      1  P   UNL     1       3.525   3.718  19.299  0.00  0.00    +0.000 P 
ATOM      2  S   UNL     1       3.431   2.023  18.157  0.00  0.00    +0.000 S 
ENDROOT
BRANCH   1   3
ATOM      3  S   UNL     1       3.399   5.555  18.139  0.00  0.00    +0.000 S 
ATOM      4  H   UNL     1       2.096   5.360  17.888  0.00  0.00    +0.000 HD
ENDBRANCH   1   3
BRANCH   1   5
ATOM      5  O   UNL     1       1.800   3.594  19.302  0.00  0.00    +0.000 OA
BRANCH   5   7
ATOM      6  C   UNL     1       2.153   3.188  21.636  0.00  0.00    +0.000 C 
ATOM      7  C   UNL     1       1.296   2.883  20.425  0.00  0.00    +0.000 C 
ENDBRANCH   5   7
ENDBRANCH   1   5
BRANCH   1   8
ATOM      8  O   UNL     1       5.251   3.842  19.296  0.00  0.00    +0.000 OA
BRANCH   8   9
ATOM      9  C   UNL     1       5.959   5.046  19.008  0.00  0.00    +0.000 C 
ATOM     10  C   UNL     1       7.094   4.777  18.043  0.00  0.00    +0.000 C 
ENDBRANCH   8   9
ENDBRANCH   1   8
TORSDOF 5
ENDMDL
MODEL 4
REMARK VINA RESULT:      -3.7      1.409      4.317
REMARK  Name = 
REMARK  7 active torsions:
REMARK  status: ('A' for Active; 'I' for Inactive)
REMARK    1  A    between atoms: C_1  and  C_2
REMARK    2  A    between atoms: C_2  and  O_3
REMARK    3  A    between atoms: O_3  and  P_4
REMARK    4  A    between atoms: P_4  and  S_6
REMARK    5  A    between atoms: P_4  and  O_7
REMARK    6  A    between atoms: O_7  and  C_8
REMARK    7  A    between atoms: C_8  and  C_9
REMARK                            x       y       z     vdW  Elec       q    Type
REMARK                         _______ _______ _______ _____ _____    ______ ____
ROOT
ATOM      1  P   UNL     1       6.098   4.834  16.569  0.00  0.00    +0.000 P 
ATOM      2  S   UNL     1       6.508   4.448  14.602  0.00  0.00    +0.000 S 
ENDROOT
BRANCH   1   3
ATOM      3  S   UNL     1       4.812   6.564  16.864  0.00  0.00    +0.000 S 
ATOM      4  H   UNL     1       3.957   6.147  15.920  0.00  0.00    +0.000 HD
ENDBRANCH   1   3
BRANCH   1   5
ATOM      5  O   UNL     1       4.708   3.843  16.285  0.00  0.00    +0.000 OA
BRANCH   5   7
ATOM      6  C   UNL     1       2.593   3.384  17.312  0.00  0.00    +0.000 C 
ATOM      7  C   UNL     1       4.097   3.386  17.486  0.00  0.00    +0.000 C 
ENDBRANCH   5   7
ENDBRANCH   1   5
BRANCH   1   8
ATOM      8  O   UNL     1       7.487   5.824  16.853  0.00  0.00    +0.000 OA
BRANCH   8   9
ATOM      9  C   UNL     1       7.645   6.660  17.998  0.00  0.00    +0.000 C 
ATOM     10  C   UNL     1       7.815   5.821  19.248  0.00  0.00    +0.000 C 
ENDBRANCH   8   9
ENDBRANCH   1   8
TORSDOF 5
ENDMDL
MODEL 5
REMARK VINA RESULT:      -3.6      1.021      4.722
REMARK  Name = 
REMARK  7 active torsions:
REMARK  status: ('A' for Active; 'I' for Inactive)
REMARK    1  A    between atoms: C_1  and  C_2
REMARK    2  A    between atoms: C_2  and  O_3
REMARK    3  A    between atoms: O_3  and  P_4
REMARK    4  A    between atoms: P_4  and  S_6
REMARK    5  A    between atoms: P_4  and  O_7
REMARK    6  A    between atoms: O_7  and  C_8
REMARK    7  A    between atoms: C_8  and  C_9
REMARK                            x       y       z     vdW  Elec       q    Type
REMARK                         _______ _______ _______ _____ _____    ______ ____
ROOT
ATOM      1  P   UNL     1       4.961   5.543  16.865  0.00  0.00    +0.000 P 
ATOM      2  S   UNL     1       5.247   5.271  18.872  0.00  0.00    +0.000 S 
ENDROOT
BRANCH   1   3
ATOM      3  S   UNL     1       6.140   4.194  15.629  0.00  0.00    +0.000 S 
ATOM      4  H   UNL     1       5.868   4.898  14.521  0.00  0.00    +0.000 HD
ENDBRANCH   1   3
BRANCH   1   5
ATOM      5  O   UNL     1       3.752   4.320  17.055  0.00  0.00    +0.000 OA
BRANCH   5   7
ATOM      6  C   UNL     1       3.191   2.152  17.906  0.00  0.00    +0.000 C 
ATOM      7  C   UNL     1       4.077   3.370  18.063  0.00  0.00    +0.000 C 
ENDBRANCH   5   7
ENDBRANCH   1   5
BRANCH   1   8
ATOM      8  O   UNL     1       6.170   6.765  16.674  0.00  0.00    +0.000 OA
BRANCH   8   9
ATOM      9  C   UNL     1       7.402   6.781  17.392  0.00  0.00    +0.000 C 
ATOM     10  C   UNL     1       7.849   8.205  17.649  0.00  0.00    +0.000 C 
ENDBRANCH   8   9
ENDBRANCH   1   8
TORSDOF 5
ENDMDL
MODEL 6
REMARK VINA RESULT:      -3.6      3.254      3.738
REMARK  Name = 
REMARK  7 active torsions:
REMARK  status: ('A' for Active; 'I' for Inactive)
REMARK    1  A    between atoms: C_1  and  C_2
REMARK    2  A    between atoms: C_2  and  O_3
REMARK    3  A    between atoms: O_3  and  P_4
REMARK    4  A    between atoms: P_4  and  S_6
REMARK    5  A    between atoms: P_4  and  O_7
REMARK    6  A    between atoms: O_7  and  C_8
REMARK    7  A    between atoms: C_8  and  C_9
REMARK                            x       y       z     vdW  Elec       q    Type
REMARK                         _______ _______ _______ _____ _____    ______ ____
ROOT
ATOM      1  P   UNL     1       2.731   4.209  17.995  0.00  0.00    +0.000 P 
ATOM      2  S   UNL     1       3.176   2.212  18.019  0.00  0.00    +0.000 S 
ENDROOT
BRANCH   1   3
ATOM      3  S   UNL     1       3.943   5.385  19.367  0.00  0.00    +0.000 S 
ATOM      4  H   UNL     1       5.062   5.122  18.676  0.00  0.00    +0.000 HD
ENDBRANCH   1   3
BRANCH   1   5
ATOM      5  O   UNL     1       3.987   4.289  16.808  0.00  0.00    +0.000 OA
BRANCH   5   7
ATOM      6  C   UNL     1       5.396   5.815  15.614  0.00  0.00    +0.000 C 
ATOM      7  C   UNL     1       4.825   5.428  16.963  0.00  0.00    +0.000 C 
ENDBRANCH   5   7
ENDBRANCH   1   5
BRANCH   1   8
ATOM      8  O   UNL     1       1.475   4.129  19.182  0.00  0.00    +0.000 OA
BRANCH   8   9
ATOM      9  C   UNL     1       1.048   2.918  19.803  0.00  0.00    +0.000 C 
ATOM     10  C   UNL     1       1.344   2.951  21.289  0.00  0.00    +0.000 C 
ENDBRANCH   8   9
ENDBRANCH   1   8
TORSDOF 5
ENDMDL
MODEL 7
REMARK VINA RESULT:      -3.6      2.397      5.054
REMARK  Name = 
REMARK  7 active torsions:
REMARK  status: ('A' for Active; 'I' for Inactive)
REMARK    1  A    between atoms: C_1  and  C_2
REMARK    2  A    between atoms: C_2  and  O_3
REMARK    3  A    between atoms: O_3  and  P_4
REMARK    4  A    between atoms: P_4  and  S_6
REMARK    5  A    between atoms: P_4  and  O_7
REMARK    6  A    between atoms: O_7  and  C_8
REMARK    7  A    between atoms: C_8  and  C_9
REMARK                            x       y       z     vdW  Elec       q    Type
REMARK                         _______ _______ _______ _____ _____    ______ ____
ROOT
ATOM      1  P   UNL     1       4.720   3.811  18.615  0.00  0.00    +0.000 P 
ATOM      2  S   UNL     1       4.941   4.081  16.599  0.00  0.00    +0.000 S 
ENDROOT
BRANCH   1   3
ATOM      3  S   UNL     1       3.616   5.413  19.589  0.00  0.00    +0.000 S 
ATOM      4  H   UNL     1       4.720   5.861  20.205  0.00  0.00    +0.000 HD
ENDBRANCH   1   3
BRANCH   1   5
ATOM      5  O   UNL     1       3.232   3.051  18.166  0.00  0.00    +0.000 OA
BRANCH   5   7
ATOM      6  C   UNL     1       0.963   2.538  18.741  0.00  0.00    +0.000 C 
ATOM      7  C   UNL     1       2.129   3.480  18.956  0.00  0.00    +0.000 C 
ENDBRANCH   5   7
ENDBRANCH   1   5
BRANCH   1   8
ATOM      8  O   UNL     1       6.208   4.571  19.063  0.00  0.00    +0.000 OA
BRANCH   8   9
ATOM      9  C   UNL     1       7.202   4.981  18.127  0.00  0.00    +0.000 C 
ATOM     10  C   UNL     1       7.693   6.377  18.451  0.00  0.00    +0.000 C 
ENDBRANCH   8   9
ENDBRANCH   1   8
TORSDOF 5
ENDMDL
MODEL 8
REMARK VINA RESULT:      -3.6      3.120      5.370
REMARK  Name = 
REMARK  7 active torsions:
REMARK  status: ('A' for Active; 'I' for Inactive)
REMARK    1  A    between atoms: C_1  and  C_2
REMARK    2  A    between atoms: C_2  and  O_3
REMARK    3  A    between atoms: O_3  and  P_4
REMARK    4  A    between atoms: P_4  and  S_6
REMARK    5  A    between atoms: P_4  and  O_7
REMARK    6  A    between atoms: O_7  and  C_8
REMARK    7  A    between atoms: C_8  and  C_9
REMARK                            x       y       z     vdW  Elec       q    Type
REMARK                         _______ _______ _______ _____ _____    ______ ____
ROOT
ATOM      1  P   UNL     1       4.380   3.919  18.678  0.00  0.00    +0.000 P 
ATOM      2  S   UNL     1       3.411   5.609  19.307  0.00  0.00    +0.000 S 
ENDROOT
BRANCH   1   3
ATOM      3  S   UNL     1       4.263   2.273  20.097  0.00  0.00    +0.000 S 
ATOM      4  H   UNL     1       3.016   2.612  20.456  0.00  0.00    +0.000 HD
ENDBRANCH   1   3
BRANCH   1   5
ATOM      5  O   UNL     1       2.831   3.487  18.041  0.00  0.00    +0.000 OA
BRANCH   5   7
ATOM      6  C   UNL     1       0.767   2.630  18.905  0.00  0.00    +0.000 C 
ATOM      7  C   UNL     1       1.763   3.771  18.937  0.00  0.00    +0.000 C 
ENDBRANCH   5   7
ENDBRANCH   1   5
BRANCH   1   8
ATOM      8  O   UNL     1       5.929   4.351  19.316  0.00  0.00    +0.000 OA
BRANCH   8   9
ATOM      9  C   UNL     1       6.791   5.318  18.718  0.00  0.00    +0.000 C 
ATOM     10  C   UNL     1       7.629   4.681  17.630  0.00  0.00    +0.000 C 
ENDBRANCH   8   9
ENDBRANCH   1   8
TORSDOF 5
ENDMDL
MODEL 9
REMARK VINA RESULT:      -3.6      2.364      4.413
REMARK  Name = 
REMARK  7 active torsions:
REMARK  status: ('A' for Active; 'I' for Inactive)
REMARK    1  A    between atoms: C_1  and  C_2
REMARK    2  A    between atoms: C_2  and  O_3
REMARK    3  A    between atoms: O_3  and  P_4
REMARK    4  A    between atoms: P_4  and  S_6
REMARK    5  A    between atoms: P_4  and  O_7
REMARK    6  A    between atoms: O_7  and  C_8
REMARK    7  A    between atoms: C_8  and  C_9
REMARK                            x       y       z     vdW  Elec       q    Type
REMARK                         _______ _______ _______ _____ _____    ______ ____
ROOT
ATOM      1  P   UNL     1       4.815   4.563  18.727  0.00  0.00    +0.000 P 
ATOM      2  S   UNL     1       4.253   2.807  19.615  0.00  0.00    +0.000 S 
ENDROOT
BRANCH   1   3
ATOM      3  S   UNL     1       4.952   4.436  16.560  0.00  0.00    +0.000 S 
ATOM      4  H   UNL     1       3.827   5.149  16.401  0.00  0.00    +0.000 HD
ENDBRANCH   1   3
BRANCH   1   5
ATOM      5  O   UNL     1       3.112   4.839  18.609  0.00  0.00    +0.000 OA
BRANCH   5   7
ATOM      6  C   UNL     1       2.685   7.171  18.267  0.00  0.00    +0.000 C 
ATOM      7  C   UNL     1       2.695   6.031  19.264  0.00  0.00    +0.000 C 
ENDBRANCH   5   7
ENDBRANCH   1   5
BRANCH   1   8
ATOM      8  O   UNL     1       6.519   4.288  18.845  0.00  0.00    +0.000 OA
BRANCH   8   9
ATOM      9  C   UNL     1       7.488   4.954  18.037  0.00  0.00    +0.000 C 
ATOM     10  C   UNL     1       7.771   6.339  18.581  0.00  0.00    +0.000 C 
ENDBRANCH   8   9
ENDBRANCH   1   8
TORSDOF 5
ENDMDL
