MODEL 1
REMARK VINA RESULT:      -7.8      0.000      0.000
REMARK  Name = 
REMARK  6 active torsions:
REMARK  status: ('A' for Active; 'I' for Inactive)
REMARK    1  A    between atoms: C_1  and  N_2
REMARK    2  A    between atoms: C_3  and  C_4
REMARK    3  A    between atoms: C_13  and  S_14
REMARK    4  A    between atoms: S_14  and  C_15
REMARK    5  A    between atoms: C_15  and  C_16
REMARK    6  A    between atoms: N_18  and  C_19
REMARK                            x       y       z     vdW  Elec       q    Type
REMARK                         _______ _______ _______ _____ _____    ______ ____
ROOT
ATOM      1  C   UNL     1       5.967   5.299  19.455  0.00  0.00    +0.000 C 
ATOM      2  N   UNL     1       5.756   5.656  18.070  0.00  0.00    +0.000 N 
ATOM      3  C   UNL     1       4.731   5.247  17.227  0.00  0.00    +0.000 A 
ATOM      4  C   UNL     1       5.062   5.837  16.014  0.00  0.00    +0.000 A 
ATOM      5  N   UNL     1       6.155   6.657  16.119  0.00  0.00    +0.000 NA
ATOM      6  C   UNL     1       6.581   6.483  17.345  0.00  0.00    +0.000 A 
ENDROOT
BRANCH   3   7
ATOM      7  C   UNL     1       3.607   4.360  17.552  0.00  0.00    +0.000 A 
ATOM      8  C   UNL     1       2.338   4.867  17.877  0.00  0.00    +0.000 A 
ATOM      9  C   UNL     1       1.293   4.013  18.241  0.00  0.00    +0.000 A 
ATOM     10  C   UNL     1       1.494   2.641  18.227  0.00  0.00    +0.000 A 
ATOM     11  F   UNL     1       0.493   1.823  18.576  0.00  0.00    +0.000 F 
ATOM     12  C   UNL     1       2.719   2.107  17.849  0.00  0.00    +0.000 A 
ATOM     13  C   UNL     1       3.774   2.964  17.516  0.00  0.00    +0.000 A 
ENDBRANCH   3   7
BRANCH   6  14
ATOM     14  S   UNL     1       8.007   7.213  18.002  0.00  0.00    +0.000 S 
BRANCH  14  15
ATOM     15  C   UNL     1       7.697   8.957  17.626  0.00  0.00    +0.000 C 
BRANCH  15  16
ATOM     16  C   UNL     1       8.667   9.836  18.388  0.00  0.00    +0.000 C 
ATOM     17  O   UNL     1       9.199   9.430  19.422  0.00  0.00    +0.000 OA
ATOM     18  N   UNL     1       8.839  11.092  17.829  0.00  0.00    +0.000 N 
ATOM     19  H   UNL     1       8.172  11.361  17.108  0.00  0.00    +0.000 HD
BRANCH  18  20
ATOM     20  C   UNL     1       9.718  12.098  18.283  0.00  0.00    +0.000 A 
ATOM     21  C   UNL     1       9.309  13.183  19.064  0.00  0.00    +0.000 A 
ATOM     22  C   UNL     1      10.226  14.158  19.465  0.00  0.00    +0.000 A 
ATOM     23  C   UNL     1      11.563  14.055  19.093  0.00  0.00    +0.000 A 
ATOM     24  C   UNL     1      11.986  12.966  18.335  0.00  0.00    +0.000 A 
ATOM     25  C   UNL     1      11.069  11.987  17.938  0.00  0.00    +0.000 A 
ENDBRANCH  18  20
ENDBRANCH  15  16
ENDBRANCH  14  15
ENDBRANCH   6  14
TORSDOF 5
ENDMDL
MODEL 2
REMARK VINA RESULT:      -7.8      0.284      1.018
REMARK  Name = 
REMARK  6 active torsions:
REMARK  status: ('A' for Active; 'I' for Inactive)
REMARK    1  A    between atoms: C_1  and  N_2
REMARK    2  A    between atoms: C_3  and  C_4
REMARK    3  A    between atoms: C_13  and  S_14
REMARK    4  A    between atoms: S_14  and  C_15
REMARK    5  A    between atoms: C_15  and  C_16
REMARK    6  A    between atoms: N_18  and  C_19
REMARK                            x       y       z     vdW  Elec       q    Type
REMARK                         _______ _______ _______ _____ _____    ______ ____
ROOT
ATOM      1  C   UNL     1       6.184   5.256  19.458  0.00  0.00    +0.000 C 
ATOM      2  N   UNL     1       5.836   5.773  18.154  0.00  0.00    +0.000 N 
ATOM      3  C   UNL     1       4.735   5.450  17.371  0.00  0.00    +0.000 A 
ATOM      4  C   UNL     1       4.942   6.187  16.211  0.00  0.00    +0.000 A 
ATOM      5  N   UNL     1       6.037   7.006  16.308  0.00  0.00    +0.000 NA
ATOM      6  C   UNL     1       6.583   6.694  17.457  0.00  0.00    +0.000 A 
ENDROOT
BRANCH   3   7
ATOM      7  C   UNL     1       3.653   4.512  17.694  0.00  0.00    +0.000 A 
ATOM      8  C   UNL     1       3.791   3.129  17.487  0.00  0.00    +0.000 A 
ATOM      9  C   UNL     1       2.731   2.254  17.744  0.00  0.00    +0.000 A 
ATOM     10  C   UNL     1       1.546   2.750  18.265  0.00  0.00    +0.000 A 
ATOM     11  F   UNL     1       0.531   1.912  18.512  0.00  0.00    +0.000 F 
ATOM     12  C   UNL     1       1.402   4.103  18.540  0.00  0.00    +0.000 A 
ATOM     13  C   UNL     1       2.451   4.983  18.252  0.00  0.00    +0.000 A 
ENDBRANCH   3   7
BRANCH   6  14
ATOM     14  S   UNL     1       8.063   7.363  18.056  0.00  0.00    +0.000 S 
BRANCH  14  15
ATOM     15  C   UNL     1       7.825   9.114  17.658  0.00  0.00    +0.000 C 
BRANCH  15  16
ATOM     16  C   UNL     1       8.793   9.966  18.454  0.00  0.00    +0.000 C 
ATOM     17  O   UNL     1       9.218   9.577  19.543  0.00  0.00    +0.000 OA
ATOM     18  N   UNL     1       9.089  11.180  17.857  0.00  0.00    +0.000 N 
ATOM     19  H   UNL     1       8.496  11.455  17.076  0.00  0.00    +0.000 HD
BRANCH  18  20
ATOM     20  C   UNL     1       9.997  12.149  18.333  0.00  0.00    +0.000 A 
ATOM     21  C   UNL     1       9.665  13.110  19.293  0.00  0.00    +0.000 A 
ATOM     22  C   UNL     1      10.605  14.057  19.709  0.00  0.00    +0.000 A 
ATOM     23  C   UNL     1      11.888  14.048  19.173  0.00  0.00    +0.000 A 
ATOM     24  C   UNL     1      12.238  13.082  18.233  0.00  0.00    +0.000 A 
ATOM     25  C   UNL     1      11.298  12.131  17.820  0.00  0.00    +0.000 A 
ENDBRANCH  18  20
ENDBRANCH  15  16
ENDBRANCH  14  15
ENDBRANCH   6  14
TORSDOF 5
ENDMDL
MODEL 3
REMARK VINA RESULT:      -7.6      6.186      7.420
REMARK  Name = 
REMARK  6 active torsions:
REMARK  status: ('A' for Active; 'I' for Inactive)
REMARK    1  A    between atoms: C_1  and  N_2
REMARK    2  A    between atoms: C_3  and  C_4
REMARK    3  A    between atoms: C_13  and  S_14
REMARK    4  A    between atoms: S_14  and  C_15
REMARK    5  A    between atoms: C_15  and  C_16
REMARK    6  A    between atoms: N_18  and  C_19
REMARK                            x       y       z     vdW  Elec       q    Type
REMARK                         _______ _______ _______ _____ _____    ______ ____
ROOT
ATOM      1  C   UNL     1       4.909   3.343  19.449  0.00  0.00    +0.000 C 
ATOM      2  N   UNL     1       3.733   3.283  18.611  0.00  0.00    +0.000 N 
ATOM      3  C   UNL     1       3.618   3.625  17.270  0.00  0.00    +0.000 A 
ATOM      4  C   UNL     1       2.268   3.433  17.005  0.00  0.00    +0.000 A 
ATOM      5  N   UNL     1       1.604   2.894  18.076  0.00  0.00    +0.000 NA
ATOM      6  C   UNL     1       2.493   2.870  19.038  0.00  0.00    +0.000 A 
ENDROOT
BRANCH   3   7
ATOM      7  C   UNL     1       4.677   4.120  16.380  0.00  0.00    +0.000 A 
ATOM      8  C   UNL     1       5.365   3.262  15.507  0.00  0.00    +0.000 A 
ATOM      9  C   UNL     1       6.411   3.735  14.708  0.00  0.00    +0.000 A 
ATOM     10  C   UNL     1       6.737   5.083  14.736  0.00  0.00    +0.000 A 
ATOM     11  F   UNL     1       7.738   5.537  13.971  0.00  0.00    +0.000 F 
ATOM     12  C   UNL     1       6.032   5.967  15.542  0.00  0.00    +0.000 A 
ATOM     13  C   UNL     1       5.008   5.486  16.365  0.00  0.00    +0.000 A 
ENDBRANCH   3   7
BRANCH   6  14
ATOM     14  S   UNL     1       2.169   2.364  20.662  0.00  0.00    +0.000 S 
BRANCH  14  15
ATOM     15  C   UNL     1       2.337   3.936  21.544  0.00  0.00    +0.000 C 
BRANCH  15  16
ATOM     16  C   UNL     1       1.668   5.048  20.762  0.00  0.00    +0.000 C 
ATOM     17  O   UNL     1       0.481   4.962  20.443  0.00  0.00    +0.000 OA
ATOM     18  N   UNL     1       2.519   6.091  20.436  0.00  0.00    +0.000 N 
ATOM     19  H   UNL     1       3.514   5.921  20.573  0.00  0.00    +0.000 HD
BRANCH  18  20
ATOM     20  C   UNL     1       2.168   7.282  19.767  0.00  0.00    +0.000 A 
ATOM     21  C   UNL     1       1.440   8.315  20.365  0.00  0.00    +0.000 A 
ATOM     22  C   UNL     1       1.106   9.464  19.641  0.00  0.00    +0.000 A 
ATOM     23  C   UNL     1       1.501   9.591  18.313  0.00  0.00    +0.000 A 
ATOM     24  C   UNL     1       2.246   8.579  17.715  0.00  0.00    +0.000 A 
ATOM     25  C   UNL     1       2.585   7.432  18.441  0.00  0.00    +0.000 A 
ENDBRANCH  18  20
ENDBRANCH  15  16
ENDBRANCH  14  15
ENDBRANCH   6  14
TORSDOF 5
ENDMDL
MODEL 4
REMARK VINA RESULT:      -7.6      6.221      7.411
REMARK  Name = 
REMARK  6 active torsions:
REMARK  status: ('A' for Active; 'I' for Inactive)
REMARK    1  A    between atoms: C_1  and  N_2
REMARK    2  A    between atoms: C_3  and  C_4
REMARK    3  A    between atoms: C_13  and  S_14
REMARK    4  A    between atoms: S_14  and  C_15
REMARK    5  A    between atoms: C_15  and  C_16
REMARK    6  A    between atoms: N_18  and  C_19
REMARK                            x       y       z     vdW  Elec       q    Type
REMARK                         _______ _______ _______ _____ _____    ______ ____
ROOT
ATOM      1  C   UNL     1       3.565   2.352  17.493  0.00  0.00    +0.000 C 
ATOM      2  N   UNL     1       4.347   3.287  18.270  0.00  0.00    +0.000 N 
ATOM      3  C   UNL     1       5.342   4.147  17.825  0.00  0.00    +0.000 A 
ATOM      4  C   UNL     1       5.786   4.752  18.994  0.00  0.00    +0.000 A 
ATOM      5  N   UNL     1       5.040   4.383  20.083  0.00  0.00    +0.000 NA
ATOM      6  C   UNL     1       4.225   3.463  19.628  0.00  0.00    +0.000 A 
ENDROOT
BRANCH   3   7
ATOM      7  C   UNL     1       5.826   4.319  16.450  0.00  0.00    +0.000 A 
ATOM      8  C   UNL     1       5.021   4.007  15.342  0.00  0.00    +0.000 A 
ATOM      9  C   UNL     1       5.516   4.120  14.039  0.00  0.00    +0.000 A 
ATOM     10  C   UNL     1       6.799   4.602  13.833  0.00  0.00    +0.000 A 
ATOM     11  F   UNL     1       7.273   4.710  12.585  0.00  0.00    +0.000 F 
ATOM     12  C   UNL     1       7.597   4.979  14.906  0.00  0.00    +0.000 A 
ATOM     13  C   UNL     1       7.113   4.834  16.211  0.00  0.00    +0.000 A 
ENDBRANCH   3   7
BRANCH   6  14
ATOM     14  S   UNL     1       3.106   2.574  20.604  0.00  0.00    +0.000 S 
BRANCH  14  15
ATOM     15  C   UNL     1       2.412   3.903  21.619  0.00  0.00    +0.000 C 
BRANCH  15  16
ATOM     16  C   UNL     1       1.756   4.945  20.736  0.00  0.00    +0.000 C 
ATOM     17  O   UNL     1       0.675   4.713  20.192  0.00  0.00    +0.000 OA
ATOM     18  N   UNL     1       2.499   6.106  20.595  0.00  0.00    +0.000 N 
ATOM     19  H   UNL     1       3.464   6.066  20.920  0.00  0.00    +0.000 HD
BRANCH  18  20
ATOM     20  C   UNL     1       2.119   7.265  19.886  0.00  0.00    +0.000 A 
ATOM     21  C   UNL     1       1.372   8.303  20.451  0.00  0.00    +0.000 A 
ATOM     22  C   UNL     1       1.009   9.417  19.689  0.00  0.00    +0.000 A 
ATOM     23  C   UNL     1       1.394   9.505  18.355  0.00  0.00    +0.000 A 
ATOM     24  C   UNL     1       2.158   8.488  17.788  0.00  0.00    +0.000 A 
ATOM     25  C   UNL     1       2.525   7.375  18.552  0.00  0.00    +0.000 A 
ENDBRANCH  18  20
ENDBRANCH  15  16
ENDBRANCH  14  15
ENDBRANCH   6  14
TORSDOF 5
ENDMDL
MODEL 5
REMARK VINA RESULT:      -7.5      6.128      7.460
REMARK  Name = 
REMARK  6 active torsions:
REMARK  status: ('A' for Active; 'I' for Inactive)
REMARK    1  A    between atoms: C_1  and  N_2
REMARK    2  A    between atoms: C_3  and  C_4
REMARK    3  A    between atoms: C_13  and  S_14
REMARK    4  A    between atoms: S_14  and  C_15
REMARK    5  A    between atoms: C_15  and  C_16
REMARK    6  A    between atoms: N_18  and  C_19
REMARK                            x       y       z     vdW  Elec       q    Type
REMARK                         _______ _______ _______ _____ _____    ______ ____
ROOT
ATOM      1  C   UNL     1       4.978   3.114  19.382  0.00  0.00    +0.000 C 
ATOM      2  N   UNL     1       3.818   3.230  18.528  0.00  0.00    +0.000 N 
ATOM      3  C   UNL     1       3.762   3.679  17.215  0.00  0.00    +0.000 A 
ATOM      4  C   UNL     1       2.405   3.639  16.921  0.00  0.00    +0.000 A 
ATOM      5  N   UNL     1       1.671   3.091  17.941  0.00  0.00    +0.000 NA
ATOM      6  C   UNL     1       2.535   2.909  18.909  0.00  0.00    +0.000 A 
ENDROOT
BRANCH   3   7
ATOM      7  C   UNL     1       4.881   4.131  16.377  0.00  0.00    +0.000 A 
ATOM      8  C   UNL     1       5.603   5.296  16.680  0.00  0.00    +0.000 A 
ATOM      9  C   UNL     1       6.627   5.746  15.841  0.00  0.00    +0.000 A 
ATOM     10  C   UNL     1       6.974   5.001  14.725  0.00  0.00    +0.000 A 
ATOM     11  F   UNL     1       7.955   5.432  13.921  0.00  0.00    +0.000 F 
ATOM     12  C   UNL     1       6.321   3.811  14.434  0.00  0.00    +0.000 A 
ATOM     13  C   UNL     1       5.274   3.379  15.256  0.00  0.00    +0.000 A 
ENDBRANCH   3   7
BRANCH   6  14
ATOM     14  S   UNL     1       2.134   2.320  20.486  0.00  0.00    +0.000 S 
BRANCH  14  15
ATOM     15  C   UNL     1       2.241   3.847  21.453  0.00  0.00    +0.000 C 
BRANCH  15  16
ATOM     16  C   UNL     1       1.600   4.992  20.695  0.00  0.00    +0.000 C 
ATOM     17  O   UNL     1       0.394   4.977  20.444  0.00  0.00    +0.000 OA
ATOM     18  N   UNL     1       2.495   5.976  20.309  0.00  0.00    +0.000 N 
ATOM     19  H   UNL     1       3.483   5.745  20.392  0.00  0.00    +0.000 HD
BRANCH  18  20
ATOM     20  C   UNL     1       2.181   7.181  19.645  0.00  0.00    +0.000 A 
ATOM     21  C   UNL     1       2.516   7.435  18.312  0.00  0.00    +0.000 A 
ATOM     22  C   UNL     1       2.194   8.658  17.716  0.00  0.00    +0.000 A 
ATOM     23  C   UNL     1       1.528   9.636  18.448  0.00  0.00    +0.000 A 
ATOM     24  C   UNL     1       1.169   9.385  19.769  0.00  0.00    +0.000 A 
ATOM     25  C   UNL     1       1.487   8.160  20.364  0.00  0.00    +0.000 A 
ENDBRANCH  18  20
ENDBRANCH  15  16
ENDBRANCH  14  15
ENDBRANCH   6  14
TORSDOF 5
ENDMDL
MODEL 6
REMARK VINA RESULT:      -7.4      1.362      1.771
REMARK  Name = 
REMARK  6 active torsions:
REMARK  status: ('A' for Active; 'I' for Inactive)
REMARK    1  A    between atoms: C_1  and  N_2
REMARK    2  A    between atoms: C_3  and  C_4
REMARK    3  A    between atoms: C_13  and  S_14
REMARK    4  A    between atoms: S_14  and  C_15
REMARK    5  A    between atoms: C_15  and  C_16
REMARK    6  A    between atoms: N_18  and  C_19
REMARK                            x       y       z     vdW  Elec       q    Type
REMARK                         _______ _______ _______ _____ _____    ______ ____
ROOT
ATOM      1  C   UNL     1       4.486   6.775  16.929  0.00  0.00    +0.000 C 
ATOM      2  N   UNL     1       5.334   6.007  17.813  0.00  0.00    +0.000 N 
ATOM      3  C   UNL     1       5.008   4.867  18.536  0.00  0.00    +0.000 A 
ATOM      4  C   UNL     1       6.169   4.600  19.251  0.00  0.00    +0.000 A 
ATOM      5  N   UNL     1       7.192   5.447  18.910  0.00  0.00    +0.000 NA
ATOM      6  C   UNL     1       6.646   6.311  18.091  0.00  0.00    +0.000 A 
ENDROOT
BRANCH   3   7
ATOM      7  C   UNL     1       3.720   4.163  18.561  0.00  0.00    +0.000 A 
ATOM      8  C   UNL     1       2.684   4.554  19.425  0.00  0.00    +0.000 A 
ATOM      9  C   UNL     1       1.484   3.838  19.480  0.00  0.00    +0.000 A 
ATOM     10  C   UNL     1       1.291   2.761  18.629  0.00  0.00    +0.000 A 
ATOM     11  F   UNL     1       0.141   2.076  18.681  0.00  0.00    +0.000 F 
ATOM     12  C   UNL     1       2.271   2.390  17.719  0.00  0.00    +0.000 A 
ATOM     13  C   UNL     1       3.485   3.087  17.688  0.00  0.00    +0.000 A 
ENDBRANCH   3   7
BRANCH   6  14
ATOM     14  S   UNL     1       7.468   7.676  17.414  0.00  0.00    +0.000 S 
BRANCH  14  15
ATOM     15  C   UNL     1       8.554   8.132  18.789  0.00  0.00    +0.000 C 
BRANCH  15  16
ATOM     16  C   UNL     1       8.805   9.626  18.783  0.00  0.00    +0.000 C 
ATOM     17  O   UNL     1       8.307  10.340  17.911  0.00  0.00    +0.000 OA
ATOM     18  N   UNL     1       9.646  10.055  19.797  0.00  0.00    +0.000 N 
ATOM     19  H   UNL     1      10.153   9.329  20.300  0.00  0.00    +0.000 HD
BRANCH  18  20
ATOM     20  C   UNL     1      10.012  11.389  20.075  0.00  0.00    +0.000 A 
ATOM     21  C   UNL     1       9.222  12.262  20.829  0.00  0.00    +0.000 A 
ATOM     22  C   UNL     1       9.631  13.580  21.053  0.00  0.00    +0.000 A 
ATOM     23  C   UNL     1      10.837  14.035  20.529  0.00  0.00    +0.000 A 
ATOM     24  C   UNL     1      11.643  13.167  19.796  0.00  0.00    +0.000 A 
ATOM     25  C   UNL     1      11.235  11.847  19.576  0.00  0.00    +0.000 A 
ENDBRANCH  18  20
ENDBRANCH  15  16
ENDBRANCH  14  15
ENDBRANCH   6  14
TORSDOF 5
ENDMDL
MODEL 7
REMARK VINA RESULT:      -7.2      5.122      7.033
REMARK  Name = 
REMARK  6 active torsions:
REMARK  status: ('A' for Active; 'I' for Inactive)
REMARK    1  A    between atoms: C_1  and  N_2
REMARK    2  A    between atoms: C_3  and  C_4
REMARK    3  A    between atoms: C_13  and  S_14
REMARK    4  A    between atoms: S_14  and  C_15
REMARK    5  A    between atoms: C_15  and  C_16
REMARK    6  A    between atoms: N_18  and  C_19
REMARK                            x       y       z     vdW  Elec       q    Type
REMARK                         _______ _______ _______ _____ _____    ______ ____
ROOT
ATOM      1  C   UNL     1       1.496   4.788  17.697  0.00  0.00    +0.000 C 
ATOM      2  N   UNL     1       1.894   4.842  19.085  0.00  0.00    +0.000 N 
ATOM      3  C   UNL     1       2.059   5.966  19.886  0.00  0.00    +0.000 A 
ATOM      4  C   UNL     1       2.507   5.436  21.089  0.00  0.00    +0.000 A 
ATOM      5  N   UNL     1       2.510   4.066  21.082  0.00  0.00    +0.000 NA
ATOM      6  C   UNL     1       2.194   3.741  19.853  0.00  0.00    +0.000 A 
ENDROOT
BRANCH   3   7
ATOM      7  C   UNL     1       1.852   7.370  19.509  0.00  0.00    +0.000 A 
ATOM      8  C   UNL     1       1.248   8.286  20.385  0.00  0.00    +0.000 A 
ATOM      9  C   UNL     1       1.004   9.605  19.990  0.00  0.00    +0.000 A 
ATOM     10  C   UNL     1       1.416  10.032  18.737  0.00  0.00    +0.000 A 
ATOM     11  F   UNL     1       1.183  11.295  18.359  0.00  0.00    +0.000 F 
ATOM     12  C   UNL     1       2.073   9.166  17.873  0.00  0.00    +0.000 A 
ATOM     13  C   UNL     1       2.287   7.837  18.256  0.00  0.00    +0.000 A 
ENDBRANCH   3   7
BRANCH   6  14
ATOM     14  S   UNL     1       2.139   2.120  19.248  0.00  0.00    +0.000 S 
BRANCH  14  15
ATOM     15  C   UNL     1       3.902   1.793  18.998  0.00  0.00    +0.000 C 
BRANCH  15  16
ATOM     16  C   UNL     1       4.534   2.919  18.205  0.00  0.00    +0.000 C 
ATOM     17  O   UNL     1       4.401   2.973  16.982  0.00  0.00    +0.000 OA
ATOM     18  N   UNL     1       5.270   3.802  18.979  0.00  0.00    +0.000 N 
ATOM     19  H   UNL     1       5.472   3.507  19.932  0.00  0.00    +0.000 HD
BRANCH  18  20
ATOM     20  C   UNL     1       5.919   4.971  18.528  0.00  0.00    +0.000 A 
ATOM     21  C   UNL     1       5.352   5.863  17.613  0.00  0.00    +0.000 A 
ATOM     22  C   UNL     1       6.056   6.994  17.191  0.00  0.00    +0.000 A 
ATOM     23  C   UNL     1       7.331   7.247  17.684  0.00  0.00    +0.000 A 
ATOM     24  C   UNL     1       7.897   6.379  18.614  0.00  0.00    +0.000 A 
ATOM     25  C   UNL     1       7.190   5.249  19.040  0.00  0.00    +0.000 A 
ENDBRANCH  18  20
ENDBRANCH  15  16
ENDBRANCH  14  15
ENDBRANCH   6  14
TORSDOF 5
ENDMDL
MODEL 8
REMARK VINA RESULT:      -7.2      5.976      7.631
REMARK  Name = 
REMARK  6 active torsions:
REMARK  status: ('A' for Active; 'I' for Inactive)
REMARK    1  A    between atoms: C_1  and  N_2
REMARK    2  A    between atoms: C_3  and  C_4
REMARK    3  A    between atoms: C_13  and  S_14
REMARK    4  A    between atoms: S_14  and  C_15
REMARK    5  A    between atoms: C_15  and  C_16
REMARK    6  A    between atoms: N_18  and  C_19
REMARK                            x       y       z     vdW  Elec       q    Type
REMARK                         _______ _______ _______ _____ _____    ______ ____
ROOT
ATOM      1  C   UNL     1       3.558   6.856  17.700  0.00  0.00    +0.000 C 
ATOM      2  N   UNL     1       3.050   6.094  18.818  0.00  0.00    +0.000 N 
ATOM      3  C   UNL     1       2.254   6.539  19.866  0.00  0.00    +0.000 A 
ATOM      4  C   UNL     1       2.128   5.412  20.670  0.00  0.00    +0.000 A 
ATOM      5  N   UNL     1       2.707   4.306  20.105  0.00  0.00    +0.000 NA
ATOM      6  C   UNL     1       3.298   4.758  19.027  0.00  0.00    +0.000 A 
ENDROOT
BRANCH   3   7
ATOM      7  C   UNL     1       1.729   7.893  20.077  0.00  0.00    +0.000 A 
ATOM      8  C   UNL     1       1.537   8.783  19.008  0.00  0.00    +0.000 A 
ATOM      9  C   UNL     1       1.092  10.090  19.230  0.00  0.00    +0.000 A 
ATOM     10  C   UNL     1       0.781  10.497  20.519  0.00  0.00    +0.000 A 
ATOM     11  F   UNL     1       0.354  11.748  20.732  0.00  0.00    +0.000 F 
ATOM     12  C   UNL     1       0.900   9.620  21.589  0.00  0.00    +0.000 A 
ATOM     13  C   UNL     1       1.377   8.323  21.369  0.00  0.00    +0.000 A 
ENDBRANCH   3   7
BRANCH   6  14
ATOM     14  S   UNL     1       4.271   3.797  17.965  0.00  0.00    +0.000 S 
BRANCH  14  15
ATOM     15  C   UNL     1       5.905   4.521  18.257  0.00  0.00    +0.000 C 
BRANCH  15  16
ATOM     16  C   UNL     1       6.728   4.482  16.986  0.00  0.00    +0.000 C 
ATOM     17  O   UNL     1       7.955   4.387  17.038  0.00  0.00    +0.000 OA
ATOM     18  N   UNL     1       5.975   4.600  15.829  0.00  0.00    +0.000 N 
ATOM     19  H   UNL     1       5.006   4.892  15.949  0.00  0.00    +0.000 HD
BRANCH  18  20
ATOM     20  C   UNL     1       6.457   4.539  14.505  0.00  0.00    +0.000 A 
ATOM     21  C   UNL     1       7.481   5.358  14.020  0.00  0.00    +0.000 A 
ATOM     22  C   UNL     1       7.901   5.263  12.690  0.00  0.00    +0.000 A 
ATOM     23  C   UNL     1       7.304   4.343  11.834  0.00  0.00    +0.000 A 
ATOM     24  C   UNL     1       6.299   3.506  12.312  0.00  0.00    +0.000 A 
ATOM     25  C   UNL     1       5.882   3.598  13.644  0.00  0.00    +0.000 A 
ENDBRANCH  18  20
ENDBRANCH  15  16
ENDBRANCH  14  15
ENDBRANCH   6  14
TORSDOF 5
ENDMDL
MODEL 9
REMARK VINA RESULT:      -7.1      7.414      8.926
REMARK  Name = 
REMARK  6 active torsions:
REMARK  status: ('A' for Active; 'I' for Inactive)
REMARK    1  A    between atoms: C_1  and  N_2
REMARK    2  A    between atoms: C_3  and  C_4
REMARK    3  A    between atoms: C_13  and  S_14
REMARK    4  A    between atoms: S_14  and  C_15
REMARK    5  A    between atoms: C_15  and  C_16
REMARK    6  A    between atoms: N_18  and  C_19
REMARK                            x       y       z     vdW  Elec       q    Type
REMARK                         _______ _______ _______ _____ _____    ______ ____
ROOT
ATOM      1  C   UNL     1       2.316   5.877  20.466  0.00  0.00    +0.000 C 
ATOM      2  N   UNL     1       2.277   7.006  19.565  0.00  0.00    +0.000 N 
ATOM      3  C   UNL     1       2.853   7.117  18.305  0.00  0.00    +0.000 A 
ATOM      4  C   UNL     1       2.554   8.421  17.932  0.00  0.00    +0.000 A 
ATOM      5  N   UNL     1       1.745   9.048  18.845  0.00  0.00    +0.000 NA
ATOM      6  C   UNL     1       1.644   8.196  19.835  0.00  0.00    +0.000 A 
ENDROOT
BRANCH   3   7
ATOM      7  C   UNL     1       3.631   6.100  17.586  0.00  0.00    +0.000 A 
ATOM      8  C   UNL     1       3.290   4.739  17.639  0.00  0.00    +0.000 A 
ATOM      9  C   UNL     1       4.074   3.776  16.997  0.00  0.00    +0.000 A 
ATOM     10  C   UNL     1       5.172   4.174  16.249  0.00  0.00    +0.000 A 
ATOM     11  F   UNL     1       5.923   3.252  15.634  0.00  0.00    +0.000 F 
ATOM     12  C   UNL     1       5.497   5.518  16.126  0.00  0.00    +0.000 A 
ATOM     13  C   UNL     1       4.730   6.479  16.796  0.00  0.00    +0.000 A 
ENDBRANCH   3   7
BRANCH   6  14
ATOM     14  S   UNL     1       0.802   8.508  21.316  0.00  0.00    +0.000 S 
BRANCH  14  15
ATOM     15  C   UNL     1      -0.046  10.053  20.901  0.00  0.00    +0.000 C 
BRANCH  15  16
ATOM     16  C   UNL     1      -0.515  10.747  22.165  0.00  0.00    +0.000 C 
ATOM     17  O   UNL     1      -0.089  10.395  23.265  0.00  0.00    +0.000 OA
ATOM     18  N   UNL     1      -1.455  11.739  21.941  0.00  0.00    +0.000 N 
ATOM     19  H   UNL     1      -1.871  11.766  21.011  0.00  0.00    +0.000 HD
BRANCH  18  20
ATOM     20  C   UNL     1      -2.025  12.588  22.912  0.00  0.00    +0.000 A 
ATOM     21  C   UNL     1      -3.277  12.363  23.492  0.00  0.00    +0.000 A 
ATOM     22  C   UNL     1      -3.796  13.254  24.437  0.00  0.00    +0.000 A 
ATOM     23  C   UNL     1      -3.065  14.376  24.813  0.00  0.00    +0.000 A 
ATOM     24  C   UNL     1      -1.807  14.598  24.260  0.00  0.00    +0.000 A 
ATOM     25  C   UNL     1      -1.285  13.704  23.318  0.00  0.00    +0.000 A 
ENDBRANCH  18  20
ENDBRANCH  15  16
ENDBRANCH  14  15
ENDBRANCH   6  14
TORSDOF 5
ENDMDL
