MODEL 1
REMARK VINA RESULT:      -8.7      0.000      0.000
REMARK  Name = 
REMARK  9 active torsions:
REMARK  status: ('A' for Active; 'I' for Inactive)
REMARK    1  A    between atoms: C_1  and  C_2
REMARK    2  A    between atoms: C_2  and  C_3
REMARK    3  A    between atoms: C_4  and  C_5
REMARK    4  A    between atoms: N_7  and  C_8
REMARK    5  A    between atoms: C_8  and  C_9
REMARK    6  A    between atoms: C_8  and  C_11
REMARK    7  A    between atoms: C_9  and  O_10
REMARK    8  A    between atoms: C_11  and  C_12
REMARK    9  A    between atoms: C_22  and  C_23
REMARK                            x       y       z     vdW  Elec       q    Type
REMARK                         _______ _______ _______ _____ _____    ______ ____
ROOT
ATOM      1  C   UNK     1       2.566   6.226  19.564  0.00  0.00    +0.000 A 
ATOM      2  C   UNK     1       3.155   6.445  18.320  0.00  0.00    +0.000 A 
ATOM      3  N   UNK     1       2.767   7.705  17.915  0.00  0.00    +0.000 N 
ATOM      4  C   UNK     1       2.020   8.328  18.895  0.00  0.00    +0.000 A 
ATOM      5  C   UNK     1       1.506   9.630  18.964  0.00  0.00    +0.000 A 
ATOM      6  C   UNK     1       0.814   9.999  20.127  0.00  0.00    +0.000 A 
ATOM      7  C   UNK     1       0.620   9.099  21.183  0.00  0.00    +0.000 A 
ATOM      8  C   UNK     1       1.130   7.794  21.073  0.00  0.00    +0.000 A 
ATOM      9  C   UNK     1       1.855   7.411  19.927  0.00  0.00    +0.000 A 
ATOM     10  H   UNK     1       3.089   8.162  17.075  0.00  0.00    +0.000 HD
ENDROOT
BRANCH   2  11
ATOM     11  C   UNK     1       4.094   5.585  17.632  0.00  0.00    +0.000 C 
ATOM     12  O   UNK     1       3.811   4.434  17.304  0.00  0.00    +0.000 OA
ATOM     13  N   UNK     1       5.326   6.126  17.324  0.00  0.00    +0.000 N 
ATOM     14  H   UNK     1       5.539   7.084  17.563  0.00  0.00    +0.000 HD
BRANCH  13  15
ATOM     15  C   UNK     1       6.340   5.306  16.630  0.00  0.00    +0.000 C 
BRANCH  15  16
ATOM     16  C   UNK     1       7.278   4.601  17.634  0.00  0.00    +0.000 C 
BRANCH  16  17
ATOM     17  O   UNK     1       6.523   3.985  18.677  0.00  0.00    +0.000 OA
ATOM     18  H   UNK     1       6.226   4.709  19.258  0.00  0.00    +0.000 HD
ENDBRANCH  16  17
ENDBRANCH  15  16
BRANCH  15  19
ATOM     19  C   UNK     1       5.704   4.251  15.698  0.00  0.00    +0.000 C 
BRANCH  19  20
ATOM     20  C   UNK     1       6.244   4.289  14.290  0.00  0.00    +0.000 A 
ATOM     21  C   UNK     1       5.705   3.455  13.298  0.00  0.00    +0.000 A 
ATOM     22  C   UNK     1       6.239   3.458  12.008  0.00  0.00    +0.000 A 
ATOM     23  C   UNK     1       7.298   4.306  11.696  0.00  0.00    +0.000 A 
ATOM     24  C   UNK     1       7.814   5.165  12.663  0.00  0.00    +0.000 A 
ATOM     25  C   UNK     1       7.286   5.161  13.954  0.00  0.00    +0.000 A 
ENDBRANCH  19  20
ENDBRANCH  15  19
ENDBRANCH  13  15
ENDBRANCH   2  11
BRANCH   7  26
ATOM     26  C   UNK     1      -0.102   9.499  22.446  0.00  0.00    +0.000 C 
ATOM     27  F   UNK     1       0.704   9.562  23.543  0.00  0.00    +0.000 F 
ATOM     28  F   UNK     1      -0.691  10.724  22.347  0.00  0.00    +0.000 F 
ATOM     29  F   UNK     1      -1.103   8.633  22.772  0.00  0.00    +0.000 F 
ENDBRANCH   7  26
BRANCH   1  31
ATOM     30  C   UNK     1       1.438   4.162  20.427  0.00  0.00    +0.000 C 
ATOM     31  C   UNK     1       2.705   5.006  20.426  0.00  0.00    +0.000 C 
ENDBRANCH   1  31
TORSDOF 8
ENDMDL
MODEL 2
REMARK VINA RESULT:      -8.5      0.857      1.451
REMARK  Name = 
REMARK  9 active torsions:
REMARK  status: ('A' for Active; 'I' for Inactive)
REMARK    1  A    between atoms: C_1  and  C_2
REMARK    2  A    between atoms: C_2  and  C_3
REMARK    3  A    between atoms: C_4  and  C_5
REMARK    4  A    between atoms: N_7  and  C_8
REMARK    5  A    between atoms: C_8  and  C_9
REMARK    6  A    between atoms: C_8  and  C_11
REMARK    7  A    between atoms: C_9  and  O_10
REMARK    8  A    between atoms: C_11  and  C_12
REMARK    9  A    between atoms: C_22  and  C_23
REMARK                            x       y       z     vdW  Elec       q    Type
REMARK                         _______ _______ _______ _____ _____    ______ ____
ROOT
ATOM      1  C   UNK     1       2.987   6.883  18.999  0.00  0.00    +0.000 A 
ATOM      2  C   UNK     1       3.435   7.316  17.752  0.00  0.00    +0.000 A 
ATOM      3  N   UNK     1       2.768   8.492  17.478  0.00  0.00    +0.000 N 
ATOM      4  C   UNK     1       1.973   8.867  18.542  0.00  0.00    +0.000 A 
ATOM      5  C   UNK     1       1.206  10.020  18.750  0.00  0.00    +0.000 A 
ATOM      6  C   UNK     1       0.530  10.145  19.973  0.00  0.00    +0.000 A 
ATOM      7  C   UNK     1       0.597   9.147  20.954  0.00  0.00    +0.000 A 
ATOM      8  C   UNK     1       1.359   7.992  20.706  0.00  0.00    +0.000 A 
ATOM      9  C   UNK     1       2.071   7.860  19.497  0.00  0.00    +0.000 A 
ATOM     10  H   UNK     1       2.933   9.069  16.666  0.00  0.00    +0.000 HD
ENDROOT
BRANCH   2  11
ATOM     11  C   UNK     1       4.486   6.729  16.947  0.00  0.00    +0.000 C 
ATOM     12  O   UNK     1       4.654   7.030  15.766  0.00  0.00    +0.000 OA
ATOM     13  N   UNK     1       5.324   5.830  17.574  0.00  0.00    +0.000 N 
ATOM     14  H   UNK     1       5.205   5.616  18.555  0.00  0.00    +0.000 HD
BRANCH  13  15
ATOM     15  C   UNK     1       6.414   5.184  16.816  0.00  0.00    +0.000 C 
BRANCH  15  16
ATOM     16  C   UNK     1       7.493   4.608  17.759  0.00  0.00    +0.000 C 
BRANCH  16  17
ATOM     17  O   UNK     1       7.111   4.787  19.122  0.00  0.00    +0.000 OA
ATOM     18  H   UNK     1       6.245   4.350  19.219  0.00  0.00    +0.000 HD
ENDBRANCH  16  17
ENDBRANCH  15  16
BRANCH  15  19
ATOM     19  C   UNK     1       5.899   4.064  15.885  0.00  0.00    +0.000 C 
BRANCH  19  20
ATOM     20  C   UNK     1       6.403   4.179  14.468  0.00  0.00    +0.000 A 
ATOM     21  C   UNK     1       7.390   5.120  14.138  0.00  0.00    +0.000 A 
ATOM     22  C   UNK     1       7.821   5.257  12.817  0.00  0.00    +0.000 A 
ATOM     23  C   UNK     1       7.281   4.444  11.823  0.00  0.00    +0.000 A 
ATOM     24  C   UNK     1       6.329   3.482  12.147  0.00  0.00    +0.000 A 
ATOM     25  C   UNK     1       5.895   3.345  13.466  0.00  0.00    +0.000 A 
ENDBRANCH  19  20
ENDBRANCH  15  19
ENDBRANCH  13  15
ENDBRANCH   2  11
BRANCH   7  26
ATOM     26  C   UNK     1      -0.109   9.288  22.280  0.00  0.00    +0.000 C 
ATOM     27  F   UNK     1      -0.794  10.459  22.416  0.00  0.00    +0.000 F 
ATOM     28  F   UNK     1      -1.020   8.298  22.496  0.00  0.00    +0.000 F 
ATOM     29  F   UNK     1       0.750   9.238  23.337  0.00  0.00    +0.000 F 
ENDBRANCH   7  26
BRANCH   1  31
ATOM     30  C   UNK     1       2.401   4.543  19.671  0.00  0.00    +0.000 C 
ATOM     31  C   UNK     1       3.432   5.660  19.743  0.00  0.00    +0.000 C 
ENDBRANCH   1  31
TORSDOF 8
ENDMDL
MODEL 3
REMARK VINA RESULT:      -8.4      3.281      5.070
REMARK  Name = 
REMARK  9 active torsions:
REMARK  status: ('A' for Active; 'I' for Inactive)
REMARK    1  A    between atoms: C_1  and  C_2
REMARK    2  A    between atoms: C_2  and  C_3
REMARK    3  A    between atoms: C_4  and  C_5
REMARK    4  A    between atoms: N_7  and  C_8
REMARK    5  A    between atoms: C_8  and  C_9
REMARK    6  A    between atoms: C_8  and  C_11
REMARK    7  A    between atoms: C_9  and  O_10
REMARK    8  A    between atoms: C_11  and  C_12
REMARK    9  A    between atoms: C_22  and  C_23
REMARK                            x       y       z     vdW  Elec       q    Type
REMARK                         _______ _______ _______ _____ _____    ______ ____
ROOT
ATOM      1  C   UNK     1       1.415   8.870  19.427  0.00  0.00    +0.000 A 
ATOM      2  C   UNK     1       2.053   7.716  19.879  0.00  0.00    +0.000 A 
ATOM      3  N   UNK     1       1.828   7.646  21.238  0.00  0.00    +0.000 N 
ATOM      4  C   UNK     1       1.001   8.669  21.653  0.00  0.00    +0.000 A 
ATOM      5  C   UNK     1       0.432   8.935  22.906  0.00  0.00    +0.000 A 
ATOM      6  C   UNK     1      -0.422  10.043  23.015  0.00  0.00    +0.000 A 
ATOM      7  C   UNK     1      -0.689  10.874  21.920  0.00  0.00    +0.000 A 
ATOM      8  C   UNK     1      -0.086  10.592  20.682  0.00  0.00    +0.000 A 
ATOM      9  C   UNK     1       0.751   9.467  20.542  0.00  0.00    +0.000 A 
ATOM     10  H   UNK     1       2.121   6.882  21.829  0.00  0.00    +0.000 HD
ENDROOT
BRANCH   2  11
ATOM     11  C   UNK     1       2.716   6.710  19.075  0.00  0.00    +0.000 C 
ATOM     12  O   UNK     1       2.270   6.336  17.992  0.00  0.00    +0.000 OA
ATOM     13  N   UNK     1       3.904   6.205  19.564  0.00  0.00    +0.000 N 
ATOM     14  H   UNK     1       4.286   6.544  20.436  0.00  0.00    +0.000 HD
BRANCH  13  15
ATOM     15  C   UNK     1       4.634   5.170  18.805  0.00  0.00    +0.000 C 
BRANCH  15  16
ATOM     16  C   UNK     1       6.125   5.536  18.643  0.00  0.00    +0.000 C 
BRANCH  16  17
ATOM     17  O   UNK     1       6.905   4.364  18.409  0.00  0.00    +0.000 OA
ATOM     18  H   UNK     1       7.791   4.677  18.154  0.00  0.00    +0.000 HD
ENDBRANCH  16  17
ENDBRANCH  15  16
BRANCH  15  19
ATOM     19  C   UNK     1       4.519   3.773  19.455  0.00  0.00    +0.000 C 
BRANCH  19  20
ATOM     20  C   UNK     1       3.095   3.304  19.627  0.00  0.00    +0.000 A 
ATOM     21  C   UNK     1       2.338   2.904  18.514  0.00  0.00    +0.000 A 
ATOM     22  C   UNK     1       1.006   2.517  18.670  0.00  0.00    +0.000 A 
ATOM     23  C   UNK     1       0.429   2.508  19.938  0.00  0.00    +0.000 A 
ATOM     24  C   UNK     1       1.183   2.866  21.052  0.00  0.00    +0.000 A 
ATOM     25  C   UNK     1       2.513   3.258  20.899  0.00  0.00    +0.000 A 
ENDBRANCH  19  20
ENDBRANCH  15  19
ENDBRANCH  13  15
ENDBRANCH   2  11
BRANCH   7  26
ATOM     26  C   UNK     1      -1.626  12.053  22.027  0.00  0.00    +0.000 C 
ATOM     27  F   UNK     1      -2.776  11.780  22.704  0.00  0.00    +0.000 F 
ATOM     28  F   UNK     1      -1.061  13.114  22.668  0.00  0.00    +0.000 F 
ATOM     29  F   UNK     1      -2.017  12.522  20.808  0.00  0.00    +0.000 F 
ENDBRANCH   7  26
BRANCH   1  31
ATOM     30  C   UNK     1       2.179  10.635  17.823  0.00  0.00    +0.000 C 
ATOM     31  C   UNK     1       1.352   9.373  18.015  0.00  0.00    +0.000 C 
ENDBRANCH   1  31
TORSDOF 8
ENDMDL
MODEL 4
REMARK VINA RESULT:      -8.4      3.329      5.082
REMARK  Name = 
REMARK  9 active torsions:
REMARK  status: ('A' for Active; 'I' for Inactive)
REMARK    1  A    between atoms: C_1  and  C_2
REMARK    2  A    between atoms: C_2  and  C_3
REMARK    3  A    between atoms: C_4  and  C_5
REMARK    4  A    between atoms: N_7  and  C_8
REMARK    5  A    between atoms: C_8  and  C_9
REMARK    6  A    between atoms: C_8  and  C_11
REMARK    7  A    between atoms: C_9  and  O_10
REMARK    8  A    between atoms: C_11  and  C_12
REMARK    9  A    between atoms: C_22  and  C_23
REMARK                            x       y       z     vdW  Elec       q    Type
REMARK                         _______ _______ _______ _____ _____    ______ ____
ROOT
ATOM      1  C   UNK     1       1.418   8.958  19.411  0.00  0.00    +0.000 A 
ATOM      2  C   UNK     1       2.038   7.794  19.863  0.00  0.00    +0.000 A 
ATOM      3  N   UNK     1       1.768   7.702  21.213  0.00  0.00    +0.000 N 
ATOM      4  C   UNK     1       0.929   8.720  21.618  0.00  0.00    +0.000 A 
ATOM      5  C   UNK     1       0.320   8.967  22.855  0.00  0.00    +0.000 A 
ATOM      6  C   UNK     1      -0.534  10.075  22.955  0.00  0.00    +0.000 A 
ATOM      7  C   UNK     1      -0.763  10.925  21.866  0.00  0.00    +0.000 A 
ATOM      8  C   UNK     1      -0.120  10.663  20.644  0.00  0.00    +0.000 A 
ATOM      9  C   UNK     1       0.718   9.537  20.513  0.00  0.00    +0.000 A 
ATOM     10  H   UNK     1       2.039   6.927  21.801  0.00  0.00    +0.000 HD
ENDROOT
BRANCH   2  11
ATOM     11  C   UNK     1       2.725   6.800  19.066  0.00  0.00    +0.000 C 
ATOM     12  O   UNK     1       2.286   6.408  17.986  0.00  0.00    +0.000 OA
ATOM     13  N   UNK     1       3.926   6.329  19.555  0.00  0.00    +0.000 N 
ATOM     14  H   UNK     1       4.300   6.683  20.425  0.00  0.00    +0.000 HD
BRANCH  13  15
ATOM     15  C   UNK     1       4.680   5.307  18.802  0.00  0.00    +0.000 C 
BRANCH  15  16
ATOM     16  C   UNK     1       6.173   5.686  18.679  0.00  0.00    +0.000 C 
BRANCH  16  17
ATOM     17  O   UNK     1       6.892   5.265  19.837  0.00  0.00    +0.000 OA
ATOM     18  H   UNK     1       7.705   5.801  19.859  0.00  0.00    +0.000 HD
ENDBRANCH  16  17
ENDBRANCH  15  16
BRANCH  15  19
ATOM     19  C   UNK     1       4.560   3.902  19.433  0.00  0.00    +0.000 C 
BRANCH  19  20
ATOM     20  C   UNK     1       3.136   3.427  19.578  0.00  0.00    +0.000 A 
ATOM     21  C   UNK     1       2.508   3.434  20.833  0.00  0.00    +0.000 A 
ATOM     22  C   UNK     1       1.206   2.950  20.972  0.00  0.00    +0.000 A 
ATOM     23  C   UNK     1       0.519   2.474  19.858  0.00  0.00    +0.000 A 
ATOM     24  C   UNK     1       1.119   2.499  18.603  0.00  0.00    +0.000 A 
ATOM     25  C   UNK     1       2.422   2.979  18.461  0.00  0.00    +0.000 A 
ENDBRANCH  19  20
ENDBRANCH  15  19
ENDBRANCH  13  15
ENDBRANCH   2  11
BRANCH   7  26
ATOM     26  C   UNK     1      -1.701  12.105  21.962  0.00  0.00    +0.000 C 
ATOM     27  F   UNK     1      -1.086  13.267  22.319  0.00  0.00    +0.000 F 
ATOM     28  F   UNK     1      -2.335  12.367  20.785  0.00  0.00    +0.000 F 
ATOM     29  F   UNK     1      -2.690  11.913  22.880  0.00  0.00    +0.000 F 
ENDBRANCH   7  26
BRANCH   1  31
ATOM     30  C   UNK     1       2.152  10.803  17.884  0.00  0.00    +0.000 C 
ATOM     31  C   UNK     1       1.402   9.484  18.006  0.00  0.00    +0.000 C 
ENDBRANCH   1  31
TORSDOF 8
ENDMDL
MODEL 5
REMARK VINA RESULT:      -8.4      3.159      5.261
REMARK  Name = 
REMARK  9 active torsions:
REMARK  status: ('A' for Active; 'I' for Inactive)
REMARK    1  A    between atoms: C_1  and  C_2
REMARK    2  A    between atoms: C_2  and  C_3
REMARK    3  A    between atoms: C_4  and  C_5
REMARK    4  A    between atoms: N_7  and  C_8
REMARK    5  A    between atoms: C_8  and  C_9
REMARK    6  A    between atoms: C_8  and  C_11
REMARK    7  A    between atoms: C_9  and  O_10
REMARK    8  A    between atoms: C_11  and  C_12
REMARK    9  A    between atoms: C_22  and  C_23
REMARK                            x       y       z     vdW  Elec       q    Type
REMARK                         _______ _______ _______ _____ _____    ______ ____
ROOT
ATOM      1  C   UNK     1       0.903   9.683  19.359  0.00  0.00    +0.000 A 
ATOM      2  C   UNK     1       1.756   8.589  19.500  0.00  0.00    +0.000 A 
ATOM      3  N   UNK     1       1.785   8.282  20.845  0.00  0.00    +0.000 N 
ATOM      4  C   UNK     1       0.917   9.087  21.553  0.00  0.00    +0.000 A 
ATOM      5  C   UNK     1       0.548   9.069  22.905  0.00  0.00    +0.000 A 
ATOM      6  C   UNK     1      -0.411   9.999  23.333  0.00  0.00    +0.000 A 
ATOM      7  C   UNK     1      -0.974  10.932  22.454  0.00  0.00    +0.000 A 
ATOM      8  C   UNK     1      -0.566  10.938  21.109  0.00  0.00    +0.000 A 
ATOM      9  C   UNK     1       0.373   9.993  20.649  0.00  0.00    +0.000 A 
ATOM     10  H   UNK     1       2.275   7.493  21.242  0.00  0.00    +0.000 HD
ENDROOT
BRANCH   2  11
ATOM     11  C   UNK     1       2.393   7.833  18.443  0.00  0.00    +0.000 C 
ATOM     12  O   UNK     1       2.476   8.257  17.291  0.00  0.00    +0.000 OA
ATOM     13  N   UNK     1       2.941   6.615  18.790  0.00  0.00    +0.000 N 
ATOM     14  H   UNK     1       2.904   6.289  19.746  0.00  0.00    +0.000 HD
BRANCH  13  15
ATOM     15  C   UNK     1       3.601   5.783  17.764  0.00  0.00    +0.000 C 
BRANCH  15  16
ATOM     16  C   UNK     1       5.105   5.607  18.063  0.00  0.00    +0.000 C 
BRANCH  16  17
ATOM     17  O   UNK     1       5.711   4.752  17.093  0.00  0.00    +0.000 OA
ATOM     18  H   UNK     1       5.012   4.539  16.449  0.00  0.00    +0.000 HD
ENDBRANCH  16  17
ENDBRANCH  15  16
BRANCH  15  19
ATOM     19  C   UNK     1       2.942   4.392  17.622  0.00  0.00    +0.000 C 
BRANCH  19  20
ATOM     20  C   UNK     1       2.524   3.787  18.939  0.00  0.00    +0.000 A 
ATOM     21  C   UNK     1       1.180   3.817  19.342  0.00  0.00    +0.000 A 
ATOM     22  C   UNK     1       0.804   3.299  20.582  0.00  0.00    +0.000 A 
ATOM     23  C   UNK     1       1.763   2.732  21.418  0.00  0.00    +0.000 A 
ATOM     24  C   UNK     1       3.092   2.663  21.011  0.00  0.00    +0.000 A 
ATOM     25  C   UNK     1       3.472   3.184  19.773  0.00  0.00    +0.000 A 
ENDBRANCH  19  20
ENDBRANCH  15  19
ENDBRANCH  13  15
ENDBRANCH   2  11
BRANCH   7  26
ATOM     26  C   UNK     1      -2.023  11.919  22.906  0.00  0.00    +0.000 C 
ATOM     27  F   UNK     1      -2.908  11.405  23.806  0.00  0.00    +0.000 F 
ATOM     28  F   UNK     1      -1.485  13.019  23.502  0.00  0.00    +0.000 F 
ATOM     29  F   UNK     1      -2.778  12.389  21.873  0.00  0.00    +0.000 F 
ENDBRANCH   7  26
BRANCH   1  31
ATOM     30  C   UNK     1      -0.894  10.040  17.651  0.00  0.00    +0.000 C 
ATOM     31  C   UNK     1       0.527  10.375  18.083  0.00  0.00    +0.000 C 
ENDBRANCH   1  31
TORSDOF 8
ENDMDL
MODEL 6
REMARK VINA RESULT:      -8.4      3.188      5.289
REMARK  Name = 
REMARK  9 active torsions:
REMARK  status: ('A' for Active; 'I' for Inactive)
REMARK    1  A    between atoms: C_1  and  C_2
REMARK    2  A    between atoms: C_2  and  C_3
REMARK    3  A    between atoms: C_4  and  C_5
REMARK    4  A    between atoms: N_7  and  C_8
REMARK    5  A    between atoms: C_8  and  C_9
REMARK    6  A    between atoms: C_8  and  C_11
REMARK    7  A    between atoms: C_9  and  O_10
REMARK    8  A    between atoms: C_11  and  C_12
REMARK    9  A    between atoms: C_22  and  C_23
REMARK                            x       y       z     vdW  Elec       q    Type
REMARK                         _______ _______ _______ _____ _____    ______ ____
ROOT
ATOM      1  C   UNK     1       1.251   9.485  19.444  0.00  0.00    +0.000 A 
ATOM      2  C   UNK     1       1.888   8.258  19.622  0.00  0.00    +0.000 A 
ATOM      3  N   UNK     1       1.678   7.890  20.934  0.00  0.00    +0.000 N 
ATOM      4  C   UNK     1       0.860   8.797  21.575  0.00  0.00    +0.000 A 
ATOM      5  C   UNK     1       0.307   8.781  22.863  0.00  0.00    +0.000 A 
ATOM      6  C   UNK     1      -0.540   9.839  23.224  0.00  0.00    +0.000 A 
ATOM      7  C   UNK     1      -0.816  10.893  22.343  0.00  0.00    +0.000 A 
ATOM      8  C   UNK     1      -0.228  10.890  21.067  0.00  0.00    +0.000 A 
ATOM      9  C   UNK     1       0.602   9.822  20.671  0.00  0.00    +0.000 A 
ATOM     10  H   UNK     1       1.974   7.013  21.338  0.00  0.00    +0.000 HD
ENDROOT
BRANCH   2  11
ATOM     11  C   UNK     1       2.538   7.453  18.608  0.00  0.00    +0.000 C 
ATOM     12  O   UNK     1       2.394   7.671  17.406  0.00  0.00    +0.000 OA
ATOM     13  N   UNK     1       3.363   6.439  19.051  0.00  0.00    +0.000 N 
ATOM     14  H   UNK     1       3.506   6.289  20.040  0.00  0.00    +0.000 HD
BRANCH  13  15
ATOM     15  C   UNK     1       4.053   5.571  18.076  0.00  0.00    +0.000 C 
BRANCH  15  16
ATOM     16  C   UNK     1       5.512   5.296  18.500  0.00  0.00    +0.000 C 
BRANCH  16  17
ATOM     17  O   UNK     1       6.004   4.117  17.865  0.00  0.00    +0.000 OA
ATOM     18  H   UNK     1       5.906   3.400  18.517  0.00  0.00    +0.000 HD
ENDBRANCH  16  17
ENDBRANCH  15  16
BRANCH  15  19
ATOM     19  C   UNK     1       3.321   4.226  17.864  0.00  0.00    +0.000 C 
BRANCH  19  20
ATOM     20  C   UNK     1       2.663   3.696  19.114  0.00  0.00    +0.000 A 
ATOM     21  C   UNK     1       1.277   3.821  19.297  0.00  0.00    +0.000 A 
ATOM     22  C   UNK     1       0.678   3.373  20.476  0.00  0.00    +0.000 A 
ATOM     23  C   UNK     1       1.456   2.780  21.468  0.00  0.00    +0.000 A 
ATOM     24  C   UNK     1       2.825   2.617  21.280  0.00  0.00    +0.000 A 
ATOM     25  C   UNK     1       3.427   3.068  20.104  0.00  0.00    +0.000 A 
ENDBRANCH  19  20
ENDBRANCH  15  19
ENDBRANCH  13  15
ENDBRANCH   2  11
BRANCH   7  26
ATOM     26  C   UNK     1      -1.746  12.021  22.720  0.00  0.00    +0.000 C 
ATOM     27  F   UNK     1      -2.345  12.617  21.651  0.00  0.00    +0.000 F 
ATOM     28  F   UNK     1      -2.759  11.614  23.535  0.00  0.00    +0.000 F 
ATOM     29  F   UNK     1      -1.109  13.021  23.392  0.00  0.00    +0.000 F 
ENDBRANCH   7  26
BRANCH   1  31
ATOM     30  C   UNK     1       2.125  11.476  18.201  0.00  0.00    +0.000 C 
ATOM     31  C   UNK     1       1.174  10.287  18.179  0.00  0.00    +0.000 C 
ENDBRANCH   1  31
TORSDOF 8
ENDMDL
MODEL 7
REMARK VINA RESULT:      -8.4      3.170      5.408
REMARK  Name = 
REMARK  9 active torsions:
REMARK  status: ('A' for Active; 'I' for Inactive)
REMARK    1  A    between atoms: C_1  and  C_2
REMARK    2  A    between atoms: C_2  and  C_3
REMARK    3  A    between atoms: C_4  and  C_5
REMARK    4  A    between atoms: N_7  and  C_8
REMARK    5  A    between atoms: C_8  and  C_9
REMARK    6  A    between atoms: C_8  and  C_11
REMARK    7  A    between atoms: C_9  and  O_10
REMARK    8  A    between atoms: C_11  and  C_12
REMARK    9  A    between atoms: C_22  and  C_23
REMARK                            x       y       z     vdW  Elec       q    Type
REMARK                         _______ _______ _______ _____ _____    ______ ____
ROOT
ATOM      1  C   UNK     1       1.166   9.787  19.430  0.00  0.00    +0.000 A 
ATOM      2  C   UNK     1       1.793   8.544  19.509  0.00  0.00    +0.000 A 
ATOM      3  N   UNK     1       1.575   8.072  20.787  0.00  0.00    +0.000 N 
ATOM      4  C   UNK     1       0.761   8.932  21.497  0.00  0.00    +0.000 A 
ATOM      5  C   UNK     1       0.203   8.815  22.777  0.00  0.00    +0.000 A 
ATOM      6  C   UNK     1      -0.637   9.848  23.220  0.00  0.00    +0.000 A 
ATOM      7  C   UNK     1      -0.901  10.972  22.427  0.00  0.00    +0.000 A 
ATOM      8  C   UNK     1      -0.307  11.068  21.157  0.00  0.00    +0.000 A 
ATOM      9  C   UNK     1       0.515  10.028  20.678  0.00  0.00    +0.000 A 
ATOM     10  H   UNK     1       1.861   7.163  21.119  0.00  0.00    +0.000 HD
ENDROOT
BRANCH   2  11
ATOM     11  C   UNK     1       2.440   7.819  18.436  0.00  0.00    +0.000 C 
ATOM     12  O   UNK     1       2.668   8.332  17.342  0.00  0.00    +0.000 OA
ATOM     13  N   UNK     1       2.826   6.522  18.704  0.00  0.00    +0.000 N 
ATOM     14  H   UNK     1       2.671   6.118  19.617  0.00  0.00    +0.000 HD
BRANCH  13  15
ATOM     15  C   UNK     1       3.484   5.716  17.655  0.00  0.00    +0.000 C 
BRANCH  15  16
ATOM     16  C   UNK     1       5.020   5.729  17.816  0.00  0.00    +0.000 C 
BRANCH  16  17
ATOM     17  O   UNK     1       5.569   6.930  17.276  0.00  0.00    +0.000 OA
ATOM     18  H   UNK     1       6.047   7.361  18.008  0.00  0.00    +0.000 HD
ENDBRANCH  16  17
ENDBRANCH  15  16
BRANCH  15  19
ATOM     19  C   UNK     1       2.985   4.254  17.637  0.00  0.00    +0.000 C 
BRANCH  19  20
ATOM     20  C   UNK     1       2.540   3.753  18.989  0.00  0.00    +0.000 A 
ATOM     21  C   UNK     1       3.476   3.246  19.903  0.00  0.00    +0.000 A 
ATOM     22  C   UNK     1       3.056   2.739  21.134  0.00  0.00    +0.000 A 
ATOM     23  C   UNK     1       1.703   2.754  21.466  0.00  0.00    +0.000 A 
ATOM     24  C   UNK     1       0.772   3.290  20.582  0.00  0.00    +0.000 A 
ATOM     25  C   UNK     1       1.189   3.793  19.349  0.00  0.00    +0.000 A 
ENDBRANCH  19  20
ENDBRANCH  15  19
ENDBRANCH  13  15
ENDBRANCH   2  11
BRANCH   7  26
ATOM     26  C   UNK     1      -1.823  12.073  22.891  0.00  0.00    +0.000 C 
ATOM     27  F   UNK     1      -2.805  11.648  23.733  0.00  0.00    +0.000 F 
ATOM     28  F   UNK     1      -1.164  13.062  23.558  0.00  0.00    +0.000 F 
ATOM     29  F   UNK     1      -2.463  12.688  21.857  0.00  0.00    +0.000 F 
ENDBRANCH   7  26
BRANCH   1  31
ATOM     30  C   UNK     1       2.032  11.886  18.373  0.00  0.00    +0.000 C 
ATOM     31  C   UNK     1       1.101  10.690  18.234  0.00  0.00    +0.000 C 
ENDBRANCH   1  31
TORSDOF 8
ENDMDL
MODEL 8
REMARK VINA RESULT:      -8.3      2.871      4.264
REMARK  Name = 
REMARK  9 active torsions:
REMARK  status: ('A' for Active; 'I' for Inactive)
REMARK    1  A    between atoms: C_1  and  C_2
REMARK    2  A    between atoms: C_2  and  C_3
REMARK    3  A    between atoms: C_4  and  C_5
REMARK    4  A    between atoms: N_7  and  C_8
REMARK    5  A    between atoms: C_8  and  C_9
REMARK    6  A    between atoms: C_8  and  C_11
REMARK    7  A    between atoms: C_9  and  O_10
REMARK    8  A    between atoms: C_11  and  C_12
REMARK    9  A    between atoms: C_22  and  C_23
REMARK                            x       y       z     vdW  Elec       q    Type
REMARK                         _______ _______ _______ _____ _____    ______ ____
ROOT
ATOM      1  C   UNK     1       1.957   7.872  19.044  0.00  0.00    +0.000 A 
ATOM      2  C   UNK     1       1.923   6.979  20.113  0.00  0.00    +0.000 A 
ATOM      3  N   UNK     1       1.438   7.680  21.198  0.00  0.00    +0.000 N 
ATOM      4  C   UNK     1       1.083   8.964  20.836  0.00  0.00    +0.000 A 
ATOM      5  C   UNK     1       0.464   9.984  21.570  0.00  0.00    +0.000 A 
ATOM      6  C   UNK     1       0.182  11.188  20.908  0.00  0.00    +0.000 A 
ATOM      7  C   UNK     1       0.521  11.383  19.563  0.00  0.00    +0.000 A 
ATOM      8  C   UNK     1       1.161  10.347  18.860  0.00  0.00    +0.000 A 
ATOM      9  C   UNK     1       1.426   9.118  19.497  0.00  0.00    +0.000 A 
ATOM     10  H   UNK     1       1.246   7.276  22.103  0.00  0.00    +0.000 HD
ENDROOT
BRANCH   2  11
ATOM     11  C   UNK     1       2.214   5.561  20.081  0.00  0.00    +0.000 C 
ATOM     12  O   UNK     1       2.577   4.943  21.080  0.00  0.00    +0.000 OA
ATOM     13  N   UNK     1       2.035   4.915  18.874  0.00  0.00    +0.000 N 
ATOM     14  H   UNK     1       1.700   5.421  18.066  0.00  0.00    +0.000 HD
BRANCH  13  15
ATOM     15  C   UNK     1       2.320   3.471  18.761  0.00  0.00    +0.000 C 
BRANCH  15  16
ATOM     16  C   UNK     1       1.027   2.632  18.862  0.00  0.00    +0.000 C 
BRANCH  16  17
ATOM     17  O   UNK     1       0.361   2.886  20.098  0.00  0.00    +0.000 OA
ATOM     18  H   UNK     1      -0.018   2.034  20.380  0.00  0.00    +0.000 HD
ENDBRANCH  16  17
ENDBRANCH  15  16
BRANCH  15  19
ATOM     19  C   UNK     1       3.057   3.118  17.450  0.00  0.00    +0.000 C 
BRANCH  19  20
ATOM     20  C   UNK     1       4.380   3.826  17.294  0.00  0.00    +0.000 A 
ATOM     21  C   UNK     1       4.828   4.224  16.025  0.00  0.00    +0.000 A 
ATOM     22  C   UNK     1       6.074   4.836  15.878  0.00  0.00    +0.000 A 
ATOM     23  C   UNK     1       6.869   5.072  16.997  0.00  0.00    +0.000 A 
ATOM     24  C   UNK     1       6.416   4.715  18.264  0.00  0.00    +0.000 A 
ATOM     25  C   UNK     1       5.173   4.099  18.413  0.00  0.00    +0.000 A 
ENDBRANCH  19  20
ENDBRANCH  15  19
ENDBRANCH  13  15
ENDBRANCH   2  11
BRANCH   7  26
ATOM     26  C   UNK     1       0.197  12.668  18.840  0.00  0.00    +0.000 C 
ATOM     27  F   UNK     1      -0.207  13.675  19.665  0.00  0.00    +0.000 F 
ATOM     28  F   UNK     1       1.262  13.161  18.147  0.00  0.00    +0.000 F 
ATOM     29  F   UNK     1      -0.801  12.516  17.925  0.00  0.00    +0.000 F 
ENDBRANCH   7  26
BRANCH   1  31
ATOM     30  C   UNK     1       3.906   7.541  17.505  0.00  0.00    +0.000 C 
ATOM     31  C   UNK     1       2.390   7.580  17.638  0.00  0.00    +0.000 C 
ENDBRANCH   1  31
TORSDOF 8
ENDMDL
MODEL 9
REMARK VINA RESULT:      -8.3      3.120      5.271
REMARK  Name = 
REMARK  9 active torsions:
REMARK  status: ('A' for Active; 'I' for Inactive)
REMARK    1  A    between atoms: C_1  and  C_2
REMARK    2  A    between atoms: C_2  and  C_3
REMARK    3  A    between atoms: C_4  and  C_5
REMARK    4  A    between atoms: N_7  and  C_8
REMARK    5  A    between atoms: C_8  and  C_9
REMARK    6  A    between atoms: C_8  and  C_11
REMARK    7  A    between atoms: C_9  and  O_10
REMARK    8  A    between atoms: C_11  and  C_12
REMARK    9  A    between atoms: C_22  and  C_23
REMARK                            x       y       z     vdW  Elec       q    Type
REMARK                         _______ _______ _______ _____ _____    ______ ____
ROOT
ATOM      1  C   UNK     1       1.210   9.847  19.388  0.00  0.00    +0.000 A 
ATOM      2  C   UNK     1       1.827   8.598  19.446  0.00  0.00    +0.000 A 
ATOM      3  N   UNK     1       1.606   8.107  20.716  0.00  0.00    +0.000 N 
ATOM      4  C   UNK     1       0.800   8.962  21.441  0.00  0.00    +0.000 A 
ATOM      5  C   UNK     1       0.242   8.829  22.719  0.00  0.00    +0.000 A 
ATOM      6  C   UNK     1      -0.589   9.860  23.180  0.00  0.00    +0.000 A 
ATOM      7  C   UNK     1      -0.845  10.999  22.406  0.00  0.00    +0.000 A 
ATOM      8  C   UNK     1      -0.252  11.112  21.136  0.00  0.00    +0.000 A 
ATOM      9  C   UNK     1       0.562  10.073  20.640  0.00  0.00    +0.000 A 
ATOM     10  H   UNK     1       1.887   7.191  21.034  0.00  0.00    +0.000 HD
ENDROOT
BRANCH   2  11
ATOM     11  C   UNK     1       2.468   7.886  18.361  0.00  0.00    +0.000 C 
ATOM     12  O   UNK     1       2.495   8.327  17.213  0.00  0.00    +0.000 OA
ATOM     13  N   UNK     1       3.083   6.691  18.676  0.00  0.00    +0.000 N 
ATOM     14  H   UNK     1       3.090   6.353  19.628  0.00  0.00    +0.000 HD
BRANCH  13  15
ATOM     15  C   UNK     1       3.750   5.904  17.619  0.00  0.00    +0.000 C 
BRANCH  15  16
ATOM     16  C   UNK     1       5.084   6.553  17.190  0.00  0.00    +0.000 C 
BRANCH  16  17
ATOM     17  O   UNK     1       5.029   6.949  15.821  0.00  0.00    +0.000 OA
ATOM     18  H   UNK     1       5.230   7.902  15.808  0.00  0.00    +0.000 HD
ENDBRANCH  16  17
ENDBRANCH  15  16
BRANCH  15  19
ATOM     19  C   UNK     1       4.008   4.442  18.050  0.00  0.00    +0.000 C 
BRANCH  19  20
ATOM     20  C   UNK     1       2.965   3.900  18.995  0.00  0.00    +0.000 A 
ATOM     21  C   UNK     1       1.712   3.491  18.512  0.00  0.00    +0.000 A 
ATOM     22  C   UNK     1       0.731   3.035  19.394  0.00  0.00    +0.000 A 
ATOM     23  C   UNK     1       1.002   2.965  20.759  0.00  0.00    +0.000 A 
ATOM     24  C   UNK     1       2.254   3.332  21.243  0.00  0.00    +0.000 A 
ATOM     25  C   UNK     1       3.235   3.793  20.363  0.00  0.00    +0.000 A 
ENDBRANCH  19  20
ENDBRANCH  15  19
ENDBRANCH  13  15
ENDBRANCH   2  11
BRANCH   7  26
ATOM     26  C   UNK     1      -1.758  12.100  22.888  0.00  0.00    +0.000 C 
ATOM     27  F   UNK     1      -1.118  13.072  23.597  0.00  0.00    +0.000 F 
ATOM     28  F   UNK     1      -2.391  12.741  21.866  0.00  0.00    +0.000 F 
ATOM     29  F   UNK     1      -2.747  11.638  23.704  0.00  0.00    +0.000 F 
ENDBRANCH   7  26
BRANCH   1  31
ATOM     30  C   UNK     1       2.074  11.968  18.374  0.00  0.00    +0.000 C 
ATOM     31  C   UNK     1       1.151  10.770  18.207  0.00  0.00    +0.000 C 
ENDBRANCH   1  31
TORSDOF 8
ENDMDL
