MODEL 1
REMARK VINA RESULT:      -8.6      0.000      0.000
REMARK  Name = 
REMARK  8 active torsions:
REMARK  status: ('A' for Active; 'I' for Inactive)
REMARK    1  A    between atoms: C_1  and  O_2
REMARK    2  A    between atoms: O_2  and  C_3
REMARK    3  A    between atoms: C_7  and  C_8
REMARK    4  A    between atoms: C_8  and  N_9
REMARK    5  A    between atoms: C_10  and  C_11
REMARK    6  A    between atoms: C_15  and  N_16
REMARK    7  A    between atoms: N_19  and  C_20
REMARK    8  A    between atoms: C_26  and  C_27
REMARK                            x       y       z     vdW  Elec       q    Type
REMARK                         _______ _______ _______ _____ _____    ______ ____
ROOT
ATOM      1  N   UNL     1       2.652   4.607  18.768  0.00  0.00    +0.000 N 
ATOM      2  C   UNL     1       2.498   3.915  19.955  0.00  0.00    +0.000 A 
ATOM      3  C   UNL     1       2.655   2.448  20.118  0.00  0.00    +0.000 C 
ATOM      4  N   UNL     1       2.165   4.739  20.934  0.00  0.00    +0.000 NA
ATOM      5  C   UNL     1       2.089   5.979  20.366  0.00  0.00    +0.000 A 
ATOM      6  C   UNL     1       1.755   7.219  20.907  0.00  0.00    +0.000 A 
ATOM      7  C   UNL     1       1.737   8.346  20.073  0.00  0.00    +0.000 A 
ATOM      8  C   UNL     1       2.096   8.158  18.713  0.00  0.00    +0.000 A 
ATOM      9  C   UNL     1       2.136   9.267  17.699  0.00  0.00    +0.000 C 
ATOM     10  N   UNL     1       2.435   6.956  18.158  0.00  0.00    +0.000 NA
ATOM     11  C   UNL     1       2.400   5.930  19.024  0.00  0.00    +0.000 A 
ENDROOT
BRANCH   7  12
ATOM     12  N   UNL     1       1.358   9.627  20.593  0.00  0.00    +0.000 N 
ATOM     13  C   UNL     1       0.061   9.977  20.962  0.00  0.00    +0.000 C 
ATOM     14  O   UNL     1      -0.919   9.239  20.874  0.00  0.00    +0.000 OA
ATOM     15  N   UNL     1      -0.045  11.294  21.387  0.00  0.00    +0.000 N 
ATOM     16  H   UNL     1       2.060  10.347  20.637  0.00  0.00    +0.000 HD
ATOM     17  H   UNL     1       0.555  11.940  20.896  0.00  0.00    +0.000 HD
BRANCH  15  18
ATOM     18  C   UNL     1      -1.315  11.809  21.760  0.00  0.00    +0.000 A 
ATOM     19  C   UNL     1      -1.796  11.705  23.071  0.00  0.00    +0.000 A 
ATOM     20  C   UNL     1      -3.072  12.176  23.396  0.00  0.00    +0.000 A 
ATOM     21  C   UNL     1      -3.882  12.736  22.406  0.00  0.00    +0.000 A 
ATOM     22  C   UNL     1      -3.408  12.841  21.098  0.00  0.00    +0.000 A 
ATOM     23  C   UNL     1      -2.119  12.399  20.781  0.00  0.00    +0.000 A 
ENDBRANCH  15  18
ENDBRANCH   7  12
BRANCH   1  24
ATOM     24  C   UNL     1       2.931   4.065  17.447  0.00  0.00    +0.000 C 
BRANCH  24  29
ATOM     25  C   UNL     1       6.720   4.489  17.696  0.00  0.00    +0.000 A 
ATOM     26  C   UNL     1       7.069   4.573  16.347  0.00  0.00    +0.000 A 
ATOM     27  C   UNL     1       6.097   4.446  15.356  0.00  0.00    +0.000 A 
ATOM     28  C   UNL     1       4.763   4.264  15.712  0.00  0.00    +0.000 A 
ATOM     29  C   UNL     1       4.384   4.210  17.061  0.00  0.00    +0.000 A 
ATOM     30  C   UNL     1       5.382   4.288  18.048  0.00  0.00    +0.000 A 
BRANCH  25  32
ATOM     31  C   UNL     1       7.826   5.848  19.302  0.00  0.00    +0.000 C 
ATOM     32  O   UNL     1       7.766   4.633  18.565  0.00  0.00    +0.000 OA
ENDBRANCH  25  32
ENDBRANCH  24  29
ENDBRANCH   1  24
TORSDOF 5
ENDMDL
MODEL 2
REMARK VINA RESULT:      -8.4      0.891      1.688
REMARK  Name = 
REMARK  8 active torsions:
REMARK  status: ('A' for Active; 'I' for Inactive)
REMARK    1  A    between atoms: C_1  and  O_2
REMARK    2  A    between atoms: O_2  and  C_3
REMARK    3  A    between atoms: C_7  and  C_8
REMARK    4  A    between atoms: C_8  and  N_9
REMARK    5  A    between atoms: C_10  and  C_11
REMARK    6  A    between atoms: C_15  and  N_16
REMARK    7  A    between atoms: N_19  and  C_20
REMARK    8  A    between atoms: C_26  and  C_27
REMARK                            x       y       z     vdW  Elec       q    Type
REMARK                         _______ _______ _______ _____ _____    ______ ____
ROOT
ATOM      1  N   UNL     1       2.657   4.643  18.878  0.00  0.00    +0.000 N 
ATOM      2  C   UNL     1       2.410   3.976  20.063  0.00  0.00    +0.000 A 
ATOM      3  C   UNL     1       2.538   2.510  20.264  0.00  0.00    +0.000 C 
ATOM      4  N   UNL     1       2.018   4.821  21.000  0.00  0.00    +0.000 NA
ATOM      5  C   UNL     1       1.997   6.051  20.406  0.00  0.00    +0.000 A 
ATOM      6  C   UNL     1       1.641   7.305  20.899  0.00  0.00    +0.000 A 
ATOM      7  C   UNL     1       1.695   8.416  20.045  0.00  0.00    +0.000 A 
ATOM      8  C   UNL     1       2.148   8.198  18.719  0.00  0.00    +0.000 A 
ATOM      9  C   UNL     1       2.274   9.287  17.690  0.00  0.00    +0.000 C 
ATOM     10  N   UNL     1       2.512   6.982  18.211  0.00  0.00    +0.000 NA
ATOM     11  C   UNL     1       2.403   5.973  19.090  0.00  0.00    +0.000 A 
ENDROOT
BRANCH   7  12
ATOM     12  N   UNL     1       1.296   9.711  20.514  0.00  0.00    +0.000 N 
ATOM     13  C   UNL     1       0.007  10.035  20.934  0.00  0.00    +0.000 C 
ATOM     14  O   UNL     1      -0.947   9.259  20.940  0.00  0.00    +0.000 OA
ATOM     15  N   UNL     1      -0.127  11.370  21.290  0.00  0.00    +0.000 N 
ATOM     16  H   UNL     1       1.971  10.456  20.479  0.00  0.00    +0.000 HD
ATOM     17  H   UNL     1       0.421  12.007  20.732  0.00  0.00    +0.000 HD
BRANCH  15  18
ATOM     18  C   UNL     1      -1.394  11.859  21.703  0.00  0.00    +0.000 A 
ATOM     19  C   UNL     1      -1.819  11.774  23.034  0.00  0.00    +0.000 A 
ATOM     20  C   UNL     1      -3.093  12.219  23.401  0.00  0.00    +0.000 A 
ATOM     21  C   UNL     1      -3.957  12.734  22.433  0.00  0.00    +0.000 A 
ATOM     22  C   UNL     1      -3.540  12.821  21.104  0.00  0.00    +0.000 A 
ATOM     23  C   UNL     1      -2.253  12.405  20.745  0.00  0.00    +0.000 A 
ENDBRANCH  15  18
ENDBRANCH   7  12
BRANCH   1  24
ATOM     24  C   UNL     1       3.024   4.073  17.590  0.00  0.00    +0.000 C 
BRANCH  24  29
ATOM     25  C   UNL     1       6.290   4.391  15.634  0.00  0.00    +0.000 A 
ATOM     26  C   UNL     1       7.208   4.561  16.672  0.00  0.00    +0.000 A 
ATOM     27  C   UNL     1       6.776   4.621  17.995  0.00  0.00    +0.000 A 
ATOM     28  C   UNL     1       5.422   4.482  18.290  0.00  0.00    +0.000 A 
ATOM     29  C   UNL     1       4.485   4.276  17.267  0.00  0.00    +0.000 A 
ATOM     30  C   UNL     1       4.930   4.269  15.933  0.00  0.00    +0.000 A 
BRANCH  25  32
ATOM     31  C   UNL     1       6.054   3.770  13.352  0.00  0.00    +0.000 C 
ATOM     32  O   UNL     1       6.845   4.344  14.384  0.00  0.00    +0.000 OA
ENDBRANCH  25  32
ENDBRANCH  24  29
ENDBRANCH   1  24
TORSDOF 5
ENDMDL
MODEL 3
REMARK VINA RESULT:      -7.9      2.370      9.541
REMARK  Name = 
REMARK  8 active torsions:
REMARK  status: ('A' for Active; 'I' for Inactive)
REMARK    1  A    between atoms: C_1  and  O_2
REMARK    2  A    between atoms: O_2  and  C_3
REMARK    3  A    between atoms: C_7  and  C_8
REMARK    4  A    between atoms: C_8  and  N_9
REMARK    5  A    between atoms: C_10  and  C_11
REMARK    6  A    between atoms: C_15  and  N_16
REMARK    7  A    between atoms: N_19  and  C_20
REMARK    8  A    between atoms: C_26  and  C_27
REMARK                            x       y       z     vdW  Elec       q    Type
REMARK                         _______ _______ _______ _____ _____    ______ ____
ROOT
ATOM      1  N   UNL     1      -1.328  11.618  21.147  0.00  0.00    +0.000 N 
ATOM      2  C   UNL     1      -1.646  11.426  22.478  0.00  0.00    +0.000 A 
ATOM      3  C   UNL     1      -2.590  12.261  23.263  0.00  0.00    +0.000 C 
ATOM      4  N   UNL     1      -0.973  10.402  22.974  0.00  0.00    +0.000 NA
ATOM      5  C   UNL     1      -0.198   9.936  21.951  0.00  0.00    +0.000 A 
ATOM      6  C   UNL     1       0.729   8.897  21.897  0.00  0.00    +0.000 A 
ATOM      7  C   UNL     1       1.409   8.648  20.697  0.00  0.00    +0.000 A 
ATOM      8  C   UNL     1       1.084   9.461  19.582  0.00  0.00    +0.000 A 
ATOM      9  C   UNL     1       1.716   9.310  18.226  0.00  0.00    +0.000 C 
ATOM     10  N   UNL     1       0.175  10.481  19.602  0.00  0.00    +0.000 NA
ATOM     11  C   UNL     1      -0.407  10.664  20.799  0.00  0.00    +0.000 A 
ENDROOT
BRANCH   7  12
ATOM     12  N   UNL     1       2.397   7.610  20.626  0.00  0.00    +0.000 N 
ATOM     13  C   UNL     1       2.234   6.413  19.932  0.00  0.00    +0.000 C 
ATOM     14  O   UNL     1       1.222   6.091  19.312  0.00  0.00    +0.000 OA
ATOM     15  N   UNL     1       3.320   5.558  20.065  0.00  0.00    +0.000 N 
ATOM     16  H   UNL     1       3.241   7.721  21.163  0.00  0.00    +0.000 HD
ATOM     17  H   UNL     1       3.764   5.586  20.970  0.00  0.00    +0.000 HD
BRANCH  15  18
ATOM     18  C   UNL     1       3.284   4.281  19.445  0.00  0.00    +0.000 A 
ATOM     19  C   UNL     1       3.930   4.034  18.228  0.00  0.00    +0.000 A 
ATOM     20  C   UNL     1       3.833   2.779  17.617  0.00  0.00    +0.000 A 
ATOM     21  C   UNL     1       3.074   1.770  18.212  0.00  0.00    +0.000 A 
ATOM     22  C   UNL     1       2.427   2.011  19.425  0.00  0.00    +0.000 A 
ATOM     23  C   UNL     1       2.551   3.256  20.051  0.00  0.00    +0.000 A 
ENDBRANCH  15  18
ENDBRANCH   7  12
BRANCH   1  24
ATOM     24  C   UNL     1      -1.782  12.682  20.264  0.00  0.00    +0.000 C 
BRANCH  24  29
ATOM     25  C   UNL     1      -3.943  11.390  17.390  0.00  0.00    +0.000 A 
ATOM     26  C   UNL     1      -5.224  11.610  17.899  0.00  0.00    +0.000 A 
ATOM     27  C   UNL     1      -5.397  12.128  19.181  0.00  0.00    +0.000 A 
ATOM     28  C   UNL     1      -4.284  12.457  19.951  0.00  0.00    +0.000 A 
ATOM     29  C   UNL     1      -2.987  12.277  19.449  0.00  0.00    +0.000 A 
ATOM     30  C   UNL     1      -2.829  11.705  18.174  0.00  0.00    +0.000 A 
BRANCH  25  32
ATOM     31  C   UNL     1      -2.914   9.910  15.840  0.00  0.00    +0.000 C 
ATOM     32  O   UNL     1      -3.914  10.882  16.120  0.00  0.00    +0.000 OA
ENDBRANCH  25  32
ENDBRANCH  24  29
ENDBRANCH   1  24
TORSDOF 5
ENDMDL
MODEL 4
REMARK VINA RESULT:      -7.7      2.353      9.813
REMARK  Name = 
REMARK  8 active torsions:
REMARK  status: ('A' for Active; 'I' for Inactive)
REMARK    1  A    between atoms: C_1  and  O_2
REMARK    2  A    between atoms: O_2  and  C_3
REMARK    3  A    between atoms: C_7  and  C_8
REMARK    4  A    between atoms: C_8  and  N_9
REMARK    5  A    between atoms: C_10  and  C_11
REMARK    6  A    between atoms: C_15  and  N_16
REMARK    7  A    between atoms: N_19  and  C_20
REMARK    8  A    between atoms: C_26  and  C_27
REMARK                            x       y       z     vdW  Elec       q    Type
REMARK                         _______ _______ _______ _____ _____    ______ ____
ROOT
ATOM      1  N   UNL     1      -1.277  11.552  21.055  0.00  0.00    +0.000 N 
ATOM      2  C   UNL     1      -1.584  11.361  22.389  0.00  0.00    +0.000 A 
ATOM      3  C   UNL     1      -2.527  12.192  23.179  0.00  0.00    +0.000 C 
ATOM      4  N   UNL     1      -0.900  10.342  22.882  0.00  0.00    +0.000 NA
ATOM      5  C   UNL     1      -0.130   9.879  21.854  0.00  0.00    +0.000 A 
ATOM      6  C   UNL     1       0.803   8.845  21.796  0.00  0.00    +0.000 A 
ATOM      7  C   UNL     1       1.476   8.597  20.592  0.00  0.00    +0.000 A 
ATOM      8  C   UNL     1       1.137   9.406  19.477  0.00  0.00    +0.000 A 
ATOM      9  C   UNL     1       1.760   9.256  18.117  0.00  0.00    +0.000 C 
ATOM     10  N   UNL     1       0.222  10.421  19.502  0.00  0.00    +0.000 NA
ATOM     11  C   UNL     1      -0.353  10.603  20.702  0.00  0.00    +0.000 A 
ENDROOT
BRANCH   7  12
ATOM     12  N   UNL     1       2.469   7.566  20.515  0.00  0.00    +0.000 N 
ATOM     13  C   UNL     1       2.310   6.368  19.822  0.00  0.00    +0.000 C 
ATOM     14  O   UNL     1       1.297   6.040  19.206  0.00  0.00    +0.000 OA
ATOM     15  N   UNL     1       3.401   5.519  19.950  0.00  0.00    +0.000 N 
ATOM     16  H   UNL     1       3.314   7.682  21.048  0.00  0.00    +0.000 HD
ATOM     17  H   UNL     1       3.850   5.550  20.852  0.00  0.00    +0.000 HD
BRANCH  15  18
ATOM     18  C   UNL     1       3.370   4.242  19.329  0.00  0.00    +0.000 A 
ATOM     19  C   UNL     1       2.876   3.112  19.993  0.00  0.00    +0.000 A 
ATOM     20  C   UNL     1       2.906   1.859  19.373  0.00  0.00    +0.000 A 
ATOM     21  C   UNL     1       3.448   1.726  18.093  0.00  0.00    +0.000 A 
ATOM     22  C   UNL     1       3.942   2.848  17.428  0.00  0.00    +0.000 A 
ATOM     23  C   UNL     1       3.882   4.106  18.036  0.00  0.00    +0.000 A 
ENDBRANCH  15  18
ENDBRANCH   7  12
BRANCH   1  24
ATOM     24  C   UNL     1      -1.744  12.611  20.173  0.00  0.00    +0.000 C 
BRANCH  24  29
ATOM     25  C   UNL     1      -5.356  11.980  19.097  0.00  0.00    +0.000 A 
ATOM     26  C   UNL     1      -5.161  11.327  17.879  0.00  0.00    +0.000 A 
ATOM     27  C   UNL     1      -3.876  11.130  17.379  0.00  0.00    +0.000 A 
ATOM     28  C   UNL     1      -2.773  11.562  18.112  0.00  0.00    +0.000 A 
ATOM     29  C   UNL     1      -2.941  12.190  19.354  0.00  0.00    +0.000 A 
ATOM     30  C   UNL     1      -4.246  12.428  19.821  0.00  0.00    +0.000 A 
BRANCH  25  32
ATOM     31  C   UNL     1      -7.019  11.576  20.745  0.00  0.00    +0.000 C 
ATOM     32  O   UNL     1      -6.664  12.105  19.474  0.00  0.00    +0.000 OA
ENDBRANCH  25  32
ENDBRANCH  24  29
ENDBRANCH   1  24
TORSDOF 5
ENDMDL
MODEL 5
REMARK VINA RESULT:      -7.7      6.112      8.034
REMARK  Name = 
REMARK  8 active torsions:
REMARK  status: ('A' for Active; 'I' for Inactive)
REMARK    1  A    between atoms: C_1  and  O_2
REMARK    2  A    between atoms: O_2  and  C_3
REMARK    3  A    between atoms: C_7  and  C_8
REMARK    4  A    between atoms: C_8  and  N_9
REMARK    5  A    between atoms: C_10  and  C_11
REMARK    6  A    between atoms: C_15  and  N_16
REMARK    7  A    between atoms: N_19  and  C_20
REMARK    8  A    between atoms: C_26  and  C_27
REMARK                            x       y       z     vdW  Elec       q    Type
REMARK                         _______ _______ _______ _____ _____    ______ ____
ROOT
ATOM      1  N   UNL     1       5.637   4.132  16.318  0.00  0.00    +0.000 N 
ATOM      2  C   UNL     1       5.631   4.707  15.062  0.00  0.00    +0.000 A 
ATOM      3  C   UNL     1       4.986   4.127  13.856  0.00  0.00    +0.000 C 
ATOM      4  N   UNL     1       6.305   5.845  15.067  0.00  0.00    +0.000 NA
ATOM      5  C   UNL     1       6.763   5.999  16.344  0.00  0.00    +0.000 A 
ATOM      6  C   UNL     1       7.549   6.992  16.927  0.00  0.00    +0.000 A 
ATOM      7  C   UNL     1       7.894   6.884  18.281  0.00  0.00    +0.000 A 
ATOM      8  C   UNL     1       7.389   5.769  18.997  0.00  0.00    +0.000 A 
ATOM      9  C   UNL     1       7.660   5.520  20.455  0.00  0.00    +0.000 C 
ATOM     10  N   UNL     1       6.611   4.784  18.455  0.00  0.00    +0.000 NA
ATOM     11  C   UNL     1       6.353   4.956  17.148  0.00  0.00    +0.000 A 
ENDROOT
BRANCH   7  12
ATOM     12  N   UNL     1       8.733   7.871  18.896  0.00  0.00    +0.000 N 
ATOM     13  C   UNL     1       8.669   9.237  18.630  0.00  0.00    +0.000 C 
ATOM     14  O   UNL     1       7.898   9.763  17.829  0.00  0.00    +0.000 OA
ATOM     15  N   UNL     1       9.626   9.969  19.319  0.00  0.00    +0.000 N 
ATOM     16  H   UNL     1       9.463   7.555  19.512  0.00  0.00    +0.000 HD
ATOM     17  H   UNL     1      10.510   9.496  19.433  0.00  0.00    +0.000 HD
BRANCH  15  18
ATOM     18  C   UNL     1       9.709  11.373  19.122  0.00  0.00    +0.000 A 
ATOM     19  C   UNL     1       9.146  12.279  20.028  0.00  0.00    +0.000 A 
ATOM     20  C   UNL     1       9.200  13.655  19.779  0.00  0.00    +0.000 A 
ATOM     21  C   UNL     1       9.802  14.130  18.612  0.00  0.00    +0.000 A 
ATOM     22  C   UNL     1      10.364  13.231  17.705  0.00  0.00    +0.000 A 
ATOM     23  C   UNL     1      10.338  11.858  17.971  0.00  0.00    +0.000 A 
ENDBRANCH  15  18
ENDBRANCH   7  12
BRANCH   1  24
ATOM     24  C   UNL     1       5.087   2.845  16.715  0.00  0.00    +0.000 C 
BRANCH  24  29
ATOM     25  C   UNL     1       2.631   2.577  19.630  0.00  0.00    +0.000 A 
ATOM     26  C   UNL     1       1.495   3.170  19.078  0.00  0.00    +0.000 A 
ATOM     27  C   UNL     1       1.528   3.699  17.789  0.00  0.00    +0.000 A 
ATOM     28  C   UNL     1       2.695   3.610  17.033  0.00  0.00    +0.000 A 
ATOM     29  C   UNL     1       3.839   2.988  17.554  0.00  0.00    +0.000 A 
ATOM     30  C   UNL     1       3.805   2.505  18.874  0.00  0.00    +0.000 A 
BRANCH  25  32
ATOM     31  C   UNL     1       1.562   2.803  21.741  0.00  0.00    +0.000 C 
ATOM     32  O   UNL     1       2.463   2.095  20.900  0.00  0.00    +0.000 OA
ENDBRANCH  25  32
ENDBRANCH  24  29
ENDBRANCH   1  24
TORSDOF 5
ENDMDL
MODEL 6
REMARK VINA RESULT:      -7.5      2.633      4.167
REMARK  Name = 
REMARK  8 active torsions:
REMARK  status: ('A' for Active; 'I' for Inactive)
REMARK    1  A    between atoms: C_1  and  O_2
REMARK    2  A    between atoms: O_2  and  C_3
REMARK    3  A    between atoms: C_7  and  C_8
REMARK    4  A    between atoms: C_8  and  N_9
REMARK    5  A    between atoms: C_10  and  C_11
REMARK    6  A    between atoms: C_15  and  N_16
REMARK    7  A    between atoms: N_19  and  C_20
REMARK    8  A    between atoms: C_26  and  C_27
REMARK                            x       y       z     vdW  Elec       q    Type
REMARK                         _______ _______ _______ _____ _____    ______ ____
ROOT
ATOM      1  N   UNL     1       3.806   6.672  18.311  0.00  0.00    +0.000 N 
ATOM      2  C   UNL     1       4.153   7.069  17.033  0.00  0.00    +0.000 A 
ATOM      3  C   UNL     1       5.206   6.440  16.197  0.00  0.00    +0.000 C 
ATOM      4  N   UNL     1       3.431   8.111  16.657  0.00  0.00    +0.000 NA
ATOM      5  C   UNL     1       2.616   8.399  17.714  0.00  0.00    +0.000 A 
ATOM      6  C   UNL     1       1.667   9.403  17.898  0.00  0.00    +0.000 A 
ATOM      7  C   UNL     1       0.978   9.479  19.116  0.00  0.00    +0.000 A 
ATOM      8  C   UNL     1       1.269   8.492  20.093  0.00  0.00    +0.000 A 
ATOM      9  C   UNL     1       0.607   8.431  21.441  0.00  0.00    +0.000 C 
ATOM     10  N   UNL     1       2.188   7.492  19.938  0.00  0.00    +0.000 NA
ATOM     11  C   UNL     1       2.818   7.514  18.752  0.00  0.00    +0.000 A 
ENDROOT
BRANCH   7  12
ATOM     12  N   UNL     1       0.026  10.525  19.346  0.00  0.00    +0.000 N 
ATOM     13  C   UNL     1      -1.278  10.528  18.855  0.00  0.00    +0.000 C 
ATOM     14  O   UNL     1      -1.768   9.644  18.153  0.00  0.00    +0.000 OA
ATOM     15  N   UNL     1      -1.977  11.683  19.178  0.00  0.00    +0.000 N 
ATOM     16  H   UNL     1       0.333  11.346  19.841  0.00  0.00    +0.000 HD
ATOM     17  H   UNL     1      -1.416  12.521  19.186  0.00  0.00    +0.000 HD
BRANCH  15  18
ATOM     18  C   UNL     1      -3.309  11.847  18.714  0.00  0.00    +0.000 A 
ATOM     19  C   UNL     1      -4.344  12.243  19.569  0.00  0.00    +0.000 A 
ATOM     20  C   UNL     1      -5.656  12.347  19.093  0.00  0.00    +0.000 A 
ATOM     21  C   UNL     1      -5.941  12.036  17.762  0.00  0.00    +0.000 A 
ATOM     22  C   UNL     1      -4.913  11.640  16.905  0.00  0.00    +0.000 A 
ATOM     23  C   UNL     1      -3.597  11.568  17.375  0.00  0.00    +0.000 A 
ENDBRANCH  15  18
ENDBRANCH   7  12
BRANCH   1  24
ATOM     24  C   UNL     1       4.416   5.628  19.119  0.00  0.00    +0.000 C 
BRANCH  24  29
ATOM     25  C   UNL     1       2.225   2.586  19.859  0.00  0.00    +0.000 A 
ATOM     26  C   UNL     1       2.475   1.797  18.736  0.00  0.00    +0.000 A 
ATOM     27  C   UNL     1       3.308   2.258  17.718  0.00  0.00    +0.000 A 
ATOM     28  C   UNL     1       3.920   3.504  17.834  0.00  0.00    +0.000 A 
ATOM     29  C   UNL     1       3.711   4.301  18.970  0.00  0.00    +0.000 A 
ATOM     30  C   UNL     1       2.828   3.843  19.964  0.00  0.00    +0.000 A 
BRANCH  25  32
ATOM     31  C   UNL     1       1.284   2.672  22.040  0.00  0.00    +0.000 C 
ATOM     32  O   UNL     1       1.395   2.015  20.784  0.00  0.00    +0.000 OA
ENDBRANCH  25  32
ENDBRANCH  24  29
ENDBRANCH   1  24
TORSDOF 5
ENDMDL
MODEL 7
REMARK VINA RESULT:      -7.5      2.117      2.565
REMARK  Name = 
REMARK  8 active torsions:
REMARK  status: ('A' for Active; 'I' for Inactive)
REMARK    1  A    between atoms: C_1  and  O_2
REMARK    2  A    between atoms: O_2  and  C_3
REMARK    3  A    between atoms: C_7  and  C_8
REMARK    4  A    between atoms: C_8  and  N_9
REMARK    5  A    between atoms: C_10  and  C_11
REMARK    6  A    between atoms: C_15  and  N_16
REMARK    7  A    between atoms: N_19  and  C_20
REMARK    8  A    between atoms: C_26  and  C_27
REMARK                            x       y       z     vdW  Elec       q    Type
REMARK                         _______ _______ _______ _____ _____    ______ ____
ROOT
ATOM      1  N   UNL     1       3.015   5.672  19.207  0.00  0.00    +0.000 N 
ATOM      2  C   UNL     1       2.615   4.887  20.272  0.00  0.00    +0.000 A 
ATOM      3  C   UNL     1       3.071   3.497  20.531  0.00  0.00    +0.000 C 
ATOM      4  N   UNL     1       1.743   5.534  21.026  0.00  0.00    +0.000 NA
ATOM      5  C   UNL     1       1.568   6.750  20.431  0.00  0.00    +0.000 A 
ATOM      6  C   UNL     1       0.752   7.830  20.765  0.00  0.00    +0.000 A 
ATOM      7  C   UNL     1       0.756   8.968  19.947  0.00  0.00    +0.000 A 
ATOM      8  C   UNL     1       1.628   8.967  18.829  0.00  0.00    +0.000 A 
ATOM      9  C   UNL     1       1.755  10.115  17.867  0.00  0.00    +0.000 C 
ATOM     10  N   UNL     1       2.445   7.927  18.482  0.00  0.00    +0.000 NA
ATOM     11  C   UNL     1       2.356   6.869  19.305  0.00  0.00    +0.000 A 
ENDROOT
BRANCH   7  12
ATOM     12  N   UNL     1      -0.103  10.077  20.245  0.00  0.00    +0.000 N 
ATOM     13  C   UNL     1       0.262  11.169  21.029  0.00  0.00    +0.000 C 
ATOM     14  O   UNL     1       1.356  11.311  21.574  0.00  0.00    +0.000 OA
ATOM     15  N   UNL     1      -0.772  12.079  21.206  0.00  0.00    +0.000 N 
ATOM     16  H   UNL     1      -1.056  10.039  19.923  0.00  0.00    +0.000 HD
ATOM     17  H   UNL     1      -1.687  11.662  21.278  0.00  0.00    +0.000 HD
BRANCH  15  18
ATOM     18  C   UNL     1      -0.561  13.228  22.015  0.00  0.00    +0.000 A 
ATOM     19  C   UNL     1      -1.276  13.434  23.201  0.00  0.00    +0.000 A 
ATOM     20  C   UNL     1      -1.083  14.600  23.950  0.00  0.00    +0.000 A 
ATOM     21  C   UNL     1      -0.188  15.574  23.505  0.00  0.00    +0.000 A 
ATOM     22  C   UNL     1       0.527  15.374  22.323  0.00  0.00    +0.000 A 
ATOM     23  C   UNL     1       0.356  14.194  21.593  0.00  0.00    +0.000 A 
ENDBRANCH  15  18
ENDBRANCH   7  12
BRANCH   1  24
ATOM     24  C   UNL     1       3.892   5.305  18.106  0.00  0.00    +0.000 C 
BRANCH  24  29
ATOM     25  C   UNL     1       7.174   7.229  17.747  0.00  0.00    +0.000 A 
ATOM     26  C   UNL     1       7.979   6.559  18.669  0.00  0.00    +0.000 A 
ATOM     27  C   UNL     1       7.458   5.521  19.440  0.00  0.00    +0.000 A 
ATOM     28  C   UNL     1       6.133   5.129  19.271  0.00  0.00    +0.000 A 
ATOM     29  C   UNL     1       5.314   5.765  18.326  0.00  0.00    +0.000 A 
ATOM     30  C   UNL     1       5.839   6.844  17.593  0.00  0.00    +0.000 A 
BRANCH  25  32
ATOM     31  C   UNL     1       8.185   9.380  17.789  0.00  0.00    +0.000 C 
ATOM     32  O   UNL     1       7.808   8.223  17.053  0.00  0.00    +0.000 OA
ENDBRANCH  25  32
ENDBRANCH  24  29
ENDBRANCH   1  24
TORSDOF 5
ENDMDL
MODEL 8
REMARK VINA RESULT:      -7.4      2.663      4.378
REMARK  Name = 
REMARK  8 active torsions:
REMARK  status: ('A' for Active; 'I' for Inactive)
REMARK    1  A    between atoms: C_1  and  O_2
REMARK    2  A    between atoms: O_2  and  C_3
REMARK    3  A    between atoms: C_7  and  C_8
REMARK    4  A    between atoms: C_8  and  N_9
REMARK    5  A    between atoms: C_10  and  C_11
REMARK    6  A    between atoms: C_15  and  N_16
REMARK    7  A    between atoms: N_19  and  C_20
REMARK    8  A    between atoms: C_26  and  C_27
REMARK                            x       y       z     vdW  Elec       q    Type
REMARK                         _______ _______ _______ _____ _____    ______ ____
ROOT
ATOM      1  N   UNL     1       2.618   7.368  19.216  0.00  0.00    +0.000 N 
ATOM      2  C   UNL     1       2.887   7.784  17.925  0.00  0.00    +0.000 A 
ATOM      3  C   UNL     1       3.851   7.137  17.000  0.00  0.00    +0.000 C 
ATOM      4  N   UNL     1       2.181   8.862  17.627  0.00  0.00    +0.000 NA
ATOM      5  C   UNL     1       1.457   9.153  18.747  0.00  0.00    +0.000 A 
ATOM      6  C   UNL     1       0.565  10.188  19.023  0.00  0.00    +0.000 A 
ATOM      7  C   UNL     1      -0.031  10.258  20.290  0.00  0.00    +0.000 A 
ATOM      8  C   UNL     1       0.291   9.237  21.220  0.00  0.00    +0.000 A 
ATOM      9  C   UNL     1      -0.274   9.166  22.611  0.00  0.00    +0.000 C 
ATOM     10  N   UNL     1       1.155   8.207  20.975  0.00  0.00    +0.000 NA
ATOM     11  C   UNL     1       1.698   8.235  19.747  0.00  0.00    +0.000 A 
ENDROOT
BRANCH   7  12
ATOM     12  N   UNL     1      -0.922  11.334  20.613  0.00  0.00    +0.000 N 
ATOM     13  C   UNL     1      -0.561  12.465  21.343  0.00  0.00    +0.000 C 
ATOM     14  O   UNL     1       0.558  12.673  21.811  0.00  0.00    +0.000 OA
ATOM     15  N   UNL     1      -1.623  13.331  21.562  0.00  0.00    +0.000 N 
ATOM     16  H   UNL     1      -1.890  11.242  20.355  0.00  0.00    +0.000 HD
ATOM     17  H   UNL     1      -2.511  12.873  21.705  0.00  0.00    +0.000 HD
BRANCH  15  18
ATOM     18  C   UNL     1      -1.418  14.511  22.325  0.00  0.00    +0.000 A 
ATOM     19  C   UNL     1      -1.482  14.505  23.724  0.00  0.00    +0.000 A 
ATOM     20  C   UNL     1      -1.325  15.694  24.444  0.00  0.00    +0.000 A 
ATOM     21  C   UNL     1      -1.123  16.898  23.768  0.00  0.00    +0.000 A 
ATOM     22  C   UNL     1      -1.059  16.910  22.374  0.00  0.00    +0.000 A 
ATOM     23  C   UNL     1      -1.184  15.716  21.656  0.00  0.00    +0.000 A 
ENDBRANCH  15  18
ENDBRANCH   7  12
BRANCH   1  24
ATOM     24  C   UNL     1       3.243   6.281  19.953  0.00  0.00    +0.000 C 
BRANCH  24  29
ATOM     25  C   UNL     1       2.315   2.813  18.644  0.00  0.00    +0.000 A 
ATOM     26  C   UNL     1       1.131   2.572  19.342  0.00  0.00    +0.000 A 
ATOM     27  C   UNL     1       0.653   3.499  20.266  0.00  0.00    +0.000 A 
ATOM     28  C   UNL     1       1.346   4.688  20.477  0.00  0.00    +0.000 A 
ATOM     29  C   UNL     1       2.520   4.968  19.763  0.00  0.00    +0.000 A 
ATOM     30  C   UNL     1       3.017   4.001  18.871  0.00  0.00    +0.000 A 
BRANCH  25  32
ATOM     31  C   UNL     1       3.898   1.155  18.015  0.00  0.00    +0.000 C 
ATOM     32  O   UNL     1       2.670   1.827  17.765  0.00  0.00    +0.000 OA
ENDBRANCH  25  32
ENDBRANCH  24  29
ENDBRANCH   1  24
TORSDOF 5
ENDMDL
MODEL 9
REMARK VINA RESULT:      -7.3      2.220     10.355
REMARK  Name = 
REMARK  8 active torsions:
REMARK  status: ('A' for Active; 'I' for Inactive)
REMARK    1  A    between atoms: C_1  and  O_2
REMARK    2  A    between atoms: O_2  and  C_3
REMARK    3  A    between atoms: C_7  and  C_8
REMARK    4  A    between atoms: C_8  and  N_9
REMARK    5  A    between atoms: C_10  and  C_11
REMARK    6  A    between atoms: C_15  and  N_16
REMARK    7  A    between atoms: N_19  and  C_20
REMARK    8  A    between atoms: C_26  and  C_27
REMARK                            x       y       z     vdW  Elec       q    Type
REMARK                         _______ _______ _______ _____ _____    ______ ____
ROOT
ATOM      1  N   UNL     1      -0.362  13.266  20.696  0.00  0.00    +0.000 N 
ATOM      2  C   UNL     1       0.039  13.501  19.395  0.00  0.00    +0.000 A 
ATOM      3  C   UNL     1      -0.204  14.755  18.637  0.00  0.00    +0.000 C 
ATOM      4  N   UNL     1       0.653  12.441  18.898  0.00  0.00    +0.000 NA
ATOM      5  C   UNL     1       0.636  11.503  19.890  0.00  0.00    +0.000 A 
ATOM      6  C   UNL     1       1.110  10.193  19.926  0.00  0.00    +0.000 A 
ATOM      7  C   UNL     1       0.936   9.434  21.092  0.00  0.00    +0.000 A 
ATOM      8  C   UNL     1       0.305  10.066  22.194  0.00  0.00    +0.000 A 
ATOM      9  C   UNL     1       0.058   9.391  23.514  0.00  0.00    +0.000 C 
ATOM     10  N   UNL     1      -0.163  11.350  22.190  0.00  0.00    +0.000 NA
ATOM     11  C   UNL     1       0.023  11.991  21.024  0.00  0.00    +0.000 A 
ENDROOT
BRANCH   7  12
ATOM     12  N   UNL     1       1.379   8.071  21.143  0.00  0.00    +0.000 N 
ATOM     13  C   UNL     1       2.013   7.408  20.094  0.00  0.00    +0.000 C 
ATOM     14  O   UNL     1       2.257   7.902  18.994  0.00  0.00    +0.000 OA
ATOM     15  N   UNL     1       2.292   6.079  20.383  0.00  0.00    +0.000 N 
ATOM     16  H   UNL     1       1.163   7.533  21.965  0.00  0.00    +0.000 HD
ATOM     17  H   UNL     1       1.596   5.622  20.952  0.00  0.00    +0.000 HD
BRANCH  15  18
ATOM     18  C   UNL     1       2.904   5.263  19.395  0.00  0.00    +0.000 A 
ATOM     19  C   UNL     1       4.296   5.139  19.300  0.00  0.00    +0.000 A 
ATOM     20  C   UNL     1       4.869   4.367  18.284  0.00  0.00    +0.000 A 
ATOM     21  C   UNL     1       4.054   3.730  17.347  0.00  0.00    +0.000 A 
ATOM     22  C   UNL     1       2.667   3.851  17.437  0.00  0.00    +0.000 A 
ATOM     23  C   UNL     1       2.093   4.596  18.472  0.00  0.00    +0.000 A 
ENDBRANCH  15  18
ENDBRANCH   7  12
BRANCH   1  24
ATOM     24  C   UNL     1      -1.138  14.138  21.565  0.00  0.00    +0.000 C 
BRANCH  24  29
ATOM     25  C   UNL     1      -4.681  12.882  20.881  0.00  0.00    +0.000 A 
ATOM     26  C   UNL     1      -5.182  12.775  22.180  0.00  0.00    +0.000 A 
ATOM     27  C   UNL     1      -4.371  13.060  23.277  0.00  0.00    +0.000 A 
ATOM     28  C   UNL     1      -3.058  13.482  23.077  0.00  0.00    +0.000 A 
ATOM     29  C   UNL     1      -2.543  13.630  21.781  0.00  0.00    +0.000 A 
ATOM     30  C   UNL     1      -3.358  13.289  20.687  0.00  0.00    +0.000 A 
BRANCH  25  32
ATOM     31  C   UNL     1      -6.603  11.647  20.226  0.00  0.00    +0.000 C 
ATOM     32  O   UNL     1      -5.580  12.578  19.896  0.00  0.00    +0.000 OA
ENDBRANCH  25  32
ENDBRANCH  24  29
ENDBRANCH   1  24
TORSDOF 5
ENDMDL
