MODEL 1
REMARK VINA RESULT:      -7.8      0.000      0.000
REMARK  Name = 
REMARK  9 active torsions:
REMARK  status: ('A' for Active; 'I' for Inactive)
REMARK    1  A    between atoms: C_2  and  C_3
REMARK    2  A    between atoms: C_7  and  N_8
REMARK    3  A    between atoms: N_11  and  C_12
REMARK    4  A    between atoms: C_15  and  C_16
REMARK    5  A    between atoms: C_16  and  O_17
REMARK    6  A    between atoms: C_19  and  C_20
REMARK    7  A    between atoms: C_20  and  N_21
REMARK    8  A    between atoms: C_24  and  C_25
REMARK    9  A    between atoms: C_25  and  C_26
REMARK                            x       y       z     vdW  Elec       q    Type
REMARK                         _______ _______ _______ _____ _____    ______ ____
ROOT
ATOM      1  C   UNL     1      -0.447  12.628  18.207  0.00  0.00    +0.000 A 
ATOM      2  C   UNL     1      -0.202  13.971  18.510  0.00  0.00    +0.000 A 
ATOM      3  C   UNL     1       0.923  14.368  19.282  0.00  0.00    +0.000 A 
ATOM      4  C   UNL     1       1.812  13.434  19.819  0.00  0.00    +0.000 A 
ATOM      5  C   UNL     1       1.618  12.101  19.468  0.00  0.00    +0.000 A 
ATOM      6  C   UNL     1       0.543  11.684  18.630  0.00  0.00    +0.000 A 
ENDROOT
BRANCH   1  10
ATOM      7  N   UNL     1      -3.609  12.435  18.837  0.00  0.00    +0.000 N 
ATOM      8  C   UNL     1      -2.958  11.958  17.728  0.00  0.00    +0.000 C 
ATOM      9  O   UNL     1      -3.549  11.339  16.838  0.00  0.00    +0.000 OA
ATOM     10  N   UNL     1      -1.610  12.151  17.532  0.00  0.00    +0.000 N 
ATOM     11  H   UNL     1      -3.275  13.334  19.139  0.00  0.00    +0.000 HD
ATOM     12  H   UNL     1      -1.392  11.733  16.633  0.00  0.00    +0.000 HD
BRANCH   7  17
ATOM     13  C   UNL     1      -6.893  10.764  19.827  0.00  0.00    +0.000 A 
ATOM     14  C   UNL     1      -7.765  11.856  19.773  0.00  0.00    +0.000 A 
ATOM     15  C   UNL     1      -7.271  13.102  19.379  0.00  0.00    +0.000 A 
ATOM     16  C   UNL     1      -5.901  13.263  19.071  0.00  0.00    +0.000 A 
ATOM     17  C   UNL     1      -5.010  12.183  19.107  0.00  0.00    +0.000 A 
ATOM     18  C   UNL     1      -5.527  10.923  19.469  0.00  0.00    +0.000 A 
BRANCH  13  20
ATOM     19  N   UNL     1      -7.805   8.470  20.664  0.00  0.00    +0.000 NA
ATOM     20  C   UNL     1      -7.390   9.497  20.280  0.00  0.00    +0.000 C 
ENDBRANCH  13  20
ENDBRANCH   7  17
ENDBRANCH   1  10
BRANCH   4  21
ATOM     21  C   UNL     1       2.967  13.815  20.717  0.00  0.00    +0.000 C 
BRANCH  21  22
ATOM     22  O   UNL     1       3.963  14.527  19.989  0.00  0.00    +0.000 OA
ATOM     23  H   UNL     1       4.726  14.641  20.582  0.00  0.00    +0.000 HD
ENDBRANCH  21  22
ENDBRANCH   4  21
BRANCH   6  24
ATOM     24  C   UNL     1       0.545  10.194  18.289  0.00  0.00    +0.000 C 
BRANCH  24  25
ATOM     25  N   UNL     1       1.431   9.330  19.130  0.00  0.00    +0.000 NA
ATOM     26  C   UNL     1       0.708   8.803  20.296  0.00  0.00    +0.000 C 
ATOM     27  C   UNL     1       1.452   7.745  21.123  0.00  0.00    +0.000 C 
ATOM     28  C   UNL     1       2.156   6.618  20.360  0.00  0.00    +0.000 C 
ATOM     29  C   UNL     1       2.640   7.061  18.964  0.00  0.00    +0.000 C 
ATOM     30  C   UNL     1       1.944   8.246  18.281  0.00  0.00    +0.000 C 
BRANCH  28  31
ATOM     31  C   UNL     1       1.399   5.261  20.337  0.00  0.00    +0.000 C 
BRANCH  31  32
ATOM     32  C   UNL     1       2.096   4.073  19.681  0.00  0.00    +0.000 A 
ATOM     33  C   UNL     1       3.265   3.553  20.251  0.00  0.00    +0.000 A 
ATOM     34  C   UNL     1       3.886   2.412  19.714  0.00  0.00    +0.000 A 
ATOM     35  C   UNL     1       3.333   1.782  18.613  0.00  0.00    +0.000 A 
ATOM     36  F   UNL     1       3.916   0.686  18.107  0.00  0.00    +0.000 F 
ATOM     37  C   UNL     1       2.170   2.276  18.027  0.00  0.00    +0.000 A 
ATOM     38  C   UNL     1       1.563   3.417  18.555  0.00  0.00    +0.000 A 
ENDBRANCH  31  32
ENDBRANCH  28  31
ENDBRANCH  24  25
ENDBRANCH   6  24
TORSDOF 9
ENDMDL
MODEL 2
REMARK VINA RESULT:      -7.8      4.008     10.008
REMARK  Name = 
REMARK  9 active torsions:
REMARK  status: ('A' for Active; 'I' for Inactive)
REMARK    1  A    between atoms: C_2  and  C_3
REMARK    2  A    between atoms: C_7  and  N_8
REMARK    3  A    between atoms: N_11  and  C_12
REMARK    4  A    between atoms: C_15  and  C_16
REMARK    5  A    between atoms: C_16  and  O_17
REMARK    6  A    between atoms: C_19  and  C_20
REMARK    7  A    between atoms: C_20  and  N_21
REMARK    8  A    between atoms: C_24  and  C_25
REMARK    9  A    between atoms: C_25  and  C_26
REMARK                            x       y       z     vdW  Elec       q    Type
REMARK                         _______ _______ _______ _____ _____    ______ ____
ROOT
ATOM      1  C   UNL     1       1.040   9.372  19.742  0.00  0.00    +0.000 A 
ATOM      2  C   UNL     1       1.153   8.774  21.002  0.00  0.00    +0.000 A 
ATOM      3  C   UNL     1       0.410   9.242  22.118  0.00  0.00    +0.000 A 
ATOM      4  C   UNL     1      -0.431  10.354  22.028  0.00  0.00    +0.000 A 
ATOM      5  C   UNL     1      -0.603  10.915  20.765  0.00  0.00    +0.000 A 
ATOM      6  C   UNL     1       0.068  10.416  19.612  0.00  0.00    +0.000 A 
ENDROOT
BRANCH   1  10
ATOM      7  N   UNL     1       2.365   6.680  18.545  0.00  0.00    +0.000 N 
ATOM      8  C   UNL     1       2.496   7.954  18.053  0.00  0.00    +0.000 C 
ATOM      9  O   UNL     1       3.207   8.208  17.076  0.00  0.00    +0.000 OA
ATOM     10  N   UNL     1       1.834   9.023  18.608  0.00  0.00    +0.000 N 
ATOM     11  H   UNL     1       1.434   6.467  18.859  0.00  0.00    +0.000 HD
ATOM     12  H   UNL     1       2.075   9.831  18.043  0.00  0.00    +0.000 HD
BRANCH   7  17
ATOM     13  C   UNL     1       5.184   4.387  17.378  0.00  0.00    +0.000 A 
ATOM     14  C   UNL     1       4.479   3.198  17.169  0.00  0.00    +0.000 A 
ATOM     15  C   UNL     1       3.097   3.181  17.376  0.00  0.00    +0.000 A 
ATOM     16  C   UNL     1       2.427   4.342  17.823  0.00  0.00    +0.000 A 
ATOM     17  C   UNL     1       3.108   5.548  18.029  0.00  0.00    +0.000 A 
ATOM     18  C   UNL     1       4.495   5.564  17.781  0.00  0.00    +0.000 A 
BRANCH  13  20
ATOM     19  N   UNL     1       7.771   4.381  17.067  0.00  0.00    +0.000 NA
ATOM     20  C   UNL     1       6.609   4.392  17.214  0.00  0.00    +0.000 C 
ENDBRANCH  13  20
ENDBRANCH   7  17
ENDBRANCH   1  10
BRANCH   4  21
ATOM     21  C   UNL     1      -1.167  10.932  23.215  0.00  0.00    +0.000 C 
BRANCH  21  22
ATOM     22  O   UNL     1      -0.807  12.295  23.420  0.00  0.00    +0.000 OA
ATOM     23  H   UNL     1       0.087  12.415  23.056  0.00  0.00    +0.000 HD
ENDBRANCH  21  22
ENDBRANCH   4  21
BRANCH   6  24
ATOM     24  C   UNL     1      -0.314  11.107  18.305  0.00  0.00    +0.000 C 
BRANCH  24  25
ATOM     25  N   UNL     1      -1.473  10.518  17.566  0.00  0.00    +0.000 NA
ATOM     26  C   UNL     1      -2.554  10.138  18.488  0.00  0.00    +0.000 C 
ATOM     27  C   UNL     1      -3.873   9.709  17.831  0.00  0.00    +0.000 C 
ATOM     28  C   UNL     1      -4.409  10.576  16.687  0.00  0.00    +0.000 C 
ATOM     29  C   UNL     1      -3.284  11.270  15.894  0.00  0.00    +0.000 C 
ATOM     30  C   UNL     1      -1.931  11.507  16.579  0.00  0.00    +0.000 C 
BRANCH  28  31
ATOM     31  C   UNL     1      -5.563  11.542  17.074  0.00  0.00    +0.000 C 
BRANCH  31  32
ATOM     32  C   UNL     1      -5.993  11.580  18.538  0.00  0.00    +0.000 A 
ATOM     33  C   UNL     1      -5.396  12.495  19.414  0.00  0.00    +0.000 A 
ATOM     34  C   UNL     1      -5.825  12.606  20.748  0.00  0.00    +0.000 A 
ATOM     35  C   UNL     1      -6.860  11.811  21.206  0.00  0.00    +0.000 A 
ATOM     36  F   UNL     1      -7.280  11.923  22.473  0.00  0.00    +0.000 F 
ATOM     37  C   UNL     1      -7.473  10.892  20.356  0.00  0.00    +0.000 A 
ATOM     38  C   UNL     1      -7.036  10.775  19.035  0.00  0.00    +0.000 A 
ENDBRANCH  31  32
ENDBRANCH  28  31
ENDBRANCH  24  25
ENDBRANCH   6  24
TORSDOF 9
ENDMDL
MODEL 3
REMARK VINA RESULT:      -7.8      4.255      7.157
REMARK  Name = 
REMARK  9 active torsions:
REMARK  status: ('A' for Active; 'I' for Inactive)
REMARK    1  A    between atoms: C_2  and  C_3
REMARK    2  A    between atoms: C_7  and  N_8
REMARK    3  A    between atoms: N_11  and  C_12
REMARK    4  A    between atoms: C_15  and  C_16
REMARK    5  A    between atoms: C_16  and  O_17
REMARK    6  A    between atoms: C_19  and  C_20
REMARK    7  A    between atoms: C_20  and  N_21
REMARK    8  A    between atoms: C_24  and  C_25
REMARK    9  A    between atoms: C_25  and  C_26
REMARK                            x       y       z     vdW  Elec       q    Type
REMARK                         _______ _______ _______ _____ _____    ______ ____
ROOT
ATOM      1  C   UNL     1       1.764   5.920  20.511  0.00  0.00    +0.000 A 
ATOM      2  C   UNL     1       1.206   4.798  21.132  0.00  0.00    +0.000 A 
ATOM      3  C   UNL     1       1.002   3.581  20.428  0.00  0.00    +0.000 A 
ATOM      4  C   UNL     1       1.297   3.459  19.069  0.00  0.00    +0.000 A 
ATOM      5  C   UNL     1       1.915   4.547  18.457  0.00  0.00    +0.000 A 
ATOM      6  C   UNL     1       2.205   5.752  19.159  0.00  0.00    +0.000 A 
ENDROOT
BRANCH   1  10
ATOM      7  N   UNL     1       0.094   8.684  20.554  0.00  0.00    +0.000 N 
ATOM      8  C   UNL     1       1.302   8.440  21.157  0.00  0.00    +0.000 C 
ATOM      9  O   UNL     1       1.916   9.318  21.770  0.00  0.00    +0.000 OA
ATOM     10  N   UNL     1       1.897   7.201  21.125  0.00  0.00    +0.000 N 
ATOM     11  H   UNL     1      -0.552   7.918  20.630  0.00  0.00    +0.000 HD
ATOM     12  H   UNL     1       2.752   7.283  21.667  0.00  0.00    +0.000 HD
BRANCH   7  17
ATOM     13  C   UNL     1      -1.202  12.148  21.497  0.00  0.00    +0.000 A 
ATOM     14  C   UNL     1      -1.595  12.626  20.244  0.00  0.00    +0.000 A 
ATOM     15  C   UNL     1      -1.464  11.797  19.127  0.00  0.00    +0.000 A 
ATOM     16  C   UNL     1      -0.910  10.503  19.259  0.00  0.00    +0.000 A 
ATOM     17  C   UNL     1      -0.520   9.997  20.505  0.00  0.00    +0.000 A 
ATOM     18  C   UNL     1      -0.692  10.828  21.630  0.00  0.00    +0.000 A 
BRANCH  13  20
ATOM     19  N   UNL     1      -1.346  13.719  23.572  0.00  0.00    +0.000 NA
ATOM     20  C   UNL     1      -1.289  13.017  22.635  0.00  0.00    +0.000 C 
ENDBRANCH  13  20
ENDBRANCH   7  17
ENDBRANCH   1  10
BRANCH   4  21
ATOM     21  C   UNL     1       1.010   2.209  18.269  0.00  0.00    +0.000 C 
BRANCH  21  22
ATOM     22  O   UNL     1       2.201   1.457  18.056  0.00  0.00    +0.000 OA
ATOM     23  H   UNL     1       2.034   0.860  17.306  0.00  0.00    +0.000 HD
ENDBRANCH  21  22
ENDBRANCH   4  21
BRANCH   6  24
ATOM     24  C   UNL     1       2.960   6.798  18.341  0.00  0.00    +0.000 C 
BRANCH  24  25
ATOM     25  N   UNL     1       4.443   6.836  18.534  0.00  0.00    +0.000 NA
ATOM     26  C   UNL     1       4.945   5.554  19.051  0.00  0.00    +0.000 C 
ATOM     27  C   UNL     1       6.471   5.405  19.100  0.00  0.00    +0.000 C 
ATOM     28  C   UNL     1       7.265   5.843  17.865  0.00  0.00    +0.000 C 
ATOM     29  C   UNL     1       6.576   6.988  17.096  0.00  0.00    +0.000 C 
ATOM     30  C   UNL     1       5.059   7.171  17.242  0.00  0.00    +0.000 C 
BRANCH  28  31
ATOM     31  C   UNL     1       7.740   4.690  16.939  0.00  0.00    +0.000 C 
BRANCH  31  32
ATOM     32  C   UNL     1       6.956   4.447  15.654  0.00  0.00    +0.000 A 
ATOM     33  C   UNL     1       7.531   4.766  14.418  0.00  0.00    +0.000 A 
ATOM     34  C   UNL     1       6.864   4.482  13.213  0.00  0.00    +0.000 A 
ATOM     35  C   UNL     1       5.626   3.867  13.242  0.00  0.00    +0.000 A 
ATOM     36  F   UNL     1       4.993   3.583  12.095  0.00  0.00    +0.000 F 
ATOM     37  C   UNL     1       5.030   3.536  14.457  0.00  0.00    +0.000 A 
ATOM     38  C   UNL     1       5.689   3.831  15.652  0.00  0.00    +0.000 A 
ENDBRANCH  31  32
ENDBRANCH  28  31
ENDBRANCH  24  25
ENDBRANCH   6  24
TORSDOF 9
ENDMDL
MODEL 4
REMARK VINA RESULT:      -7.6      2.691      6.899
REMARK  Name = 
REMARK  9 active torsions:
REMARK  status: ('A' for Active; 'I' for Inactive)
REMARK    1  A    between atoms: C_2  and  C_3
REMARK    2  A    between atoms: C_7  and  N_8
REMARK    3  A    between atoms: N_11  and  C_12
REMARK    4  A    between atoms: C_15  and  C_16
REMARK    5  A    between atoms: C_16  and  O_17
REMARK    6  A    between atoms: C_19  and  C_20
REMARK    7  A    between atoms: C_20  and  N_21
REMARK    8  A    between atoms: C_24  and  C_25
REMARK    9  A    between atoms: C_25  and  C_26
REMARK                            x       y       z     vdW  Elec       q    Type
REMARK                         _______ _______ _______ _____ _____    ______ ____
ROOT
ATOM      1  C   UNL     1      -0.625  11.656  19.576  0.00  0.00    +0.000 A 
ATOM      2  C   UNL     1      -1.957  12.023  19.791  0.00  0.00    +0.000 A 
ATOM      3  C   UNL     1      -3.000  11.583  18.932  0.00  0.00    +0.000 A 
ATOM      4  C   UNL     1      -2.741  10.806  17.800  0.00  0.00    +0.000 A 
ATOM      5  C   UNL     1      -1.429  10.379  17.613  0.00  0.00    +0.000 A 
ATOM      6  C   UNL     1      -0.377  10.740  18.504  0.00  0.00    +0.000 A 
ENDROOT
BRANCH   1  10
ATOM      7  N   UNL     1       1.780  13.762  19.115  0.00  0.00    +0.000 N 
ATOM      8  C   UNL     1       1.578  12.968  20.215  0.00  0.00    +0.000 C 
ATOM      9  O   UNL     1       2.366  12.954  21.165  0.00  0.00    +0.000 OA
ATOM     10  N   UNL     1       0.481  12.148  20.332  0.00  0.00    +0.000 N 
ATOM     11  H   UNL     1       0.932  14.158  18.747  0.00  0.00    +0.000 HD
ATOM     12  H   UNL     1       0.556  11.702  21.241  0.00  0.00    +0.000 HD
BRANCH   7  17
ATOM     13  C   UNL     1       4.433  16.482  19.467  0.00  0.00    +0.000 A 
ATOM     14  C   UNL     1       5.412  16.004  18.592  0.00  0.00    +0.000 A 
ATOM     15  C   UNL     1       5.170  14.827  17.879  0.00  0.00    +0.000 A 
ATOM     16  C   UNL     1       3.964  14.113  18.066  0.00  0.00    +0.000 A 
ATOM     17  C   UNL     1       2.964  14.578  18.929  0.00  0.00    +0.000 A 
ATOM     18  C   UNL     1       3.203  15.786  19.614  0.00  0.00    +0.000 A 
BRANCH  13  20
ATOM     19  N   UNL     1       4.904  18.631  20.867  0.00  0.00    +0.000 NA
ATOM     20  C   UNL     1       4.703  17.663  20.237  0.00  0.00    +0.000 C 
ENDBRANCH  13  20
ENDBRANCH   7  17
ENDBRANCH   1  10
BRANCH   4  21
ATOM     21  C   UNL     1      -3.813  10.395  16.817  0.00  0.00    +0.000 C 
BRANCH  21  22
ATOM     22  O   UNL     1      -4.812  11.403  16.704  0.00  0.00    +0.000 OA
ATOM     23  H   UNL     1      -4.733  11.789  15.814  0.00  0.00    +0.000 HD
ENDBRANCH  21  22
ENDBRANCH   4  21
BRANCH   6  24
ATOM     24  C   UNL     1       0.975  10.106  18.180  0.00  0.00    +0.000 C 
BRANCH  24  25
ATOM     25  N   UNL     1       1.559   9.229  19.243  0.00  0.00    +0.000 NA
ATOM     26  C   UNL     1       0.524   8.768  20.180  0.00  0.00    +0.000 C 
ATOM     27  C   UNL     1       0.966   7.703  21.193  0.00  0.00    +0.000 C 
ATOM     28  C   UNL     1       1.791   6.524  20.666  0.00  0.00    +0.000 C 
ATOM     29  C   UNL     1       2.653   6.904  19.445  0.00  0.00    +0.000 C 
ATOM     30  C   UNL     1       2.226   8.099  18.580  0.00  0.00    +0.000 C 
BRANCH  28  31
ATOM     31  C   UNL     1       1.001   5.202  20.463  0.00  0.00    +0.000 C 
BRANCH  31  32
ATOM     32  C   UNL     1       1.750   4.016  19.864  0.00  0.00    +0.000 A 
ATOM     33  C   UNL     1       1.382   3.526  18.605  0.00  0.00    +0.000 A 
ATOM     34  C   UNL     1       2.103   2.485  17.994  0.00  0.00    +0.000 A 
ATOM     35  C   UNL     1       3.201   1.940  18.635  0.00  0.00    +0.000 A 
ATOM     36  F   UNL     1       3.899   0.957  18.049  0.00  0.00    +0.000 F 
ATOM     37  C   UNL     1       3.592   2.409  19.888  0.00  0.00    +0.000 A 
ATOM     38  C   UNL     1       2.865   3.434  20.498  0.00  0.00    +0.000 A 
ENDBRANCH  31  32
ENDBRANCH  28  31
ENDBRANCH  24  25
ENDBRANCH   6  24
TORSDOF 9
ENDMDL
MODEL 5
REMARK VINA RESULT:      -7.6      4.347     10.400
REMARK  Name = 
REMARK  9 active torsions:
REMARK  status: ('A' for Active; 'I' for Inactive)
REMARK    1  A    between atoms: C_2  and  C_3
REMARK    2  A    between atoms: C_7  and  N_8
REMARK    3  A    between atoms: N_11  and  C_12
REMARK    4  A    between atoms: C_15  and  C_16
REMARK    5  A    between atoms: C_16  and  O_17
REMARK    6  A    between atoms: C_19  and  C_20
REMARK    7  A    between atoms: C_20  and  N_21
REMARK    8  A    between atoms: C_24  and  C_25
REMARK    9  A    between atoms: C_25  and  C_26
REMARK                            x       y       z     vdW  Elec       q    Type
REMARK                         _______ _______ _______ _____ _____    ______ ____
ROOT
ATOM      1  C   UNL     1      -0.949  10.363  18.723  0.00  0.00    +0.000 A 
ATOM      2  C   UNL     1      -1.568   9.596  17.731  0.00  0.00    +0.000 A 
ATOM      3  C   UNL     1      -2.741  10.044  17.066  0.00  0.00    +0.000 A 
ATOM      4  C   UNL     1      -3.365  11.246  17.406  0.00  0.00    +0.000 A 
ATOM      5  C   UNL     1      -2.722  12.049  18.344  0.00  0.00    +0.000 A 
ATOM      6  C   UNL     1      -1.502  11.661  18.969  0.00  0.00    +0.000 A 
ENDROOT
BRANCH   1  10
ATOM      7  N   UNL     1       1.522   8.317  18.348  0.00  0.00    +0.000 N 
ATOM      8  C   UNL     1       1.208   9.034  19.474  0.00  0.00    +0.000 C 
ATOM      9  O   UNL     1       1.854   8.925  20.521  0.00  0.00    +0.000 OA
ATOM     10  N   UNL     1       0.164   9.928  19.504  0.00  0.00    +0.000 N 
ATOM     11  H   UNL     1       1.405   8.839  17.497  0.00  0.00    +0.000 HD
ATOM     12  H   UNL     1       0.170  10.342  20.431  0.00  0.00    +0.000 HD
BRANCH   7  17
ATOM     13  C   UNL     1       4.810   6.491  17.701  0.00  0.00    +0.000 A 
ATOM     14  C   UNL     1       4.611   5.328  18.450  0.00  0.00    +0.000 A 
ATOM     15  C   UNL     1       3.397   5.148  19.117  0.00  0.00    +0.000 A 
ATOM     16  C   UNL     1       2.396   6.144  19.062  0.00  0.00    +0.000 A 
ATOM     17  C   UNL     1       2.567   7.313  18.310  0.00  0.00    +0.000 A 
ATOM     18  C   UNL     1       3.780   7.467  17.610  0.00  0.00    +0.000 A 
BRANCH  13  20
ATOM     19  N   UNL     1       7.112   6.850  16.533  0.00  0.00    +0.000 NA
ATOM     20  C   UNL     1       6.075   6.699  17.057  0.00  0.00    +0.000 C 
ENDBRANCH  13  20
ENDBRANCH   7  17
ENDBRANCH   1  10
BRANCH   4  21
ATOM     21  C   UNL     1      -4.661  11.709  16.782  0.00  0.00    +0.000 C 
BRANCH  21  22
ATOM     22  O   UNL     1      -5.781  11.143  17.456  0.00  0.00    +0.000 OA
ATOM     23  H   UNL     1      -5.459  10.367  17.948  0.00  0.00    +0.000 HD
ENDBRANCH  21  22
ENDBRANCH   4  21
BRANCH   6  24
ATOM     24  C   UNL     1      -0.906  12.710  19.906  0.00  0.00    +0.000 C 
BRANCH  24  25
ATOM     25  N   UNL     1       0.580  12.873  19.849  0.00  0.00    +0.000 NA
ATOM     26  C   UNL     1       1.007  13.406  18.546  0.00  0.00    +0.000 C 
ATOM     27  C   UNL     1       2.486  13.803  18.439  0.00  0.00    +0.000 C 
ATOM     28  C   UNL     1       3.084  14.622  19.588  0.00  0.00    +0.000 C 
ATOM     29  C   UNL     1       2.411  14.320  20.942  0.00  0.00    +0.000 C 
ATOM     30  C   UNL     1       0.982  13.760  20.950  0.00  0.00    +0.000 C 
BRANCH  28  31
ATOM     31  C   UNL     1       3.232  16.143  19.309  0.00  0.00    +0.000 C 
BRANCH  31  32
ATOM     32  C   UNL     1       2.042  16.866  18.685  0.00  0.00    +0.000 A 
ATOM     33  C   UNL     1       2.167  17.440  17.414  0.00  0.00    +0.000 A 
ATOM     34  C   UNL     1       1.066  18.045  16.781  0.00  0.00    +0.000 A 
ATOM     35  C   UNL     1      -0.164  18.066  17.414  0.00  0.00    +0.000 A 
ATOM     36  F   UNL     1      -1.218  18.630  16.808  0.00  0.00    +0.000 F 
ATOM     37  C   UNL     1      -0.318  17.502  18.678  0.00  0.00    +0.000 A 
ATOM     38  C   UNL     1       0.781  16.913  19.309  0.00  0.00    +0.000 A 
ENDBRANCH  31  32
ENDBRANCH  28  31
ENDBRANCH  24  25
ENDBRANCH   6  24
TORSDOF 9
ENDMDL
MODEL 6
REMARK VINA RESULT:      -7.6      4.834     10.172
REMARK  Name = 
REMARK  9 active torsions:
REMARK  status: ('A' for Active; 'I' for Inactive)
REMARK    1  A    between atoms: C_2  and  C_3
REMARK    2  A    between atoms: C_7  and  N_8
REMARK    3  A    between atoms: N_11  and  C_12
REMARK    4  A    between atoms: C_15  and  C_16
REMARK    5  A    between atoms: C_16  and  O_17
REMARK    6  A    between atoms: C_19  and  C_20
REMARK    7  A    between atoms: C_20  and  N_21
REMARK    8  A    between atoms: C_24  and  C_25
REMARK    9  A    between atoms: C_25  and  C_26
REMARK                            x       y       z     vdW  Elec       q    Type
REMARK                         _______ _______ _______ _____ _____    ______ ____
ROOT
ATOM      1  C   UNL     1       0.847   9.473  19.831  0.00  0.00    +0.000 A 
ATOM      2  C   UNL     1       0.494   8.548  20.819  0.00  0.00    +0.000 A 
ATOM      3  C   UNL     1      -0.235   8.935  21.975  0.00  0.00    +0.000 A 
ATOM      4  C   UNL     1      -0.589  10.266  22.210  0.00  0.00    +0.000 A 
ATOM      5  C   UNL     1      -0.302  11.184  21.203  0.00  0.00    +0.000 A 
ATOM      6  C   UNL     1       0.357  10.809  19.997  0.00  0.00    +0.000 A 
ENDROOT
BRANCH   1  10
ATOM      7  N   UNL     1       2.242   6.845  18.574  0.00  0.00    +0.000 N 
ATOM      8  C   UNL     1       2.359   8.136  18.126  0.00  0.00    +0.000 C 
ATOM      9  O   UNL     1       3.085   8.433  17.171  0.00  0.00    +0.000 OA
ATOM     10  N   UNL     1       1.668   9.175  18.702  0.00  0.00    +0.000 N 
ATOM     11  H   UNL     1       1.310   6.606  18.864  0.00  0.00    +0.000 HD
ATOM     12  H   UNL     1       1.906  10.005  18.167  0.00  0.00    +0.000 HD
BRANCH   7  17
ATOM     13  C   UNL     1       5.126   4.607  17.462  0.00  0.00    +0.000 A 
ATOM     14  C   UNL     1       4.432   3.443  17.119  0.00  0.00    +0.000 A 
ATOM     15  C   UNL     1       3.039   3.426  17.223  0.00  0.00    +0.000 A 
ATOM     16  C   UNL     1       2.344   4.561  17.699  0.00  0.00    +0.000 A 
ATOM     17  C   UNL     1       3.015   5.742  18.037  0.00  0.00    +0.000 A 
ATOM     18  C   UNL     1       4.417   5.760  17.893  0.00  0.00    +0.000 A 
BRANCH  13  20
ATOM     19  N   UNL     1       7.730   4.624  17.345  0.00  0.00    +0.000 NA
ATOM     20  C   UNL     1       6.560   4.607  17.403  0.00  0.00    +0.000 C 
ENDBRANCH  13  20
ENDBRANCH   7  17
ENDBRANCH   1  10
BRANCH   4  21
ATOM     21  C   UNL     1      -1.285  10.726  23.470  0.00  0.00    +0.000 C 
BRANCH  21  22
ATOM     22  O   UNL     1      -2.189  11.792  23.192  0.00  0.00    +0.000 OA
ATOM     23  H   UNL     1      -1.923  12.178  22.339  0.00  0.00    +0.000 HD
ENDBRANCH  21  22
ENDBRANCH   4  21
BRANCH   6  24
ATOM     24  C   UNL     1       0.509  11.937  18.978  0.00  0.00    +0.000 C 
BRANCH  24  25
ATOM     25  N   UNL     1       0.828  13.287  19.538  0.00  0.00    +0.000 NA
ATOM     26  C   UNL     1       2.275  13.446  19.750  0.00  0.00    +0.000 C 
ATOM     27  C   UNL     1       2.743  14.857  20.132  0.00  0.00    +0.000 C 
ATOM     28  C   UNL     1       2.177  16.032  19.328  0.00  0.00    +0.000 C 
ATOM     29  C   UNL     1       0.756  15.754  18.796  0.00  0.00    +0.000 C 
ATOM     30  C   UNL     1       0.308  14.298  18.606  0.00  0.00    +0.000 C 
BRANCH  28  31
ATOM     31  C   UNL     1       3.128  16.613  18.245  0.00  0.00    +0.000 C 
BRANCH  31  32
ATOM     32  C   UNL     1       4.593  16.192  18.292  0.00  0.00    +0.000 A 
ATOM     33  C   UNL     1       5.517  16.970  19.001  0.00  0.00    +0.000 A 
ATOM     34  C   UNL     1       6.858  16.566  19.127  0.00  0.00    +0.000 A 
ATOM     35  C   UNL     1       7.274  15.378  18.554  0.00  0.00    +0.000 A 
ATOM     36  F   UNL     1       8.549  14.984  18.684  0.00  0.00    +0.000 F 
ATOM     37  C   UNL     1       6.377  14.583  17.845  0.00  0.00    +0.000 A 
ATOM     38  C   UNL     1       5.049  14.993  17.711  0.00  0.00    +0.000 A 
ENDBRANCH  31  32
ENDBRANCH  28  31
ENDBRANCH  24  25
ENDBRANCH   6  24
TORSDOF 9
ENDMDL
MODEL 7
REMARK VINA RESULT:      -7.5      5.203      8.682
REMARK  Name = 
REMARK  9 active torsions:
REMARK  status: ('A' for Active; 'I' for Inactive)
REMARK    1  A    between atoms: C_2  and  C_3
REMARK    2  A    between atoms: C_7  and  N_8
REMARK    3  A    between atoms: N_11  and  C_12
REMARK    4  A    between atoms: C_15  and  C_16
REMARK    5  A    between atoms: C_16  and  O_17
REMARK    6  A    between atoms: C_19  and  C_20
REMARK    7  A    between atoms: C_20  and  N_21
REMARK    8  A    between atoms: C_24  and  C_25
REMARK    9  A    between atoms: C_25  and  C_26
REMARK                            x       y       z     vdW  Elec       q    Type
REMARK                         _______ _______ _______ _____ _____    ______ ____
ROOT
ATOM      1  C   UNL     1       2.789   6.027  19.099  0.00  0.00    +0.000 A 
ATOM      2  C   UNL     1       2.202   6.024  20.369  0.00  0.00    +0.000 A 
ATOM      3  C   UNL     1       2.148   4.847  21.163  0.00  0.00    +0.000 A 
ATOM      4  C   UNL     1       2.630   3.623  20.695  0.00  0.00    +0.000 A 
ATOM      5  C   UNL     1       3.277   3.627  19.462  0.00  0.00    +0.000 A 
ATOM      6  C   UNL     1       3.416   4.809  18.680  0.00  0.00    +0.000 A 
ENDROOT
BRANCH   1  10
ATOM      7  N   UNL     1       1.501   8.989  19.060  0.00  0.00    +0.000 N 
ATOM      8  C   UNL     1       2.224   8.390  18.060  0.00  0.00    +0.000 C 
ATOM      9  O   UNL     1       2.423   8.944  16.974  0.00  0.00    +0.000 OA
ATOM     10  N   UNL     1       2.781   7.141  18.208  0.00  0.00    +0.000 N 
ATOM     11  H   UNL     1       1.868   8.810  19.979  0.00  0.00    +0.000 HD
ATOM     12  H   UNL     1       3.282   6.950  17.346  0.00  0.00    +0.000 HD
BRANCH   7  17
ATOM     13  C   UNL     1       0.815  12.725  18.698  0.00  0.00    +0.000 A 
ATOM     14  C   UNL     1      -0.556  12.710  18.422  0.00  0.00    +0.000 A 
ATOM     15  C   UNL     1      -1.231  11.487  18.398  0.00  0.00    +0.000 A 
ATOM     16  C   UNL     1      -0.531  10.280  18.616  0.00  0.00    +0.000 A 
ATOM     17  C   UNL     1       0.839  10.269  18.906  0.00  0.00    +0.000 A 
ATOM     18  C   UNL     1       1.503  11.511  18.966  0.00  0.00    +0.000 A 
BRANCH  13  20
ATOM     19  N   UNL     1       2.083  15.002  18.671  0.00  0.00    +0.000 NA
ATOM     20  C   UNL     1       1.518  13.976  18.675  0.00  0.00    +0.000 C 
ENDBRANCH  13  20
ENDBRANCH   7  17
ENDBRANCH   1  10
BRANCH   4  21
ATOM     21  C   UNL     1       2.509   2.334  21.476  0.00  0.00    +0.000 C 
BRANCH  21  22
ATOM     22  O   UNL     1       1.394   2.378  22.361  0.00  0.00    +0.000 OA
ATOM     23  H   UNL     1       1.019   1.481  22.396  0.00  0.00    +0.000 HD
ENDBRANCH  21  22
ENDBRANCH   4  21
BRANCH   6  24
ATOM     24  C   UNL     1       4.228   4.632  17.398  0.00  0.00    +0.000 C 
BRANCH  24  25
ATOM     25  N   UNL     1       5.644   5.112  17.448  0.00  0.00    +0.000 NA
ATOM     26  C   UNL     1       5.955   5.974  16.298  0.00  0.00    +0.000 C 
ATOM     27  C   UNL     1       7.313   6.687  16.344  0.00  0.00    +0.000 C 
ATOM     28  C   UNL     1       7.711   7.365  17.659  0.00  0.00    +0.000 C 
ATOM     29  C   UNL     1       7.110   6.663  18.893  0.00  0.00    +0.000 C 
ATOM     30  C   UNL     1       5.836   5.824  18.720  0.00  0.00    +0.000 C 
BRANCH  28  31
ATOM     31  C   UNL     1       7.528   8.908  17.689  0.00  0.00    +0.000 C 
BRANCH  31  32
ATOM     32  C   UNL     1       8.649   9.741  18.305  0.00  0.00    +0.000 A 
ATOM     33  C   UNL     1       9.349  10.657  17.510  0.00  0.00    +0.000 A 
ATOM     34  C   UNL     1      10.333  11.493  18.067  0.00  0.00    +0.000 A 
ATOM     35  C   UNL     1      10.611  11.423  19.420  0.00  0.00    +0.000 A 
ATOM     36  F   UNL     1      11.539  12.227  19.955  0.00  0.00    +0.000 F 
ATOM     37  C   UNL     1       9.928  10.522  20.235  0.00  0.00    +0.000 A 
ATOM     38  C   UNL     1       8.960   9.684  19.677  0.00  0.00    +0.000 A 
ENDBRANCH  31  32
ENDBRANCH  28  31
ENDBRANCH  24  25
ENDBRANCH   6  24
TORSDOF 9
ENDMDL
MODEL 8
REMARK VINA RESULT:      -7.5      4.827      7.683
REMARK  Name = 
REMARK  9 active torsions:
REMARK  status: ('A' for Active; 'I' for Inactive)
REMARK    1  A    between atoms: C_2  and  C_3
REMARK    2  A    between atoms: C_7  and  N_8
REMARK    3  A    between atoms: N_11  and  C_12
REMARK    4  A    between atoms: C_15  and  C_16
REMARK    5  A    between atoms: C_16  and  O_17
REMARK    6  A    between atoms: C_19  and  C_20
REMARK    7  A    between atoms: C_20  and  N_21
REMARK    8  A    between atoms: C_24  and  C_25
REMARK    9  A    between atoms: C_25  and  C_26
REMARK                            x       y       z     vdW  Elec       q    Type
REMARK                         _______ _______ _______ _____ _____    ______ ____
ROOT
ATOM      1  C   UNL     1       2.564   6.131  19.190  0.00  0.00    +0.000 A 
ATOM      2  C   UNL     1       2.317   6.161  20.567  0.00  0.00    +0.000 A 
ATOM      3  C   UNL     1       2.194   4.968  21.328  0.00  0.00    +0.000 A 
ATOM      4  C   UNL     1       2.260   3.706  20.733  0.00  0.00    +0.000 A 
ATOM      5  C   UNL     1       2.573   3.662  19.377  0.00  0.00    +0.000 A 
ATOM      6  C   UNL     1       2.781   4.842  18.606  0.00  0.00    +0.000 A 
ENDROOT
BRANCH   1  10
ATOM      7  N   UNL     1       1.044   8.978  19.063  0.00  0.00    +0.000 N 
ATOM      8  C   UNL     1       1.957   8.489  18.163  0.00  0.00    +0.000 C 
ATOM      9  O   UNL     1       2.266   9.109  17.142  0.00  0.00    +0.000 OA
ATOM     10  N   UNL     1       2.592   7.283  18.349  0.00  0.00    +0.000 N 
ATOM     11  H   UNL     1       1.284   8.784  20.019  0.00  0.00    +0.000 HD
ATOM     12  H   UNL     1       3.230   7.176  17.567  0.00  0.00    +0.000 HD
BRANCH   7  17
ATOM     13  C   UNL     1      -1.690  11.489  18.177  0.00  0.00    +0.000 A 
ATOM     14  C   UNL     1      -1.120  12.671  18.658  0.00  0.00    +0.000 A 
ATOM     15  C   UNL     1       0.156  12.629  19.226  0.00  0.00    +0.000 A 
ATOM     16  C   UNL     1       0.847  11.402  19.341  0.00  0.00    +0.000 A 
ATOM     17  C   UNL     1       0.303  10.206  18.856  0.00  0.00    +0.000 A 
ATOM     18  C   UNL     1      -0.968  10.266  18.251  0.00  0.00    +0.000 A 
BRANCH  13  20
ATOM     19  N   UNL     1      -4.105  11.570  17.201  0.00  0.00    +0.000 NA
ATOM     20  C   UNL     1      -3.020  11.523  17.640  0.00  0.00    +0.000 C 
ENDBRANCH  13  20
ENDBRANCH   7  17
ENDBRANCH   1  10
BRANCH   4  21
ATOM     21  C   UNL     1       2.045   2.420  21.497  0.00  0.00    +0.000 C 
BRANCH  21  22
ATOM     22  O   UNL     1       0.865   2.492  22.292  0.00  0.00    +0.000 OA
ATOM     23  H   UNL     1       0.334   1.702  22.091  0.00  0.00    +0.000 HD
ENDBRANCH  21  22
ENDBRANCH   4  21
BRANCH   6  24
ATOM     24  C   UNL     1       3.197   4.589  17.157  0.00  0.00    +0.000 C 
BRANCH  24  25
ATOM     25  N   UNL     1       4.660   4.702  16.867  0.00  0.00    +0.000 NA
ATOM     26  C   UNL     1       5.124   3.586  16.029  0.00  0.00    +0.000 C 
ATOM     27  C   UNL     1       6.560   3.699  15.500  0.00  0.00    +0.000 C 
ATOM     28  C   UNL     1       6.992   5.045  14.907  0.00  0.00    +0.000 C 
ATOM     29  C   UNL     1       6.257   6.237  15.551  0.00  0.00    +0.000 C 
ATOM     30  C   UNL     1       4.893   5.997  16.213  0.00  0.00    +0.000 C 
BRANCH  28  31
ATOM     31  C   UNL     1       7.009   5.109  13.354  0.00  0.00    +0.000 C 
BRANCH  31  32
ATOM     32  C   UNL     1       6.723   3.820  12.591  0.00  0.00    +0.000 A 
ATOM     33  C   UNL     1       5.399   3.407  12.395  0.00  0.00    +0.000 A 
ATOM     34  C   UNL     1       5.101   2.266  11.630  0.00  0.00    +0.000 A 
ATOM     35  C   UNL     1       6.127   1.542  11.048  0.00  0.00    +0.000 A 
ATOM     36  F   UNL     1       5.845   0.461  10.307  0.00  0.00    +0.000 F 
ATOM     37  C   UNL     1       7.453   1.930  11.223  0.00  0.00    +0.000 A 
ATOM     38  C   UNL     1       7.746   3.057  11.995  0.00  0.00    +0.000 A 
ENDBRANCH  31  32
ENDBRANCH  28  31
ENDBRANCH  24  25
ENDBRANCH   6  24
TORSDOF 9
ENDMDL
MODEL 9
REMARK VINA RESULT:      -7.5      4.636      7.856
REMARK  Name = 
REMARK  9 active torsions:
REMARK  status: ('A' for Active; 'I' for Inactive)
REMARK    1  A    between atoms: C_2  and  C_3
REMARK    2  A    between atoms: C_7  and  N_8
REMARK    3  A    between atoms: N_11  and  C_12
REMARK    4  A    between atoms: C_15  and  C_16
REMARK    5  A    between atoms: C_16  and  O_17
REMARK    6  A    between atoms: C_19  and  C_20
REMARK    7  A    between atoms: C_20  and  N_21
REMARK    8  A    between atoms: C_24  and  C_25
REMARK    9  A    between atoms: C_25  and  C_26
REMARK                            x       y       z     vdW  Elec       q    Type
REMARK                         _______ _______ _______ _____ _____    ______ ____
ROOT
ATOM      1  C   UNL     1       1.740   5.843  20.491  0.00  0.00    +0.000 A 
ATOM      2  C   UNL     1       1.347   4.610  21.021  0.00  0.00    +0.000 A 
ATOM      3  C   UNL     1       1.381   3.420  20.245  0.00  0.00    +0.000 A 
ATOM      4  C   UNL     1       1.757   3.430  18.900  0.00  0.00    +0.000 A 
ATOM      5  C   UNL     1       2.214   4.639  18.380  0.00  0.00    +0.000 A 
ATOM      6  C   UNL     1       2.266   5.830  19.159  0.00  0.00    +0.000 A 
ENDROOT
BRANCH   1  10
ATOM      7  N   UNL     1       0.690   8.817  19.795  0.00  0.00    +0.000 N 
ATOM      8  C   UNL     1       1.274   8.401  20.964  0.00  0.00    +0.000 C 
ATOM      9  O   UNL     1       1.504   9.180  21.894  0.00  0.00    +0.000 OA
ATOM     10  N   UNL     1       1.629   7.090  21.177  0.00  0.00    +0.000 N 
ATOM     11  H   UNL     1       0.042   8.151  19.413  0.00  0.00    +0.000 HD
ATOM     12  H   UNL     1       2.004   7.046  22.119  0.00  0.00    +0.000 HD
BRANCH   7  17
ATOM     13  C   UNL     1       0.950  12.488  18.782  0.00  0.00    +0.000 A 
ATOM     14  C   UNL     1      -0.396  12.862  18.821  0.00  0.00    +0.000 A 
ATOM     15  C   UNL     1      -1.353  11.922  19.212  0.00  0.00    +0.000 A 
ATOM     16  C   UNL     1      -0.967  10.601  19.533  0.00  0.00    +0.000 A 
ATOM     17  C   UNL     1       0.376  10.204  19.512  0.00  0.00    +0.000 A 
ATOM     18  C   UNL     1       1.336  11.171  19.153  0.00  0.00    +0.000 A 
BRANCH  13  20
ATOM     19  N   UNL     1       2.722  14.224  17.982  0.00  0.00    +0.000 NA
ATOM     20  C   UNL     1       1.926  13.438  18.332  0.00  0.00    +0.000 C 
ENDBRANCH  13  20
ENDBRANCH   7  17
ENDBRANCH   1  10
BRANCH   4  21
ATOM     21  C   UNL     1       1.720   2.200  18.022  0.00  0.00    +0.000 C 
BRANCH  21  22
ATOM     22  O   UNL     1       2.812   1.334  18.314  0.00  0.00    +0.000 OA
ATOM     23  H   UNL     1       3.174   1.030  17.463  0.00  0.00    +0.000 HD
ENDBRANCH  21  22
ENDBRANCH   4  21
BRANCH   6  24
ATOM     24  C   UNL     1       2.875   7.033  18.440  0.00  0.00    +0.000 C 
BRANCH  24  25
ATOM     25  N   UNL     1       4.353   6.983  18.214  0.00  0.00    +0.000 NA
ATOM     26  C   UNL     1       4.940   5.769  18.802  0.00  0.00    +0.000 C 
ATOM     27  C   UNL     1       6.413   5.507  18.463  0.00  0.00    +0.000 C 
ATOM     28  C   UNL     1       6.842   5.668  17.001  0.00  0.00    +0.000 C 
ATOM     29  C   UNL     1       6.001   6.721  16.251  0.00  0.00    +0.000 C 
ATOM     30  C   UNL     1       4.593   7.047  16.765  0.00  0.00    +0.000 C 
BRANCH  28  31
ATOM     31  C   UNL     1       7.002   4.342  16.207  0.00  0.00    +0.000 C 
BRANCH  31  32
ATOM     32  C   UNL     1       7.128   4.437  14.690  0.00  0.00    +0.000 A 
ATOM     33  C   UNL     1       6.258   3.703  13.873  0.00  0.00    +0.000 A 
ATOM     34  C   UNL     1       6.299   3.830  12.474  0.00  0.00    +0.000 A 
ATOM     35  C   UNL     1       7.201   4.700  11.888  0.00  0.00    +0.000 A 
ATOM     36  F   UNL     1       7.234   4.832  10.555  0.00  0.00    +0.000 F 
ATOM     37  C   UNL     1       8.078   5.443  12.676  0.00  0.00    +0.000 A 
ATOM     38  C   UNL     1       8.044   5.305  14.065  0.00  0.00    +0.000 A 
ENDBRANCH  31  32
ENDBRANCH  28  31
ENDBRANCH  24  25
ENDBRANCH   6  24
TORSDOF 9
ENDMDL
