MODEL 1
REMARK VINA RESULT:      -8.8      0.000      0.000
REMARK  Name = 
REMARK  2 active torsions:
REMARK  status: ('A' for Active; 'I' for Inactive)
REMARK    1  A    between atoms: C_12  and  C_13
REMARK    2  A    between atoms: C_14  and  C_15
REMARK                            x       y       z     vdW  Elec       q    Type
REMARK                         _______ _______ _______ _____ _____    ______ ____
ROOT
ATOM      1  O   UNL     1       3.845   2.420  18.434  0.00  0.00    +0.000 OA
ATOM      2  C   UNL     1       3.794   3.636  18.297  0.00  0.00    +0.000 C 
ATOM      3  C   UNL     1       4.510   4.310  17.171  0.00  0.00    +0.000 A 
ATOM      4  C   UNL     1       5.275   3.538  16.287  0.00  0.00    +0.000 A 
ATOM      5  C   UNL     1       5.976   4.155  15.249  0.00  0.00    +0.000 A 
ATOM      6  C   UNL     1       5.922   5.541  15.093  0.00  0.00    +0.000 A 
ATOM      7  C   UNL     1       5.154   6.318  15.961  0.00  0.00    +0.000 A 
ATOM      8  C   UNL     1       4.435   5.710  16.999  0.00  0.00    +0.000 A 
ATOM      9  C   UNL     1       3.602   6.575  17.901  0.00  0.00    +0.000 C 
ATOM     10  O   UNL     1       3.467   7.772  17.680  0.00  0.00    +0.000 OA
ATOM     11  C   UNL     1       2.982   5.903  19.012  0.00  0.00    +0.000 A 
ATOM     12  C   UNL     1       2.210   6.314  20.128  0.00  0.00    +0.000 A 
ATOM     13  N   UNL     1       1.881   5.241  20.874  0.00  0.00    +0.000 NA
ATOM     14  O   UNL     1       2.436   4.135  20.256  0.00  0.00    +0.000 OA
ATOM     15  C   UNL     1       3.094   4.544  19.151  0.00  0.00    +0.000 A 
ENDROOT
BRANCH  12  16
ATOM     16  C   UNL     1       1.834   7.662  20.468  0.00  0.00    +0.000 C 
ATOM     17  C   UNL     1       0.669   7.973  21.068  0.00  0.00    +0.000 C 
BRANCH  17  18
ATOM     18  C   UNL     1       0.184   9.291  21.504  0.00  0.00    +0.000 A 
ATOM     19  C   UNL     1       0.277  10.458  20.736  0.00  0.00    +0.000 A 
ATOM     20  C   UNL     1      -0.270  11.660  21.206  0.00  0.00    +0.000 A 
ATOM     21  C   UNL     1      -0.916  11.709  22.439  0.00  0.00    +0.000 A 
ATOM     22  C   UNL     1      -1.017  10.557  23.211  0.00  0.00    +0.000 A 
ATOM     23  C   UNL     1      -0.472   9.359  22.744  0.00  0.00    +0.000 A 
ENDBRANCH  17  18
ENDBRANCH  12  16
TORSDOF 2
ENDMDL
MODEL 2
REMARK VINA RESULT:      -8.8      0.184      1.015
REMARK  Name = 
REMARK  2 active torsions:
REMARK  status: ('A' for Active; 'I' for Inactive)
REMARK    1  A    between atoms: C_12  and  C_13
REMARK    2  A    between atoms: C_14  and  C_15
REMARK                            x       y       z     vdW  Elec       q    Type
REMARK                         _______ _______ _______ _____ _____    ______ ____
ROOT
ATOM      1  O   UNL     1       3.879   2.318  18.313  0.00  0.00    +0.000 OA
ATOM      2  C   UNL     1       3.810   3.536  18.210  0.00  0.00    +0.000 C 
ATOM      3  C   UNL     1       4.509   4.250  17.097  0.00  0.00    +0.000 A 
ATOM      4  C   UNL     1       5.278   3.513  16.187  0.00  0.00    +0.000 A 
ATOM      5  C   UNL     1       5.962   4.168  15.161  0.00  0.00    +0.000 A 
ATOM      6  C   UNL     1       5.889   5.556  15.045  0.00  0.00    +0.000 A 
ATOM      7  C   UNL     1       5.117   6.299  15.939  0.00  0.00    +0.000 A 
ATOM      8  C   UNL     1       4.414   5.653  16.965  0.00  0.00    +0.000 A 
ATOM      9  C   UNL     1       3.577   6.482  17.896  0.00  0.00    +0.000 C 
ATOM     10  O   UNL     1       3.425   7.682  17.709  0.00  0.00    +0.000 OA
ATOM     11  C   UNL     1       2.975   5.772  18.993  0.00  0.00    +0.000 A 
ATOM     12  C   UNL     1       2.206   6.141  20.125  0.00  0.00    +0.000 A 
ATOM     13  N   UNL     1       1.896   5.044  20.844  0.00  0.00    +0.000 NA
ATOM     14  O   UNL     1       2.461   3.963  20.191  0.00  0.00    +0.000 OA
ATOM     15  C   UNL     1       3.105   4.411  19.093  0.00  0.00    +0.000 A 
ENDROOT
BRANCH  12  16
ATOM     16  C   UNL     1       1.815   7.475  20.505  0.00  0.00    +0.000 C 
ATOM     17  C   UNL     1       0.603   7.770  21.014  0.00  0.00    +0.000 C 
BRANCH  17  18
ATOM     18  C   UNL     1       0.094   9.070  21.478  0.00  0.00    +0.000 A 
ATOM     19  C   UNL     1      -0.395   9.309  22.767  0.00  0.00    +0.000 A 
ATOM     20  C   UNL     1      -0.802  10.597  23.143  0.00  0.00    +0.000 A 
ATOM     21  C   UNL     1      -0.720  11.655  22.241  0.00  0.00    +0.000 A 
ATOM     22  C   UNL     1      -0.233  11.432  20.958  0.00  0.00    +0.000 A 
ATOM     23  C   UNL     1       0.171  10.149  20.582  0.00  0.00    +0.000 A 
ENDBRANCH  17  18
ENDBRANCH  12  16
TORSDOF 2
ENDMDL
MODEL 3
REMARK VINA RESULT:      -8.7      2.751      8.134
REMARK  Name = 
REMARK  2 active torsions:
REMARK  status: ('A' for Active; 'I' for Inactive)
REMARK    1  A    between atoms: C_12  and  C_13
REMARK    2  A    between atoms: C_14  and  C_15
REMARK                            x       y       z     vdW  Elec       q    Type
REMARK                         _______ _______ _______ _____ _____    ______ ____
ROOT
ATOM      1  O   UNL     1       0.200  12.138  18.646  0.00  0.00    +0.000 OA
ATOM      2  C   UNL     1       0.458  11.096  19.234  0.00  0.00    +0.000 C 
ATOM      3  C   UNL     1      -0.045  10.856  20.621  0.00  0.00    +0.000 A 
ATOM      4  C   UNL     1      -0.790  11.854  21.261  0.00  0.00    +0.000 A 
ATOM      5  C   UNL     1      -1.241  11.659  22.569  0.00  0.00    +0.000 A 
ATOM      6  C   UNL     1      -0.944  10.474  23.243  0.00  0.00    +0.000 A 
ATOM      7  C   UNL     1      -0.212   9.468  22.611  0.00  0.00    +0.000 A 
ATOM      8  C   UNL     1       0.235   9.646  21.294  0.00  0.00    +0.000 A 
ATOM      9  C   UNL     1       1.002   8.534  20.639  0.00  0.00    +0.000 C 
ATOM     10  O   UNL     1       1.151   7.454  21.197  0.00  0.00    +0.000 OA
ATOM     11  C   UNL     1       1.528   8.825  19.331  0.00  0.00    +0.000 A 
ATOM     12  C   UNL     1       2.355   8.138  18.408  0.00  0.00    +0.000 A 
ATOM     13  N   UNL     1       2.538   8.895  17.308  0.00  0.00    +0.000 NA
ATOM     14  O   UNL     1       1.839  10.071  17.509  0.00  0.00    +0.000 OA
ATOM     15  C   UNL     1       1.246  10.019  18.720  0.00  0.00    +0.000 A 
ENDROOT
BRANCH  12  16
ATOM     16  C   UNL     1       2.956   6.841  18.586  0.00  0.00    +0.000 C 
ATOM     17  C   UNL     1       2.305   5.688  18.340  0.00  0.00    +0.000 C 
BRANCH  17  18
ATOM     18  C   UNL     1       2.809   4.310  18.439  0.00  0.00    +0.000 A 
ATOM     19  C   UNL     1       3.760   3.884  19.375  0.00  0.00    +0.000 A 
ATOM     20  C   UNL     1       4.137   2.536  19.439  0.00  0.00    +0.000 A 
ATOM     21  C   UNL     1       3.568   1.601  18.577  0.00  0.00    +0.000 A 
ATOM     22  C   UNL     1       2.621   2.009  17.644  0.00  0.00    +0.000 A 
ATOM     23  C   UNL     1       2.245   3.353  17.579  0.00  0.00    +0.000 A 
ENDBRANCH  17  18
ENDBRANCH  12  16
TORSDOF 2
ENDMDL
MODEL 4
REMARK VINA RESULT:      -8.4      3.665      8.941
REMARK  Name = 
REMARK  2 active torsions:
REMARK  status: ('A' for Active; 'I' for Inactive)
REMARK    1  A    between atoms: C_12  and  C_13
REMARK    2  A    between atoms: C_14  and  C_15
REMARK                            x       y       z     vdW  Elec       q    Type
REMARK                         _______ _______ _______ _____ _____    ______ ____
ROOT
ATOM      1  O   UNL     1       2.780   7.336  19.267  0.00  0.00    +0.000 OA
ATOM      2  C   UNL     1       3.101   6.258  18.784  0.00  0.00    +0.000 C 
ATOM      3  C   UNL     1       2.655   4.976  19.411  0.00  0.00    +0.000 A 
ATOM      4  C   UNL     1       1.892   5.017  20.585  0.00  0.00    +0.000 A 
ATOM      5  C   UNL     1       1.494   3.829  21.201  0.00  0.00    +0.000 A 
ATOM      6  C   UNL     1       1.861   2.599  20.655  0.00  0.00    +0.000 A 
ATOM      7  C   UNL     1       2.612   2.546  19.479  0.00  0.00    +0.000 A 
ATOM      8  C   UNL     1       3.007   3.731  18.844  0.00  0.00    +0.000 A 
ATOM      9  C   UNL     1       3.795   3.636  17.570  0.00  0.00    +0.000 C 
ATOM     10  O   UNL     1       4.007   2.554  17.037  0.00  0.00    +0.000 OA
ATOM     11  C   UNL     1       4.265   4.885  17.032  0.00  0.00    +0.000 A 
ATOM     12  C   UNL     1       5.088   5.260  15.940  0.00  0.00    +0.000 A 
ATOM     13  N   UNL     1       5.202   6.602  15.895  0.00  0.00    +0.000 NA
ATOM     14  O   UNL     1       4.462   7.104  16.951  0.00  0.00    +0.000 OA
ATOM     15  C   UNL     1       3.914   6.071  17.623  0.00  0.00    +0.000 A 
ENDROOT
BRANCH  12  16
ATOM     16  C   UNL     1       5.746   4.377  15.012  0.00  0.00    +0.000 C 
ATOM     17  C   UNL     1       5.396   4.277  13.715  0.00  0.00    +0.000 C 
BRANCH  17  18
ATOM     18  C   UNL     1       6.007   3.454  12.660  0.00  0.00    +0.000 A 
ATOM     19  C   UNL     1       7.315   3.619  12.192  0.00  0.00    +0.000 A 
ATOM     20  C   UNL     1       7.837   2.747  11.226  0.00  0.00    +0.000 A 
ATOM     21  C   UNL     1       7.063   1.704  10.724  0.00  0.00    +0.000 A 
ATOM     22  C   UNL     1       5.762   1.527  11.182  0.00  0.00    +0.000 A 
ATOM     23  C   UNL     1       5.241   2.396  12.144  0.00  0.00    +0.000 A 
ENDBRANCH  17  18
ENDBRANCH  12  16
TORSDOF 2
ENDMDL
MODEL 5
REMARK VINA RESULT:      -8.3      1.867      8.069
REMARK  Name = 
REMARK  2 active torsions:
REMARK  status: ('A' for Active; 'I' for Inactive)
REMARK    1  A    between atoms: C_12  and  C_13
REMARK    2  A    between atoms: C_14  and  C_15
REMARK                            x       y       z     vdW  Elec       q    Type
REMARK                         _______ _______ _______ _____ _____    ______ ____
ROOT
ATOM      1  O   UNL     1       2.030   4.786  21.447  0.00  0.00    +0.000 OA
ATOM      2  C   UNL     1       2.339   5.430  20.453  0.00  0.00    +0.000 C 
ATOM      3  C   UNL     1       1.866   6.838  20.276  0.00  0.00    +0.000 A 
ATOM      4  C   UNL     1       1.032   7.407  21.247  0.00  0.00    +0.000 A 
ATOM      5  C   UNL     1       0.556   8.709  21.082  0.00  0.00    +0.000 A 
ATOM      6  C   UNL     1       0.903   9.444  19.948  0.00  0.00    +0.000 A 
ATOM      7  C   UNL     1       1.743   8.891  18.979  0.00  0.00    +0.000 A 
ATOM      8  C   UNL     1       2.238   7.589  19.140  0.00  0.00    +0.000 A 
ATOM      9  C   UNL     1       3.156   7.035  18.089  0.00  0.00    +0.000 C 
ATOM     10  O   UNL     1       3.549   7.731  17.161  0.00  0.00    +0.000 OA
ATOM     11  C   UNL     1       3.536   5.657  18.256  0.00  0.00    +0.000 A 
ATOM     12  C   UNL     1       4.285   4.724  17.496  0.00  0.00    +0.000 A 
ATOM     13  N   UNL     1       4.329   3.541  18.140  0.00  0.00    +0.000 NA
ATOM     14  O   UNL     1       3.610   3.695  19.312  0.00  0.00    +0.000 OA
ATOM     15  C   UNL     1       3.139   4.958  19.367  0.00  0.00    +0.000 A 
ENDROOT
BRANCH  12  16
ATOM     16  C   UNL     1       4.899   4.951  16.213  0.00  0.00    +0.000 C 
ATOM     17  C   UNL     1       5.579   4.000  15.543  0.00  0.00    +0.000 C 
BRANCH  17  18
ATOM     18  C   UNL     1       6.213   4.087  14.219  0.00  0.00    +0.000 A 
ATOM     19  C   UNL     1       5.807   3.347  13.102  0.00  0.00    +0.000 A 
ATOM     20  C   UNL     1       6.430   3.539  11.861  0.00  0.00    +0.000 A 
ATOM     21  C   UNL     1       7.456   4.471  11.722  0.00  0.00    +0.000 A 
ATOM     22  C   UNL     1       7.867   5.215  12.822  0.00  0.00    +0.000 A 
ATOM     23  C   UNL     1       7.248   5.023  14.060  0.00  0.00    +0.000 A 
ENDBRANCH  17  18
ENDBRANCH  12  16
TORSDOF 2
ENDMDL
MODEL 6
REMARK VINA RESULT:      -8.2      1.856      8.064
REMARK  Name = 
REMARK  2 active torsions:
REMARK  status: ('A' for Active; 'I' for Inactive)
REMARK    1  A    between atoms: C_12  and  C_13
REMARK    2  A    between atoms: C_14  and  C_15
REMARK                            x       y       z     vdW  Elec       q    Type
REMARK                         _______ _______ _______ _____ _____    ______ ____
ROOT
ATOM      1  O   UNL     1       1.880   4.506  21.388  0.00  0.00    +0.000 OA
ATOM      2  C   UNL     1       2.227   5.212  20.449  0.00  0.00    +0.000 C 
ATOM      3  C   UNL     1       1.781   6.637  20.359  0.00  0.00    +0.000 A 
ATOM      4  C   UNL     1       0.930   7.152  21.345  0.00  0.00    +0.000 A 
ATOM      5  C   UNL     1       0.479   8.470  21.258  0.00  0.00    +0.000 A 
ATOM      6  C   UNL     1       0.868   9.276  20.187  0.00  0.00    +0.000 A 
ATOM      7  C   UNL     1       1.726   8.776  19.205  0.00  0.00    +0.000 A 
ATOM      8  C   UNL     1       2.196   7.459  19.287  0.00  0.00    +0.000 A 
ATOM      9  C   UNL     1       3.133   6.962  18.225  0.00  0.00    +0.000 C 
ATOM     10  O   UNL     1       3.562   7.714  17.359  0.00  0.00    +0.000 OA
ATOM     11  C   UNL     1       3.487   5.569  18.306  0.00  0.00    +0.000 A 
ATOM     12  C   UNL     1       4.242   4.678  17.503  0.00  0.00    +0.000 A 
ATOM     13  N   UNL     1       4.250   3.453  18.064  0.00  0.00    +0.000 NA
ATOM     14  O   UNL     1       3.502   3.538  19.225  0.00  0.00    +0.000 OA
ATOM     15  C   UNL     1       3.049   4.802  19.354  0.00  0.00    +0.000 A 
ENDROOT
BRANCH  12  16
ATOM     16  C   UNL     1       4.895   4.983  16.255  0.00  0.00    +0.000 C 
ATOM     17  C   UNL     1       5.509   4.053  15.499  0.00  0.00    +0.000 C 
BRANCH  17  18
ATOM     18  C   UNL     1       6.171   4.221  14.196  0.00  0.00    +0.000 A 
ATOM     19  C   UNL     1       7.273   5.055  13.975  0.00  0.00    +0.000 A 
ATOM     20  C   UNL     1       7.882   5.105  12.713  0.00  0.00    +0.000 A 
ATOM     21  C   UNL     1       7.401   4.323  11.665  0.00  0.00    +0.000 A 
ATOM     22  C   UNL     1       6.308   3.488  11.872  0.00  0.00    +0.000 A 
ATOM     23  C   UNL     1       5.701   3.438  13.129  0.00  0.00    +0.000 A 
ENDBRANCH  17  18
ENDBRANCH  12  16
TORSDOF 2
ENDMDL
MODEL 7
REMARK VINA RESULT:      -8.1      5.301      6.893
REMARK  Name = 
REMARK  2 active torsions:
REMARK  status: ('A' for Active; 'I' for Inactive)
REMARK    1  A    between atoms: C_12  and  C_13
REMARK    2  A    between atoms: C_14  and  C_15
REMARK                            x       y       z     vdW  Elec       q    Type
REMARK                         _______ _______ _______ _____ _____    ______ ____
ROOT
ATOM      1  O   UNL     1       5.026   3.459  15.205  0.00  0.00    +0.000 OA
ATOM      2  C   UNL     1       5.285   3.991  16.277  0.00  0.00    +0.000 C 
ATOM      3  C   UNL     1       4.626   3.532  17.537  0.00  0.00    +0.000 A 
ATOM      4  C   UNL     1       3.675   2.505  17.478  0.00  0.00    +0.000 A 
ATOM      5  C   UNL     1       3.027   2.086  18.642  0.00  0.00    +0.000 A 
ATOM      6  C   UNL     1       3.317   2.693  19.863  0.00  0.00    +0.000 A 
ATOM      7  C   UNL     1       4.271   3.711  19.936  0.00  0.00    +0.000 A 
ATOM      8  C   UNL     1       4.938   4.131  18.778  0.00  0.00    +0.000 A 
ATOM      9  C   UNL     1       5.973   5.213  18.897  0.00  0.00    +0.000 C 
ATOM     10  O   UNL     1       6.304   5.652  19.990  0.00  0.00    +0.000 OA
ATOM     11  C   UNL     1       6.537   5.676  17.657  0.00  0.00    +0.000 A 
ATOM     12  C   UNL     1       7.445   6.700  17.289  0.00  0.00    +0.000 A 
ATOM     13  N   UNL     1       7.628   6.690  15.954  0.00  0.00    +0.000 NA
ATOM     14  O   UNL     1       6.842   5.670  15.448  0.00  0.00    +0.000 OA
ATOM     15  C   UNL     1       6.194   5.077  16.472  0.00  0.00    +0.000 A 
ENDROOT
BRANCH  12  16
ATOM     16  C   UNL     1       8.080   7.648  18.169  0.00  0.00    +0.000 C 
ATOM     17  C   UNL     1       8.323   8.926  17.822  0.00  0.00    +0.000 C 
BRANCH  17  18
ATOM     18  C   UNL     1       8.919  10.000  18.632  0.00  0.00    +0.000 A 
ATOM     19  C   UNL     1       8.970   9.995  20.031  0.00  0.00    +0.000 A 
ATOM     20  C   UNL     1       9.615  11.031  20.720  0.00  0.00    +0.000 A 
ATOM     21  C   UNL     1      10.217  12.076  20.022  0.00  0.00    +0.000 A 
ATOM     22  C   UNL     1      10.176  12.092  18.632  0.00  0.00    +0.000 A 
ATOM     23  C   UNL     1       9.533  11.060  17.945  0.00  0.00    +0.000 A 
ENDBRANCH  17  18
ENDBRANCH  12  16
TORSDOF 2
ENDMDL
MODEL 8
REMARK VINA RESULT:      -8.0      2.735      8.216
REMARK  Name = 
REMARK  2 active torsions:
REMARK  status: ('A' for Active; 'I' for Inactive)
REMARK    1  A    between atoms: C_12  and  C_13
REMARK    2  A    between atoms: C_14  and  C_15
REMARK                            x       y       z     vdW  Elec       q    Type
REMARK                         _______ _______ _______ _____ _____    ______ ____
ROOT
ATOM      1  O   UNL     1       0.795  12.638  18.399  0.00  0.00    +0.000 OA
ATOM      2  C   UNL     1       0.777  11.618  19.076  0.00  0.00    +0.000 C 
ATOM      3  C   UNL     1       0.127  11.606  20.423  0.00  0.00    +0.000 A 
ATOM      4  C   UNL     1      -0.435  12.787  20.923  0.00  0.00    +0.000 A 
ATOM      5  C   UNL     1      -1.017  12.801  22.192  0.00  0.00    +0.000 A 
ATOM      6  C   UNL     1      -1.034  11.642  22.967  0.00  0.00    +0.000 A 
ATOM      7  C   UNL     1      -0.487  10.456  22.475  0.00  0.00    +0.000 A 
ATOM      8  C   UNL     1       0.089  10.425  21.198  0.00  0.00    +0.000 A 
ATOM      9  C   UNL     1       0.649   9.127  20.692  0.00  0.00    +0.000 C 
ATOM     10  O   UNL     1       0.520   8.092  21.332  0.00  0.00    +0.000 OA
ATOM     11  C   UNL     1       1.326   9.191  19.424  0.00  0.00    +0.000 A 
ATOM     12  C   UNL     1       2.056   8.272  18.630  0.00  0.00    +0.000 A 
ATOM     13  N   UNL     1       2.482   8.879  17.504  0.00  0.00    +0.000 NA
ATOM     14  O   UNL     1       2.037  10.188  17.561  0.00  0.00    +0.000 OA
ATOM     15  C   UNL     1       1.354  10.362  18.711  0.00  0.00    +0.000 A 
ENDROOT
BRANCH  12  16
ATOM     16  C   UNL     1       2.350   6.898  18.949  0.00  0.00    +0.000 C 
ATOM     17  C   UNL     1       2.215   5.892  18.065  0.00  0.00    +0.000 C 
BRANCH  17  18
ATOM     18  C   UNL     1       2.518   4.464  18.246  0.00  0.00    +0.000 A 
ATOM     19  C   UNL     1       3.384   3.732  17.426  0.00  0.00    +0.000 A 
ATOM     20  C   UNL     1       3.664   2.388  17.711  0.00  0.00    +0.000 A 
ATOM     21  C   UNL     1       3.087   1.765  18.815  0.00  0.00    +0.000 A 
ATOM     22  C   UNL     1       2.226   2.481  19.640  0.00  0.00    +0.000 A 
ATOM     23  C   UNL     1       1.947   3.820  19.357  0.00  0.00    +0.000 A 
ENDBRANCH  17  18
ENDBRANCH  12  16
TORSDOF 2
ENDMDL
MODEL 9
REMARK VINA RESULT:      -8.0      2.492      3.975
REMARK  Name = 
REMARK  2 active torsions:
REMARK  status: ('A' for Active; 'I' for Inactive)
REMARK    1  A    between atoms: C_12  and  C_13
REMARK    2  A    between atoms: C_14  and  C_15
REMARK                            x       y       z     vdW  Elec       q    Type
REMARK                         _______ _______ _______ _____ _____    ______ ____
ROOT
ATOM      1  O   UNL     1       5.097   4.167  17.535  0.00  0.00    +0.000 OA
ATOM      2  C   UNL     1       4.268   4.775  18.200  0.00  0.00    +0.000 C 
ATOM      3  C   UNL     1       3.642   4.146  19.404  0.00  0.00    +0.000 A 
ATOM      4  C   UNL     1       3.988   2.833  19.747  0.00  0.00    +0.000 A 
ATOM      5  C   UNL     1       3.389   2.219  20.849  0.00  0.00    +0.000 A 
ATOM      6  C   UNL     1       2.441   2.909  21.606  0.00  0.00    +0.000 A 
ATOM      7  C   UNL     1       2.097   4.222  21.279  0.00  0.00    +0.000 A 
ATOM      8  C   UNL     1       2.700   4.853  20.184  0.00  0.00    +0.000 A 
ATOM      9  C   UNL     1       2.322   6.273  19.874  0.00  0.00    +0.000 C 
ATOM     10  O   UNL     1       1.581   6.905  20.616  0.00  0.00    +0.000 OA
ATOM     11  C   UNL     1       2.891   6.823  18.672  0.00  0.00    +0.000 A 
ATOM     12  C   UNL     1       2.752   8.043  17.964  0.00  0.00    +0.000 A 
ATOM     13  N   UNL     1       3.541   8.029  16.871  0.00  0.00    +0.000 NA
ATOM     14  O   UNL     1       4.189   6.807  16.860  0.00  0.00    +0.000 OA
ATOM     15  C   UNL     1       3.789   6.096  17.935  0.00  0.00    +0.000 A 
ENDROOT
BRANCH  12  16
ATOM     16  C   UNL     1       1.892   9.146  18.307  0.00  0.00    +0.000 C 
ATOM     17  C   UNL     1       0.577   9.174  18.014  0.00  0.00    +0.000 C 
BRANCH  17  18
ATOM     18  C   UNL     1      -0.414  10.210  18.341  0.00  0.00    +0.000 A 
ATOM     19  C   UNL     1      -1.655  10.340  17.706  0.00  0.00    +0.000 A 
ATOM     20  C   UNL     1      -2.566  11.319  18.125  0.00  0.00    +0.000 A 
ATOM     21  C   UNL     1      -2.251  12.172  19.180  0.00  0.00    +0.000 A 
ATOM     22  C   UNL     1      -1.022  12.053  19.821  0.00  0.00    +0.000 A 
ATOM     23  C   UNL     1      -0.114  11.078  19.404  0.00  0.00    +0.000 A 
ENDBRANCH  17  18
ENDBRANCH  12  16
TORSDOF 2
ENDMDL
