MODEL 1
REMARK VINA RESULT:      -9.5      0.000      0.000
REMARK  Name = 
REMARK  3 active torsions:
REMARK  status: ('A' for Active; 'I' for Inactive)
REMARK    1  A    between atoms: C_1  and  C_2
REMARK    2  A    between atoms: N_12  and  N_13
REMARK    3  A    between atoms: N_16  and  C_17
REMARK                            x       y       z     vdW  Elec       q    Type
REMARK                         _______ _______ _______ _____ _____    ______ ____
ROOT
ATOM      1  C   UNL     1       3.427   6.335  18.150  0.00  0.00    +0.000 C 
ATOM      2  C   UNL     1       3.224   4.900  18.642  0.00  0.00    +0.000 C 
ATOM      3  C   UNL     1       2.250   4.207  17.643  0.00  0.00    +0.000 C 
ATOM      4  N   UNL     1       1.953   2.780  17.845  0.00  0.00    +0.000 NA
ATOM      5  C   UNL     1       0.886   2.537  18.820  0.00  0.00    +0.000 C 
ATOM      6  C   UNL     1       0.931   3.306  20.155  0.00  0.00    +0.000 C 
ATOM      7  N   UNL     1       2.238   3.723  20.676  0.00  0.00    +0.000 NA
ATOM      8  C   UNL     1       3.279   2.687  20.596  0.00  0.00    +0.000 C 
ATOM      9  C   UNL     1       4.016   2.573  19.252  0.00  0.00    +0.000 C 
ATOM     10  C   UNL     1       3.159   1.994  18.134  0.00  0.00    +0.000 C 
ATOM     11  C   UNL     1       4.430   3.963  18.778  0.00  0.00    +0.000 C 
ATOM     12  N   UNL     1       5.705   4.133  18.568  0.00  0.00    +0.000 NA
ATOM     13  C   UNL     1       2.676   4.989  20.085  0.00  0.00    +0.000 C 
ENDROOT
BRANCH  12  14
ATOM     14  N   UNL     1       6.207   5.317  18.147  0.00  0.00    +0.000 N 
ATOM     15  C   UNL     1       6.622   5.551  16.855  0.00  0.00    +0.000 C 
ATOM     16  O   UNL     1       7.128   6.638  16.580  0.00  0.00    +0.000 OA
ATOM     17  N   UNL     1       6.368   4.513  15.998  0.00  0.00    +0.000 N 
ATOM     18  H   UNL     1       6.323   6.113  18.744  0.00  0.00    +0.000 HD
ATOM     19  H   UNL     1       5.775   3.807  16.416  0.00  0.00    +0.000 HD
BRANCH  17  20
ATOM     20  C   UNL     1       6.650   4.464  14.623  0.00  0.00    +0.000 A 
ATOM     21  C   UNL     1       7.622   5.267  14.018  0.00  0.00    +0.000 A 
ATOM     22  C   UNL     1       7.849   5.200  12.646  0.00  0.00    +0.000 A 
ATOM     23  C   UNL     1       7.098   4.335  11.855  0.00  0.00    +0.000 A 
ATOM     24  C   UNL     1       6.134   3.518  12.449  0.00  0.00    +0.000 A 
ATOM     25  C   UNL     1       5.921   3.576  13.830  0.00  0.00    +0.000 A 
ENDBRANCH  17  20
ENDBRANCH  12  14
TORSDOF 2
ENDMDL
MODEL 2
REMARK VINA RESULT:      -9.4      0.074      1.005
REMARK  Name = 
REMARK  3 active torsions:
REMARK  status: ('A' for Active; 'I' for Inactive)
REMARK    1  A    between atoms: C_1  and  C_2
REMARK    2  A    between atoms: N_12  and  N_13
REMARK    3  A    between atoms: N_16  and  C_17
REMARK                            x       y       z     vdW  Elec       q    Type
REMARK                         _______ _______ _______ _____ _____    ______ ____
ROOT
ATOM      1  C   UNL     1       3.390   6.300  18.163  0.00  0.00    +0.000 C 
ATOM      2  C   UNL     1       3.199   4.866  18.663  0.00  0.00    +0.000 C 
ATOM      3  C   UNL     1       2.222   4.163  17.673  0.00  0.00    +0.000 C 
ATOM      4  N   UNL     1       1.936   2.735  17.883  0.00  0.00    +0.000 NA
ATOM      5  C   UNL     1       0.876   2.490  18.866  0.00  0.00    +0.000 C 
ATOM      6  C   UNL     1       0.926   3.264  20.198  0.00  0.00    +0.000 C 
ATOM      7  N   UNL     1       2.234   3.691  20.708  0.00  0.00    +0.000 NA
ATOM      8  C   UNL     1       3.280   2.661  20.625  0.00  0.00    +0.000 C 
ATOM      9  C   UNL     1       4.009   2.546  19.277  0.00  0.00    +0.000 C 
ATOM     10  C   UNL     1       3.147   1.958  18.167  0.00  0.00    +0.000 C 
ATOM     11  C   UNL     1       4.411   3.936  18.794  0.00  0.00    +0.000 C 
ATOM     12  N   UNL     1       5.684   4.112  18.575  0.00  0.00    +0.000 NA
ATOM     13  C   UNL     1       2.660   4.958  20.109  0.00  0.00    +0.000 C 
ENDROOT
BRANCH  12  14
ATOM     14  N   UNL     1       6.176   5.298  18.145  0.00  0.00    +0.000 N 
ATOM     15  C   UNL     1       6.572   5.532  16.848  0.00  0.00    +0.000 C 
ATOM     16  O   UNL     1       7.070   6.620  16.564  0.00  0.00    +0.000 OA
ATOM     17  N   UNL     1       6.308   4.493  15.996  0.00  0.00    +0.000 N 
ATOM     18  H   UNL     1       6.299   6.095  18.741  0.00  0.00    +0.000 HD
ATOM     19  H   UNL     1       5.724   3.785  16.422  0.00  0.00    +0.000 HD
BRANCH  17  20
ATOM     20  C   UNL     1       6.570   4.443  14.616  0.00  0.00    +0.000 A 
ATOM     21  C   UNL     1       5.845   3.635  13.735  0.00  0.00    +0.000 A 
ATOM     22  C   UNL     1       6.158   3.601  12.378  0.00  0.00    +0.000 A 
ATOM     23  C   UNL     1       7.210   4.367  11.885  0.00  0.00    +0.000 A 
ATOM     24  C   UNL     1       7.933   5.188  12.753  0.00  0.00    +0.000 A 
ATOM     25  C   UNL     1       7.604   5.233  14.110  0.00  0.00    +0.000 A 
ENDBRANCH  17  20
ENDBRANCH  12  14
TORSDOF 2
ENDMDL
MODEL 3
REMARK VINA RESULT:      -8.8      0.851      2.282
REMARK  Name = 
REMARK  3 active torsions:
REMARK  status: ('A' for Active; 'I' for Inactive)
REMARK    1  A    between atoms: C_1  and  C_2
REMARK    2  A    between atoms: N_12  and  N_13
REMARK    3  A    between atoms: N_16  and  C_17
REMARK                            x       y       z     vdW  Elec       q    Type
REMARK                         _______ _______ _______ _____ _____    ______ ____
ROOT
ATOM      1  C   UNL     1       5.076   2.603  19.329  0.00  0.00    +0.000 C 
ATOM      2  C   UNL     1       3.775   3.391  19.161  0.00  0.00    +0.000 C 
ATOM      3  C   UNL     1       3.131   3.516  20.575  0.00  0.00    +0.000 C 
ATOM      4  N   UNL     1       1.899   4.311  20.704  0.00  0.00    +0.000 NA
ATOM      5  C   UNL     1       0.682   3.559  20.382  0.00  0.00    +0.000 C 
ATOM      6  C   UNL     1       0.675   2.699  19.103  0.00  0.00    +0.000 C 
ATOM      7  N   UNL     1       1.533   3.107  17.984  0.00  0.00    +0.000 NA
ATOM      8  C   UNL     1       1.493   4.546  17.685  0.00  0.00    +0.000 C 
ATOM      9  C   UNL     1       2.421   5.436  18.527  0.00  0.00    +0.000 C 
ATOM     10  C   UNL     1       1.975   5.583  19.976  0.00  0.00    +0.000 C 
ATOM     11  C   UNL     1       3.812   4.812  18.585  0.00  0.00    +0.000 C 
ATOM     12  N   UNL     1       4.787   5.560  18.149  0.00  0.00    +0.000 NA
ATOM     13  C   UNL     1       2.903   2.616  18.147  0.00  0.00    +0.000 C 
ENDROOT
BRANCH  12  14
ATOM     14  N   UNL     1       6.069   5.127  18.143  0.00  0.00    +0.000 N 
ATOM     15  C   UNL     1       6.739   4.749  17.002  0.00  0.00    +0.000 C 
ATOM     16  O   UNL     1       7.882   4.305  17.101  0.00  0.00    +0.000 OA
ATOM     17  N   UNL     1       6.032   4.967  15.849  0.00  0.00    +0.000 N 
ATOM     18  H   UNL     1       6.628   5.040  18.970  0.00  0.00    +0.000 HD
ATOM     19  H   UNL     1       5.196   5.515  16.010  0.00  0.00    +0.000 HD
BRANCH  17  20
ATOM     20  C   UNL     1       6.455   4.709  14.535  0.00  0.00    +0.000 A 
ATOM     21  C   UNL     1       7.507   5.402  13.928  0.00  0.00    +0.000 A 
ATOM     22  C   UNL     1       7.876   5.128  12.613  0.00  0.00    +0.000 A 
ATOM     23  C   UNL     1       7.189   4.163  11.882  0.00  0.00    +0.000 A 
ATOM     24  C   UNL     1       6.146   3.454  12.482  0.00  0.00    +0.000 A 
ATOM     25  C   UNL     1       5.791   3.721  13.807  0.00  0.00    +0.000 A 
ENDBRANCH  17  20
ENDBRANCH  12  14
TORSDOF 2
ENDMDL
MODEL 4
REMARK VINA RESULT:      -8.7      0.839      2.489
REMARK  Name = 
REMARK  3 active torsions:
REMARK  status: ('A' for Active; 'I' for Inactive)
REMARK    1  A    between atoms: C_1  and  C_2
REMARK    2  A    between atoms: N_12  and  N_13
REMARK    3  A    between atoms: N_16  and  C_17
REMARK                            x       y       z     vdW  Elec       q    Type
REMARK                         _______ _______ _______ _____ _____    ______ ____
ROOT
ATOM      1  C   UNL     1       5.105   2.589  19.190  0.00  0.00    +0.000 C 
ATOM      2  C   UNL     1       3.798   3.377  19.080  0.00  0.00    +0.000 C 
ATOM      3  C   UNL     1       3.173   3.427  20.507  0.00  0.00    +0.000 C 
ATOM      4  N   UNL     1       1.939   4.208  20.693  0.00  0.00    +0.000 NA
ATOM      5  C   UNL     1       0.722   3.466  20.349  0.00  0.00    +0.000 C 
ATOM      6  C   UNL     1       0.701   2.672  19.029  0.00  0.00    +0.000 C 
ATOM      7  N   UNL     1       1.541   3.140  17.920  0.00  0.00    +0.000 NA
ATOM      8  C   UNL     1       1.490   4.593  17.695  0.00  0.00    +0.000 C 
ATOM      9  C   UNL     1       2.426   5.444  18.568  0.00  0.00    +0.000 C 
ATOM     10  C   UNL     1       1.999   5.515  20.028  0.00  0.00    +0.000 C 
ATOM     11  C   UNL     1       3.820   4.825  18.576  0.00  0.00    +0.000 C 
ATOM     12  N   UNL     1       4.785   5.600  18.165  0.00  0.00    +0.000 NA
ATOM     13  C   UNL     1       2.916   2.650  18.040  0.00  0.00    +0.000 C 
ENDROOT
BRANCH  12  14
ATOM     14  N   UNL     1       6.070   5.175  18.120  0.00  0.00    +0.000 N 
ATOM     15  C   UNL     1       6.697   4.769  16.963  0.00  0.00    +0.000 C 
ATOM     16  O   UNL     1       7.845   4.335  17.030  0.00  0.00    +0.000 OA
ATOM     17  N   UNL     1       5.943   4.951  15.835  0.00  0.00    +0.000 N 
ATOM     18  H   UNL     1       6.661   5.115  18.926  0.00  0.00    +0.000 HD
ATOM     19  H   UNL     1       5.109   5.499  16.013  0.00  0.00    +0.000 HD
BRANCH  17  20
ATOM     20  C   UNL     1       6.316   4.660  14.512  0.00  0.00    +0.000 A 
ATOM     21  C   UNL     1       5.653   3.711  13.728  0.00  0.00    +0.000 A 
ATOM     22  C   UNL     1       6.075   3.438  12.430  0.00  0.00    +0.000 A 
ATOM     23  C   UNL     1       7.176   4.105  11.899  0.00  0.00    +0.000 A 
ATOM     24  C   UNL     1       7.837   5.066  12.667  0.00  0.00    +0.000 A 
ATOM     25  C   UNL     1       7.399   5.348  13.964  0.00  0.00    +0.000 A 
ENDBRANCH  17  20
ENDBRANCH  12  14
TORSDOF 2
ENDMDL
MODEL 5
REMARK VINA RESULT:      -7.9      4.175      7.040
REMARK  Name = 
REMARK  3 active torsions:
REMARK  status: ('A' for Active; 'I' for Inactive)
REMARK    1  A    between atoms: C_1  and  C_2
REMARK    2  A    between atoms: N_12  and  N_13
REMARK    3  A    between atoms: N_16  and  C_17
REMARK                            x       y       z     vdW  Elec       q    Type
REMARK                         _______ _______ _______ _____ _____    ______ ____
ROOT
ATOM      1  C   UNL     1       4.586   5.940  17.006  0.00  0.00    +0.000 C 
ATOM      2  C   UNL     1       3.736   4.984  17.845  0.00  0.00    +0.000 C 
ATOM      3  C   UNL     1       4.691   4.299  18.867  0.00  0.00    +0.000 C 
ATOM      4  N   UNL     1       4.102   3.385  19.859  0.00  0.00    +0.000 NA
ATOM      5  C   UNL     1       3.910   2.022  19.355  0.00  0.00    +0.000 C 
ATOM      6  C   UNL     1       3.271   1.843  17.963  0.00  0.00    +0.000 C 
ATOM      7  N   UNL     1       2.347   2.877  17.482  0.00  0.00    +0.000 NA
ATOM      8  C   UNL     1       1.373   3.331  18.486  0.00  0.00    +0.000 C 
ATOM      9  C   UNL     1       1.859   4.424  19.451  0.00  0.00    +0.000 C 
ATOM     10  C   UNL     1       2.882   3.930  20.465  0.00  0.00    +0.000 C 
ATOM     11  C   UNL     1       2.558   5.527  18.664  0.00  0.00    +0.000 C 
ATOM     12  N   UNL     1       2.062   6.725  18.804  0.00  0.00    +0.000 NA
ATOM     13  C   UNL     1       3.063   3.996  16.864  0.00  0.00    +0.000 C 
ENDROOT
BRANCH  12  14
ATOM     14  N   UNL     1       2.587   7.794  18.160  0.00  0.00    +0.000 N 
ATOM     15  C   UNL     1       1.968   9.022  18.096  0.00  0.00    +0.000 C 
ATOM     16  O   UNL     1       2.488   9.916  17.431  0.00  0.00    +0.000 OA
ATOM     17  N   UNL     1       0.828   9.104  18.850  0.00  0.00    +0.000 N 
ATOM     18  H   UNL     1       3.462   7.771  17.672  0.00  0.00    +0.000 HD
ATOM     19  H   UNL     1       0.709   8.302  19.456  0.00  0.00    +0.000 HD
BRANCH  17  20
ATOM     20  C   UNL     1      -0.003  10.227  19.007  0.00  0.00    +0.000 A 
ATOM     21  C   UNL     1       0.193  11.181  20.009  0.00  0.00    +0.000 A 
ATOM     22  C   UNL     1      -0.672  12.265  20.141  0.00  0.00    +0.000 A 
ATOM     23  C   UNL     1      -1.754  12.403  19.276  0.00  0.00    +0.000 A 
ATOM     24  C   UNL     1      -1.952  11.464  18.262  0.00  0.00    +0.000 A 
ATOM     25  C   UNL     1      -1.071  10.387  18.123  0.00  0.00    +0.000 A 
ENDBRANCH  17  20
ENDBRANCH  12  14
TORSDOF 2
ENDMDL
MODEL 6
REMARK VINA RESULT:      -7.9      4.161      7.069
REMARK  Name = 
REMARK  3 active torsions:
REMARK  status: ('A' for Active; 'I' for Inactive)
REMARK    1  A    between atoms: C_1  and  C_2
REMARK    2  A    between atoms: N_12  and  N_13
REMARK    3  A    between atoms: N_16  and  C_17
REMARK                            x       y       z     vdW  Elec       q    Type
REMARK                         _______ _______ _______ _____ _____    ______ ____
ROOT
ATOM      1  C   UNL     1       4.587   5.904  17.017  0.00  0.00    +0.000 C 
ATOM      2  C   UNL     1       3.726   4.958  17.857  0.00  0.00    +0.000 C 
ATOM      3  C   UNL     1       4.672   4.269  18.886  0.00  0.00    +0.000 C 
ATOM      4  N   UNL     1       4.072   3.364  19.879  0.00  0.00    +0.000 NA
ATOM      5  C   UNL     1       3.870   2.001  19.380  0.00  0.00    +0.000 C 
ATOM      6  C   UNL     1       3.236   1.822  17.987  0.00  0.00    +0.000 C 
ATOM      7  N   UNL     1       2.322   2.861  17.498  0.00  0.00    +0.000 NA
ATOM      8  C   UNL     1       1.348   3.328  18.496  0.00  0.00    +0.000 C 
ATOM      9  C   UNL     1       1.839   4.420  19.459  0.00  0.00    +0.000 C 
ATOM     10  C   UNL     1       2.854   3.922  20.479  0.00  0.00    +0.000 C 
ATOM     11  C   UNL     1       2.550   5.515  18.669  0.00  0.00    +0.000 C 
ATOM     12  N   UNL     1       2.063   6.717  18.802  0.00  0.00    +0.000 NA
ATOM     13  C   UNL     1       3.049   3.971  16.878  0.00  0.00    +0.000 C 
ENDROOT
BRANCH  12  14
ATOM     14  N   UNL     1       2.599   7.778  18.156  0.00  0.00    +0.000 N 
ATOM     15  C   UNL     1       1.989   9.010  18.081  0.00  0.00    +0.000 C 
ATOM     16  O   UNL     1       2.519   9.898  17.415  0.00  0.00    +0.000 OA
ATOM     17  N   UNL     1       0.845   9.105  18.827  0.00  0.00    +0.000 N 
ATOM     18  H   UNL     1       3.477   7.747  17.674  0.00  0.00    +0.000 HD
ATOM     19  H   UNL     1       0.716   8.306  19.437  0.00  0.00    +0.000 HD
BRANCH  17  20
ATOM     20  C   UNL     1       0.021  10.233  18.973  0.00  0.00    +0.000 A 
ATOM     21  C   UNL     1      -1.077  10.483  18.142  0.00  0.00    +0.000 A 
ATOM     22  C   UNL     1      -1.850  11.629  18.309  0.00  0.00    +0.000 A 
ATOM     23  C   UNL     1      -1.531  12.548  19.304  0.00  0.00    +0.000 A 
ATOM     24  C   UNL     1      -0.446  12.303  20.149  0.00  0.00    +0.000 A 
ATOM     25  C   UNL     1       0.318  11.143  19.988  0.00  0.00    +0.000 A 
ENDBRANCH  17  20
ENDBRANCH  12  14
TORSDOF 2
ENDMDL
MODEL 7
REMARK VINA RESULT:      -7.8      4.010      6.765
REMARK  Name = 
REMARK  3 active torsions:
REMARK  status: ('A' for Active; 'I' for Inactive)
REMARK    1  A    between atoms: C_1  and  C_2
REMARK    2  A    between atoms: N_12  and  N_13
REMARK    3  A    between atoms: N_16  and  C_17
REMARK                            x       y       z     vdW  Elec       q    Type
REMARK                         _______ _______ _______ _____ _____    ______ ____
ROOT
ATOM      1  C   UNL     1       0.847   4.151  20.842  0.00  0.00    +0.000 C 
ATOM      2  C   UNL     1       1.994   4.047  19.834  0.00  0.00    +0.000 C 
ATOM      3  C   UNL     1       1.385   3.521  18.500  0.00  0.00    +0.000 C 
ATOM      4  N   UNL     1       2.273   3.411  17.332  0.00  0.00    +0.000 NA
ATOM      5  C   UNL     1       3.040   2.162  17.298  0.00  0.00    +0.000 C 
ATOM      6  C   UNL     1       3.739   1.702  18.592  0.00  0.00    +0.000 C 
ATOM      7  N   UNL     1       4.154   2.723  19.562  0.00  0.00    +0.000 NA
ATOM      8  C   UNL     1       4.811   3.894  18.962  0.00  0.00    +0.000 C 
ATOM      9  C   UNL     1       3.877   4.992  18.429  0.00  0.00    +0.000 C 
ATOM     10  C   UNL     1       3.127   4.592  17.165  0.00  0.00    +0.000 C 
ATOM     11  C   UNL     1       2.803   5.298  19.468  0.00  0.00    +0.000 C 
ATOM     12  N   UNL     1       2.740   6.536  19.871  0.00  0.00    +0.000 NA
ATOM     13  C   UNL     1       3.053   3.104  20.449  0.00  0.00    +0.000 C 
ENDROOT
BRANCH  12  14
ATOM     14  N   UNL     1       1.834   6.942  20.790  0.00  0.00    +0.000 N 
ATOM     15  C   UNL     1       1.143   8.129  20.704  0.00  0.00    +0.000 C 
ATOM     16  O   UNL     1       0.388   8.446  21.622  0.00  0.00    +0.000 OA
ATOM     17  N   UNL     1       1.361   8.811  19.537  0.00  0.00    +0.000 N 
ATOM     18  H   UNL     1       1.603   6.414  21.610  0.00  0.00    +0.000 HD
ATOM     19  H   UNL     1       1.872   8.258  18.859  0.00  0.00    +0.000 HD
BRANCH  17  20
ATOM     20  C   UNL     1       0.783  10.031  19.149  0.00  0.00    +0.000 A 
ATOM     21  C   UNL     1       1.420  11.263  19.326  0.00  0.00    +0.000 A 
ATOM     22  C   UNL     1       0.797  12.449  18.948  0.00  0.00    +0.000 A 
ATOM     23  C   UNL     1      -0.481  12.421  18.396  0.00  0.00    +0.000 A 
ATOM     24  C   UNL     1      -1.122  11.195  18.200  0.00  0.00    +0.000 A 
ATOM     25  C   UNL     1      -0.485  10.006  18.566  0.00  0.00    +0.000 A 
ENDBRANCH  17  20
ENDBRANCH  12  14
TORSDOF 2
ENDMDL
MODEL 8
REMARK VINA RESULT:      -7.8      3.995      6.820
REMARK  Name = 
REMARK  3 active torsions:
REMARK  status: ('A' for Active; 'I' for Inactive)
REMARK    1  A    between atoms: C_1  and  C_2
REMARK    2  A    between atoms: N_12  and  N_13
REMARK    3  A    between atoms: N_16  and  C_17
REMARK                            x       y       z     vdW  Elec       q    Type
REMARK                         _______ _______ _______ _____ _____    ______ ____
ROOT
ATOM      1  C   UNL     1       1.104   4.177  21.062  0.00  0.00    +0.000 C 
ATOM      2  C   UNL     1       2.107   4.042  19.914  0.00  0.00    +0.000 C 
ATOM      3  C   UNL     1       1.339   3.430  18.705  0.00  0.00    +0.000 C 
ATOM      4  N   UNL     1       2.064   3.275  17.433  0.00  0.00    +0.000 NA
ATOM      5  C   UNL     1       2.855   2.043  17.360  0.00  0.00    +0.000 C 
ATOM      6  C   UNL     1       3.736   1.670  18.569  0.00  0.00    +0.000 C 
ATOM      7  N   UNL     1       4.248   2.752  19.418  0.00  0.00    +0.000 NA
ATOM      8  C   UNL     1       4.784   3.902  18.675  0.00  0.00    +0.000 C 
ATOM      9  C   UNL     1       3.755   4.948  18.217  0.00  0.00    +0.000 C 
ATOM     10  C   UNL     1       2.853   4.463  17.091  0.00  0.00    +0.000 C 
ATOM     11  C   UNL     1       2.822   5.288  19.376  0.00  0.00    +0.000 C 
ATOM     12  N   UNL     1       2.779   6.545  19.719  0.00  0.00    +0.000 NA
ATOM     13  C   UNL     1       3.267   3.157  20.427  0.00  0.00    +0.000 C 
ENDROOT
BRANCH  12  14
ATOM     14  N   UNL     1       1.994   6.981  20.732  0.00  0.00    +0.000 N 
ATOM     15  C   UNL     1       1.303   8.171  20.700  0.00  0.00    +0.000 C 
ATOM     16  O   UNL     1       0.668   8.518  21.694  0.00  0.00    +0.000 OA
ATOM     17  N   UNL     1       1.380   8.820  19.497  0.00  0.00    +0.000 N 
ATOM     18  H   UNL     1       1.863   6.476  21.587  0.00  0.00    +0.000 HD
ATOM     19  H   UNL     1       1.801   8.247  18.776  0.00  0.00    +0.000 HD
BRANCH  17  20
ATOM     20  C   UNL     1       0.764  10.035  19.150  0.00  0.00    +0.000 A 
ATOM     21  C   UNL     1      -0.594  10.132  18.827  0.00  0.00    +0.000 A 
ATOM     22  C   UNL     1      -1.155  11.354  18.466  0.00  0.00    +0.000 A 
ATOM     23  C   UNL     1      -0.362  12.497  18.412  0.00  0.00    +0.000 A 
ATOM     24  C   UNL     1       0.992  12.416  18.746  0.00  0.00    +0.000 A 
ATOM     25  C   UNL     1       1.546  11.190  19.125  0.00  0.00    +0.000 A 
ENDBRANCH  17  20
ENDBRANCH  12  14
TORSDOF 2
ENDMDL
MODEL 9
REMARK VINA RESULT:      -7.7      4.301      7.243
REMARK  Name = 
REMARK  3 active torsions:
REMARK  status: ('A' for Active; 'I' for Inactive)
REMARK    1  A    between atoms: C_1  and  C_2
REMARK    2  A    between atoms: N_12  and  N_13
REMARK    3  A    between atoms: N_16  and  C_17
REMARK                            x       y       z     vdW  Elec       q    Type
REMARK                         _______ _______ _______ _____ _____    ______ ____
ROOT
ATOM      1  C   UNL     1       2.209   4.425  21.698  0.00  0.00    +0.000 C 
ATOM      2  C   UNL     1       2.457   4.243  20.199  0.00  0.00    +0.000 C 
ATOM      3  C   UNL     1       1.367   3.264  19.670  0.00  0.00    +0.000 C 
ATOM      4  N   UNL     1       1.331   2.985  18.225  0.00  0.00    +0.000 NA
ATOM      5  C   UNL     1       2.263   1.931  17.812  0.00  0.00    +0.000 C 
ATOM      6  C   UNL     1       3.707   1.984  18.348  0.00  0.00    +0.000 C 
ATOM      7  N   UNL     1       4.277   3.293  18.688  0.00  0.00    +0.000 NA
ATOM      8  C   UNL     1       4.015   4.343  17.692  0.00  0.00    +0.000 C 
ATOM      9  C   UNL     1       2.664   5.065  17.812  0.00  0.00    +0.000 C 
ATOM     10  C   UNL     1       1.474   4.201  17.418  0.00  0.00    +0.000 C 
ATOM     11  C   UNL     1       2.424   5.459  19.267  0.00  0.00    +0.000 C 
ATOM     12  N   UNL     1       2.233   6.731  19.484  0.00  0.00    +0.000 NA
ATOM     13  C   UNL     1       3.900   3.710  20.041  0.00  0.00    +0.000 C 
ENDROOT
BRANCH  12  14
ATOM     14  N   UNL     1       2.009   7.215  20.728  0.00  0.00    +0.000 N 
ATOM     15  C   UNL     1       1.456   8.451  20.975  0.00  0.00    +0.000 C 
ATOM     16  O   UNL     1       1.353   8.836  22.139  0.00  0.00    +0.000 OA
ATOM     17  N   UNL     1       1.034   9.101  19.846  0.00  0.00    +0.000 N 
ATOM     18  H   UNL     1       2.238   6.715  21.566  0.00  0.00    +0.000 HD
ATOM     19  H   UNL     1       1.053   8.504  19.029  0.00  0.00    +0.000 HD
BRANCH  17  20
ATOM     20  C   UNL     1       0.410  10.359  19.777  0.00  0.00    +0.000 A 
ATOM     21  C   UNL     1       1.050  11.544  20.152  0.00  0.00    +0.000 A 
ATOM     22  C   UNL     1       0.383  12.765  20.090  0.00  0.00    +0.000 A 
ATOM     23  C   UNL     1      -0.941  12.815  19.661  0.00  0.00    +0.000 A 
ATOM     24  C   UNL     1      -1.586  11.640  19.271  0.00  0.00    +0.000 A 
ATOM     25  C   UNL     1      -0.907  10.419  19.319  0.00  0.00    +0.000 A 
ENDBRANCH  17  20
ENDBRANCH  12  14
TORSDOF 2
ENDMDL
