MODEL 1
REMARK VINA RESULT:      -7.4      0.000      0.000
REMARK  Name = 
REMARK  8 active torsions:
REMARK  status: ('A' for Active; 'I' for Inactive)
REMARK    1  A    between atoms: C_1  and  C_2
REMARK    2  A    between atoms: C_2  and  C_3
REMARK    3  A    between atoms: C_3  and  N_4
REMARK    4  A    between atoms: N_7  and  C_8
REMARK    5  A    between atoms: N_7  and  S_11
REMARK    6  A    between atoms: C_8  and  C_9
REMARK    7  A    between atoms: C_8  and  C_10
REMARK    8  A    between atoms: S_11  and  C_14
REMARK                            x       y       z     vdW  Elec       q    Type
REMARK                         _______ _______ _______ _____ _____    ______ ____
ROOT
ATOM      1  N   UNL     1       6.025   4.120  15.171  0.00  0.00    +0.000 N 
ATOM      2  C   UNL     1       6.710   5.037  15.920  0.00  0.00    +0.000 C 
ATOM      3  O   UNL     1       7.651   5.660  15.445  0.00  0.00    +0.000 OA
ATOM      4  N   UNL     1       6.270   5.240  17.263  0.00  0.00    +0.000 N 
ATOM      5  H   UNL     1       5.444   3.456  15.681  0.00  0.00    +0.000 HD
ENDROOT
BRANCH   4   6
ATOM      6  C   UNL     1       6.923   6.205  18.225  0.00  0.00    +0.000 C 
ATOM      7  C   UNL     1       8.090   5.515  18.934  0.00  0.00    +0.000 C 
ATOM      8  C   UNL     1       7.397   7.515  17.600  0.00  0.00    +0.000 C 
ENDBRANCH   4   6
BRANCH   4   9
ATOM      9  S   UNL     1       4.943   4.396  17.935  0.00  0.00    +0.000 S 
ATOM     10  O   UNL     1       4.292   3.615  16.899  0.00  0.00    +0.000 OA
ATOM     11  O   UNL     1       5.343   3.762  19.173  0.00  0.00    +0.000 OA
BRANCH   9  12
ATOM     12  C   UNL     1       3.807   5.709  18.350  0.00  0.00    +0.000 A 
ATOM     13  C   UNL     1       3.155   5.696  19.591  0.00  0.00    +0.000 A 
ATOM     14  C   UNL     1       2.339   6.770  19.956  0.00  0.00    +0.000 A 
ATOM     15  C   UNL     1       2.195   7.858  19.095  0.00  0.00    +0.000 A 
ATOM     16 CL   UNL     1       1.199   9.183  19.551  0.00  0.00    +0.000 Cl
ATOM     17  C   UNL     1       2.866   7.882  17.871  0.00  0.00    +0.000 A 
ATOM     18  C   UNL     1       3.679   6.809  17.496  0.00  0.00    +0.000 A 
ENDBRANCH   9  12
ENDBRANCH   4   9
BRANCH   1  19
ATOM     19  C   UNL     1       6.355   3.742  13.814  0.00  0.00    +0.000 C 
BRANCH  19  21
ATOM     20  C   UNL     1       5.165   2.908  11.754  0.00  0.00    +0.000 C 
ATOM     21  C   UNL     1       5.147   3.908  12.898  0.00  0.00    +0.000 C 
ENDBRANCH  19  21
ENDBRANCH   1  19
TORSDOF 5
ENDMDL
MODEL 2
REMARK VINA RESULT:      -7.2      0.188      1.100
REMARK  Name = 
REMARK  8 active torsions:
REMARK  status: ('A' for Active; 'I' for Inactive)
REMARK    1  A    between atoms: C_1  and  C_2
REMARK    2  A    between atoms: C_2  and  C_3
REMARK    3  A    between atoms: C_3  and  N_4
REMARK    4  A    between atoms: N_7  and  C_8
REMARK    5  A    between atoms: N_7  and  S_11
REMARK    6  A    between atoms: C_8  and  C_9
REMARK    7  A    between atoms: C_8  and  C_10
REMARK    8  A    between atoms: S_11  and  C_14
REMARK                            x       y       z     vdW  Elec       q    Type
REMARK                         _______ _______ _______ _____ _____    ______ ____
ROOT
ATOM      1  N   UNL     1       5.943   3.983  15.306  0.00  0.00    +0.000 N 
ATOM      2  C   UNL     1       6.683   4.900  16.000  0.00  0.00    +0.000 C 
ATOM      3  O   UNL     1       7.651   5.445  15.485  0.00  0.00    +0.000 OA
ATOM      4  N   UNL     1       6.268   5.198  17.333  0.00  0.00    +0.000 N 
ATOM      5  H   UNL     1       5.332   3.379  15.855  0.00  0.00    +0.000 HD
ENDROOT
BRANCH   4   6
ATOM      6  C   UNL     1       6.981   6.176  18.238  0.00  0.00    +0.000 C 
ATOM      7  C   UNL     1       8.136   5.471  18.950  0.00  0.00    +0.000 C 
ATOM      8  C   UNL     1       7.491   7.438  17.545  0.00  0.00    +0.000 C 
ENDBRANCH   4   6
BRANCH   4   9
ATOM      9  S   UNL     1       4.905   4.463  18.059  0.00  0.00    +0.000 S 
ATOM     10  O   UNL     1       4.167   3.715  17.057  0.00  0.00    +0.000 OA
ATOM     11  O   UNL     1       5.296   3.821  19.296  0.00  0.00    +0.000 OA
BRANCH   9  12
ATOM     12  C   UNL     1       3.879   5.862  18.484  0.00  0.00    +0.000 A 
ATOM     13  C   UNL     1       3.715   6.907  17.564  0.00  0.00    +0.000 A 
ATOM     14  C   UNL     1       2.839   7.955  17.856  0.00  0.00    +0.000 A 
ATOM     15  C   UNL     1       2.119   7.947  19.050  0.00  0.00    +0.000 A 
ATOM     16 CL   UNL     1       1.034   9.233  19.403  0.00  0.00    +0.000 Cl
ATOM     17  C   UNL     1       2.264   6.893  19.954  0.00  0.00    +0.000 A 
ATOM     18  C   UNL     1       3.142   5.843  19.672  0.00  0.00    +0.000 A 
ENDBRANCH   9  12
ENDBRANCH   4   9
BRANCH   1  19
ATOM     19  C   UNL     1       6.239   3.516  13.970  0.00  0.00    +0.000 C 
BRANCH  19  21
ATOM     20  C   UNL     1       5.000   3.200  11.797  0.00  0.00    +0.000 C 
ATOM     21  C   UNL     1       5.285   4.140  12.955  0.00  0.00    +0.000 C 
ENDBRANCH  19  21
ENDBRANCH   1  19
TORSDOF 5
ENDMDL
MODEL 3
REMARK VINA RESULT:      -6.8      3.209      5.979
REMARK  Name = 
REMARK  8 active torsions:
REMARK  status: ('A' for Active; 'I' for Inactive)
REMARK    1  A    between atoms: C_1  and  C_2
REMARK    2  A    between atoms: C_2  and  C_3
REMARK    3  A    between atoms: C_3  and  N_4
REMARK    4  A    between atoms: N_7  and  C_8
REMARK    5  A    between atoms: N_7  and  S_11
REMARK    6  A    between atoms: C_8  and  C_9
REMARK    7  A    between atoms: C_8  and  C_10
REMARK    8  A    between atoms: S_11  and  C_14
REMARK                            x       y       z     vdW  Elec       q    Type
REMARK                         _______ _______ _______ _____ _____    ______ ____
ROOT
ATOM      1  N   UNL     1       3.239   6.523  17.977  0.00  0.00    +0.000 N 
ATOM      2  C   UNL     1       2.547   5.357  18.153  0.00  0.00    +0.000 C 
ATOM      3  O   UNL     1       1.362   5.278  17.854  0.00  0.00    +0.000 OA
ATOM      4  N   UNL     1       3.268   4.244  18.682  0.00  0.00    +0.000 N 
ATOM      5  H   UNL     1       4.122   6.610  18.478  0.00  0.00    +0.000 HD
ENDROOT
BRANCH   4   6
ATOM      6  C   UNL     1       2.651   2.891  18.948  0.00  0.00    +0.000 C 
ATOM      7  C   UNL     1       1.435   3.050  19.862  0.00  0.00    +0.000 C 
ATOM      8  C   UNL     1       2.261   2.105  17.698  0.00  0.00    +0.000 C 
ENDBRANCH   4   6
BRANCH   4   9
ATOM      9  S   UNL     1       4.929   4.330  19.082  0.00  0.00    +0.000 S 
ATOM     10  O   UNL     1       5.199   5.585  19.760  0.00  0.00    +0.000 OA
ATOM     11  O   UNL     1       5.353   3.081  19.676  0.00  0.00    +0.000 OA
BRANCH   9  12
ATOM     12  C   UNL     1       5.715   4.456  17.483  0.00  0.00    +0.000 A 
ATOM     13  C   UNL     1       5.157   3.793  16.381  0.00  0.00    +0.000 A 
ATOM     14  C   UNL     1       5.716   3.966  15.113  0.00  0.00    +0.000 A 
ATOM     15  C   UNL     1       6.812   4.812  14.946  0.00  0.00    +0.000 A 
ATOM     16 CL   UNL     1       7.493   5.032  13.383  0.00  0.00    +0.000 Cl
ATOM     17  C   UNL     1       7.351   5.492  16.040  0.00  0.00    +0.000 A 
ATOM     18  C   UNL     1       6.801   5.320  17.313  0.00  0.00    +0.000 A 
ENDBRANCH   9  12
ENDBRANCH   4   9
BRANCH   1  19
ATOM     19  C   UNL     1       2.668   7.765  17.504  0.00  0.00    +0.000 C 
BRANCH  19  21
ATOM     20  C   UNL     1       1.520   9.896  18.211  0.00  0.00    +0.000 C 
ATOM     21  C   UNL     1       2.001   8.523  18.648  0.00  0.00    +0.000 C 
ENDBRANCH  19  21
ENDBRANCH   1  19
TORSDOF 5
ENDMDL
MODEL 4
REMARK VINA RESULT:      -6.7      3.366      5.780
REMARK  Name = 
REMARK  8 active torsions:
REMARK  status: ('A' for Active; 'I' for Inactive)
REMARK    1  A    between atoms: C_1  and  C_2
REMARK    2  A    between atoms: C_2  and  C_3
REMARK    3  A    between atoms: C_3  and  N_4
REMARK    4  A    between atoms: N_7  and  C_8
REMARK    5  A    between atoms: N_7  and  S_11
REMARK    6  A    between atoms: C_8  and  C_9
REMARK    7  A    between atoms: C_8  and  C_10
REMARK    8  A    between atoms: S_11  and  C_14
REMARK                            x       y       z     vdW  Elec       q    Type
REMARK                         _______ _______ _______ _____ _____    ______ ____
ROOT
ATOM      1  N   UNL     1       2.413   6.145  18.914  0.00  0.00    +0.000 N 
ATOM      2  C   UNL     1       2.241   5.145  19.830  0.00  0.00    +0.000 C 
ATOM      3  O   UNL     1       1.800   5.385  20.947  0.00  0.00    +0.000 OA
ATOM      4  N   UNL     1       2.582   3.820  19.420  0.00  0.00    +0.000 N 
ATOM      5  H   UNL     1       3.018   5.939  18.119  0.00  0.00    +0.000 HD
ENDROOT
BRANCH   4   6
ATOM      6  C   UNL     1       2.463   2.607  20.313  0.00  0.00    +0.000 C 
ATOM      7  C   UNL     1       3.779   2.386  21.060  0.00  0.00    +0.000 C 
ATOM      8  C   UNL     1       1.303   2.650  21.305  0.00  0.00    +0.000 C 
ENDBRANCH   4   6
BRANCH   4   9
ATOM      9  S   UNL     1       3.176   3.465  17.856  0.00  0.00    +0.000 S 
ATOM     10  O   UNL     1       3.739   2.127  17.845  0.00  0.00    +0.000 OA
ATOM     11  O   UNL     1       2.194   3.844  16.863  0.00  0.00    +0.000 OA
BRANCH   9  12
ATOM     12  C   UNL     1       4.559   4.583  17.694  0.00  0.00    +0.000 A 
ATOM     13  C   UNL     1       4.584   5.507  16.640  0.00  0.00    +0.000 A 
ATOM     14  C   UNL     1       5.616   6.445  16.566  0.00  0.00    +0.000 A 
ATOM     15  C   UNL     1       6.604   6.471  17.550  0.00  0.00    +0.000 A 
ATOM     16 CL   UNL     1       7.869   7.633  17.462  0.00  0.00    +0.000 Cl
ATOM     17  C   UNL     1       6.564   5.567  18.613  0.00  0.00    +0.000 A 
ATOM     18  C   UNL     1       5.537   4.622  18.692  0.00  0.00    +0.000 A 
ENDBRANCH   9  12
ENDBRANCH   4   9
BRANCH   1  19
ATOM     19  C   UNL     1       2.173   7.550  19.162  0.00  0.00    +0.000 C 
BRANCH  19  21
ATOM     20  C   UNL     1       1.735   9.727  17.968  0.00  0.00    +0.000 C 
ATOM     21  C   UNL     1       2.418   8.372  17.900  0.00  0.00    +0.000 C 
ENDBRANCH  19  21
ENDBRANCH   1  19
TORSDOF 5
ENDMDL
MODEL 5
REMARK VINA RESULT:      -6.7      1.293      3.975
REMARK  Name = 
REMARK  8 active torsions:
REMARK  status: ('A' for Active; 'I' for Inactive)
REMARK    1  A    between atoms: C_1  and  C_2
REMARK    2  A    between atoms: C_2  and  C_3
REMARK    3  A    between atoms: C_3  and  N_4
REMARK    4  A    between atoms: N_7  and  C_8
REMARK    5  A    between atoms: N_7  and  S_11
REMARK    6  A    between atoms: C_8  and  C_9
REMARK    7  A    between atoms: C_8  and  C_10
REMARK    8  A    between atoms: S_11  and  C_14
REMARK                            x       y       z     vdW  Elec       q    Type
REMARK                         _______ _______ _______ _____ _____    ______ ____
ROOT
ATOM      1  N   UNL     1       7.261   6.367  18.315  0.00  0.00    +0.000 N 
ATOM      2  C   UNL     1       6.975   5.981  17.035  0.00  0.00    +0.000 C 
ATOM      3  O   UNL     1       7.658   6.366  16.095  0.00  0.00    +0.000 OA
ATOM      4  N   UNL     1       5.863   5.105  16.852  0.00  0.00    +0.000 N 
ATOM      5  H   UNL     1       6.522   6.240  19.007  0.00  0.00    +0.000 HD
ENDROOT
BRANCH   4   6
ATOM      6  C   UNL     1       5.407   4.595  15.504  0.00  0.00    +0.000 C 
ATOM      7  C   UNL     1       5.184   5.774  14.556  0.00  0.00    +0.000 C 
ATOM      8  C   UNL     1       6.338   3.574  14.854  0.00  0.00    +0.000 C 
ENDBRANCH   4   6
BRANCH   4   9
ATOM      9  S   UNL     1       4.913   4.537  18.156  0.00  0.00    +0.000 S 
ATOM     10  O   UNL     1       4.019   3.494  17.686  0.00  0.00    +0.000 OA
ATOM     11  O   UNL     1       5.756   4.302  19.309  0.00  0.00    +0.000 OA
BRANCH   9  12
ATOM     12  C   UNL     1       3.876   5.942  18.531  0.00  0.00    +0.000 A 
ATOM     13  C   UNL     1       3.751   6.981  17.599  0.00  0.00    +0.000 A 
ATOM     14  C   UNL     1       2.868   8.034  17.849  0.00  0.00    +0.000 A 
ATOM     15  C   UNL     1       2.101   8.036  19.014  0.00  0.00    +0.000 A 
ATOM     16 CL   UNL     1       1.008   9.328  19.316  0.00  0.00    +0.000 Cl
ATOM     17  C   UNL     1       2.208   6.988  19.930  0.00  0.00    +0.000 A 
ATOM     18  C   UNL     1       3.093   5.934  19.689  0.00  0.00    +0.000 A 
ENDBRANCH   9  12
ENDBRANCH   4   9
BRANCH   1  19
ATOM     19  C   UNL     1       8.311   7.288  18.691  0.00  0.00    +0.000 C 
BRANCH  19  21
ATOM     20  C   UNL     1       8.894   9.741  18.715  0.00  0.00    +0.000 C 
ATOM     21  C   UNL     1       8.108   8.643  18.019  0.00  0.00    +0.000 C 
ENDBRANCH  19  21
ENDBRANCH   1  19
TORSDOF 5
ENDMDL
MODEL 6
REMARK VINA RESULT:      -6.7      1.358      3.834
REMARK  Name = 
REMARK  8 active torsions:
REMARK  status: ('A' for Active; 'I' for Inactive)
REMARK    1  A    between atoms: C_1  and  C_2
REMARK    2  A    between atoms: C_2  and  C_3
REMARK    3  A    between atoms: C_3  and  N_4
REMARK    4  A    between atoms: N_7  and  C_8
REMARK    5  A    between atoms: N_7  and  S_11
REMARK    6  A    between atoms: C_8  and  C_9
REMARK    7  A    between atoms: C_8  and  C_10
REMARK    8  A    between atoms: S_11  and  C_14
REMARK                            x       y       z     vdW  Elec       q    Type
REMARK                         _______ _______ _______ _____ _____    ______ ____
ROOT
ATOM      1  N   UNL     1       7.303   6.481  18.278  0.00  0.00    +0.000 N 
ATOM      2  C   UNL     1       6.993   6.024  17.027  0.00  0.00    +0.000 C 
ATOM      3  O   UNL     1       7.639   6.381  16.050  0.00  0.00    +0.000 OA
ATOM      4  N   UNL     1       5.902   5.110  16.919  0.00  0.00    +0.000 N 
ATOM      5  H   UNL     1       6.587   6.369  18.996  0.00  0.00    +0.000 HD
ENDROOT
BRANCH   4   6
ATOM      6  C   UNL     1       5.424   4.521  15.612  0.00  0.00    +0.000 C 
ATOM      7  C   UNL     1       5.181   5.643  14.601  0.00  0.00    +0.000 C 
ATOM      8  C   UNL     1       6.346   3.466  15.006  0.00  0.00    +0.000 C 
ENDBRANCH   4   6
BRANCH   4   9
ATOM      9  S   UNL     1       5.004   4.583  18.277  0.00  0.00    +0.000 S 
ATOM     10  O   UNL     1       4.231   3.408  17.919  0.00  0.00    +0.000 OA
ATOM     11  O   UNL     1       5.856   4.558  19.446  0.00  0.00    +0.000 OA
BRANCH   9  12
ATOM     12  C   UNL     1       3.821   5.901  18.506  0.00  0.00    +0.000 A 
ATOM     13  C   UNL     1       3.041   5.939  19.669  0.00  0.00    +0.000 A 
ATOM     14  C   UNL     1       2.184   7.019  19.894  0.00  0.00    +0.000 A 
ATOM     15  C   UNL     1       2.125   8.063  18.971  0.00  0.00    +0.000 A 
ATOM     16 CL   UNL     1       1.077   9.396  19.254  0.00  0.00    +0.000 Cl
ATOM     17  C   UNL     1       2.921   8.037  17.825  0.00  0.00    +0.000 A 
ATOM     18  C   UNL     1       3.777   6.957  17.590  0.00  0.00    +0.000 A 
ENDBRANCH   9  12
ENDBRANCH   4   9
BRANCH   1  19
ATOM     19  C   UNL     1       8.336   7.447  18.578  0.00  0.00    +0.000 C 
BRANCH  19  21
ATOM     20  C   UNL     1       8.892   9.907  18.546  0.00  0.00    +0.000 C 
ATOM     21  C   UNL     1       7.974   8.819  18.016  0.00  0.00    +0.000 C 
ENDBRANCH  19  21
ENDBRANCH   1  19
TORSDOF 5
ENDMDL
MODEL 7
REMARK VINA RESULT:      -6.7      3.219      6.029
REMARK  Name = 
REMARK  8 active torsions:
REMARK  status: ('A' for Active; 'I' for Inactive)
REMARK    1  A    between atoms: C_1  and  C_2
REMARK    2  A    between atoms: C_2  and  C_3
REMARK    3  A    between atoms: C_3  and  N_4
REMARK    4  A    between atoms: N_7  and  C_8
REMARK    5  A    between atoms: N_7  and  S_11
REMARK    6  A    between atoms: C_8  and  C_9
REMARK    7  A    between atoms: C_8  and  C_10
REMARK    8  A    between atoms: S_11  and  C_14
REMARK                            x       y       z     vdW  Elec       q    Type
REMARK                         _______ _______ _______ _____ _____    ______ ____
ROOT
ATOM      1  N   UNL     1       3.166   6.584  17.996  0.00  0.00    +0.000 N 
ATOM      2  C   UNL     1       2.504   5.404  18.197  0.00  0.00    +0.000 C 
ATOM      3  O   UNL     1       1.307   5.306  17.954  0.00  0.00    +0.000 OA
ATOM      4  N   UNL     1       3.269   4.302  18.685  0.00  0.00    +0.000 N 
ATOM      5  H   UNL     1       4.070   6.684  18.456  0.00  0.00    +0.000 HD
ENDROOT
BRANCH   4   6
ATOM      6  C   UNL     1       2.689   2.937  18.971  0.00  0.00    +0.000 C 
ATOM      7  C   UNL     1       1.509   3.070  19.936  0.00  0.00    +0.000 C 
ATOM      8  C   UNL     1       2.262   2.147  17.735  0.00  0.00    +0.000 C 
ENDBRANCH   4   6
BRANCH   4   9
ATOM      9  S   UNL     1       4.945   4.416  19.007  0.00  0.00    +0.000 S 
ATOM     10  O   UNL     1       5.214   5.639  19.741  0.00  0.00    +0.000 OA
ATOM     11  O   UNL     1       5.433   3.149  19.509  0.00  0.00    +0.000 OA
BRANCH   9  12
ATOM     12  C   UNL     1       5.646   4.652  17.381  0.00  0.00    +0.000 A 
ATOM     13  C   UNL     1       6.709   5.548  17.208  0.00  0.00    +0.000 A 
ATOM     14  C   UNL     1       7.321   5.664  15.957  0.00  0.00    +0.000 A 
ATOM     15  C   UNL     1       6.884   4.874  14.895  0.00  0.00    +0.000 A 
ATOM     16 CL   UNL     1       7.644   5.010  13.359  0.00  0.00    +0.000 Cl
ATOM     17  C   UNL     1       5.842   3.963  15.075  0.00  0.00    +0.000 A 
ATOM     18  C   UNL     1       5.221   3.845  16.322  0.00  0.00    +0.000 A 
ENDBRANCH   9  12
ENDBRANCH   4   9
BRANCH   1  19
ATOM     19  C   UNL     1       2.552   7.819  17.559  0.00  0.00    +0.000 C 
BRANCH  19  21
ATOM     20  C   UNL     1       1.339   9.895  18.316  0.00  0.00    +0.000 C 
ATOM     21  C   UNL     1       1.944   8.568  18.741  0.00  0.00    +0.000 C 
ENDBRANCH  19  21
ENDBRANCH   1  19
TORSDOF 5
ENDMDL
MODEL 8
REMARK VINA RESULT:      -6.7      2.383      2.966
REMARK  Name = 
REMARK  8 active torsions:
REMARK  status: ('A' for Active; 'I' for Inactive)
REMARK    1  A    between atoms: C_1  and  C_2
REMARK    2  A    between atoms: C_2  and  C_3
REMARK    3  A    between atoms: C_3  and  N_4
REMARK    4  A    between atoms: N_7  and  C_8
REMARK    5  A    between atoms: N_7  and  S_11
REMARK    6  A    between atoms: C_8  and  C_9
REMARK    7  A    between atoms: C_8  and  C_10
REMARK    8  A    between atoms: S_11  and  C_14
REMARK                            x       y       z     vdW  Elec       q    Type
REMARK                         _______ _______ _______ _____ _____    ______ ____
ROOT
ATOM      1  N   UNL     1       6.250   4.791  14.620  0.00  0.00    +0.000 N 
ATOM      2  C   UNL     1       6.995   4.799  15.766  0.00  0.00    +0.000 C 
ATOM      3  O   UNL     1       8.031   4.152  15.847  0.00  0.00    +0.000 OA
ATOM      4  N   UNL     1       6.519   5.602  16.847  0.00  0.00    +0.000 N 
ATOM      5  H   UNL     1       5.288   5.120  14.697  0.00  0.00    +0.000 HD
ENDROOT
BRANCH   4   6
ATOM      6  C   UNL     1       7.216   5.713  18.183  0.00  0.00    +0.000 C 
ATOM      7  C   UNL     1       7.882   7.084  18.305  0.00  0.00    +0.000 C 
ATOM      8  C   UNL     1       6.324   5.458  19.396  0.00  0.00    +0.000 C 
ENDBRANCH   4   6
BRANCH   4   9
ATOM      9  S   UNL     1       5.087   6.532  16.742  0.00  0.00    +0.000 S 
ATOM     10  O   UNL     1       5.105   7.564  17.762  0.00  0.00    +0.000 OA
ATOM     11  O   UNL     1       4.833   6.884  15.361  0.00  0.00    +0.000 OA
BRANCH   9  12
ATOM     12  C   UNL     1       3.824   5.370  17.238  0.00  0.00    +0.000 A 
ATOM     13  C   UNL     1       3.968   4.012  16.923  0.00  0.00    +0.000 A 
ATOM     14  C   UNL     1       3.030   3.089  17.391  0.00  0.00    +0.000 A 
ATOM     15  C   UNL     1       1.969   3.520  18.187  0.00  0.00    +0.000 A 
ATOM     16 CL   UNL     1       0.820   2.381  18.771  0.00  0.00    +0.000 Cl
ATOM     17  C   UNL     1       1.841   4.869  18.522  0.00  0.00    +0.000 A 
ATOM     18  C   UNL     1       2.772   5.800  18.052  0.00  0.00    +0.000 A 
ENDBRANCH   9  12
ENDBRANCH   4   9
BRANCH   1  19
ATOM     19  C   UNL     1       6.542   4.000  13.444  0.00  0.00    +0.000 C 
BRANCH  19  21
ATOM     20  C   UNL     1       5.502   2.540  11.672  0.00  0.00    +0.000 C 
ATOM     21  C   UNL     1       5.257   3.611  12.721  0.00  0.00    +0.000 C 
ENDBRANCH  19  21
ENDBRANCH   1  19
TORSDOF 5
ENDMDL
MODEL 9
REMARK VINA RESULT:      -6.5      2.560      4.354
REMARK  Name = 
REMARK  8 active torsions:
REMARK  status: ('A' for Active; 'I' for Inactive)
REMARK    1  A    between atoms: C_1  and  C_2
REMARK    2  A    between atoms: C_2  and  C_3
REMARK    3  A    between atoms: C_3  and  N_4
REMARK    4  A    between atoms: N_7  and  C_8
REMARK    5  A    between atoms: N_7  and  S_11
REMARK    6  A    between atoms: C_8  and  C_9
REMARK    7  A    between atoms: C_8  and  C_10
REMARK    8  A    between atoms: S_11  and  C_14
REMARK                            x       y       z     vdW  Elec       q    Type
REMARK                         _______ _______ _______ _____ _____    ______ ____
ROOT
ATOM      1  N   UNL     1       5.481   5.129  18.852  0.00  0.00    +0.000 N 
ATOM      2  C   UNL     1       4.795   4.058  19.355  0.00  0.00    +0.000 C 
ATOM      3  O   UNL     1       5.315   3.305  20.168  0.00  0.00    +0.000 OA
ATOM      4  N   UNL     1       3.454   3.872  18.902  0.00  0.00    +0.000 N 
ATOM      5  H   UNL     1       5.108   5.552  18.003  0.00  0.00    +0.000 HD
ENDROOT
BRANCH   4   6
ATOM      6  C   UNL     1       2.566   2.734  19.348  0.00  0.00    +0.000 C 
ATOM      7  C   UNL     1       3.088   1.416  18.774  0.00  0.00    +0.000 C 
ATOM      8  C   UNL     1       2.393   2.609  20.861  0.00  0.00    +0.000 C 
ENDBRANCH   4   6
BRANCH   4   9
ATOM      9  S   UNL     1       2.705   4.928  17.784  0.00  0.00    +0.000 S 
ATOM     10  O   UNL     1       3.687   5.386  16.818  0.00  0.00    +0.000 OA
ATOM     11  O   UNL     1       1.457   4.353  17.330  0.00  0.00    +0.000 OA
BRANCH   9  12
ATOM     12  C   UNL     1       2.303   6.348  18.790  0.00  0.00    +0.000 A 
ATOM     13  C   UNL     1       2.241   7.619  18.202  0.00  0.00    +0.000 A 
ATOM     14  C   UNL     1       1.835   8.716  18.965  0.00  0.00    +0.000 A 
ATOM     15  C   UNL     1       1.474   8.538  20.300  0.00  0.00    +0.000 A 
ATOM     16 CL   UNL     1       0.965   9.888  21.236  0.00  0.00    +0.000 Cl
ATOM     17  C   UNL     1       1.511   7.268  20.878  0.00  0.00    +0.000 A 
ATOM     18  C   UNL     1       1.922   6.166  20.122  0.00  0.00    +0.000 A 
ENDBRANCH   9  12
ENDBRANCH   4   9
BRANCH   1  19
ATOM     19  C   UNL     1       6.859   5.449  19.151  0.00  0.00    +0.000 C 
BRANCH  19  21
ATOM     20  C   UNL     1       7.095   4.636  16.776  0.00  0.00    +0.000 C 
ATOM     21  C   UNL     1       7.794   4.842  18.109  0.00  0.00    +0.000 C 
ENDBRANCH  19  21
ENDBRANCH   1  19
TORSDOF 5
ENDMDL
