MODEL 1
REMARK VINA RESULT:      -7.2      0.000      0.000
REMARK  Name = 
REMARK  5 active torsions:
REMARK  status: ('A' for Active; 'I' for Inactive)
REMARK    1  A    between atoms: C_1  and  C_2
REMARK    2  A    between atoms: C_10  and  C_12
REMARK    3  A    between atoms: C_12  and  C_13
REMARK    4  A    between atoms: C_13  and  C_14
REMARK    5  A    between atoms: C_14  and  N_15
REMARK                            x       y       z     vdW  Elec       q    Type
REMARK                         _______ _______ _______ _____ _____    ______ ____
ROOT
ATOM      1  C   UNL     1       1.274   2.280  21.744  0.00  0.00    +0.000 C 
ATOM      2  C   UNL     1       1.813   2.524  20.383  0.00  0.00    +0.000 A 
ATOM      3  C   UNL     1       1.293   2.038  19.205  0.00  0.00    +0.000 A 
ATOM      4  S   UNL     1       2.228   2.577  17.888  0.00  0.00    +0.000 S 
ATOM      5  C   UNL     1       3.285   3.435  18.966  0.00  0.00    +0.000 A 
ATOM      6  N   UNL     1       4.317   4.211  18.523  0.00  0.00    +0.000 N 
ATOM      7  C   UNL     1       5.015   3.940  17.257  0.00  0.00    +0.000 C 
ATOM      8  C   UNL     1       5.509   5.260  16.638  0.00  0.00    +0.000 C 
ATOM      9  N   UNL     1       6.282   6.061  17.598  0.00  0.00    +0.000 N 
ATOM     10  C   UNL     1       7.439   6.686  17.169  0.00  0.00    +0.000 C 
ATOM     11  O   UNL     1       7.892   6.508  16.037  0.00  0.00    +0.000 OA
ATOM     12  C   UNL     1       5.605   6.269  18.890  0.00  0.00    +0.000 C 
ATOM     13  C   UNL     1       5.130   4.938  19.505  0.00  0.00    +0.000 C 
ATOM     14  N   UNL     1       2.940   3.319  20.233  0.00  0.00    +0.000 NA
ENDROOT
BRANCH  10  15
ATOM     15  C   UNL     1       8.182   7.564  18.165  0.00  0.00    +0.000 C 
BRANCH  15  16
ATOM     16  C   UNL     1       8.033   9.055  17.859  0.00  0.00    +0.000 C 
BRANCH  16  17
ATOM     17  C   UNL     1       8.904   9.891  18.800  0.00  0.00    +0.000 C 
BRANCH  17  18
ATOM     18  N   UNL     1       9.672  10.855  18.037  0.00  0.00    +0.000 N 
ATOM     19  C   UNL     1       9.452  12.168  18.453  0.00  0.00    +0.000 A 
ATOM     20  N   UNL     1       9.198  12.430  19.747  0.00  0.00    +0.000 NA
ATOM     21  C   UNL     1       8.964  13.712  20.074  0.00  0.00    +0.000 A 
ATOM     22  C   UNL     1       8.977  14.740  19.170  0.00  0.00    +0.000 A 
ATOM     23  C   UNL     1       9.253  14.372  17.875  0.00  0.00    +0.000 A 
ATOM     24  N   UNL     1       9.485  13.100  17.496  0.00  0.00    +0.000 NA
ATOM     25  H   UNL     1       9.488  10.862  17.039  0.00  0.00    +0.000 HD
ENDBRANCH  17  18
ENDBRANCH  16  17
ENDBRANCH  15  16
ENDBRANCH  10  15
TORSDOF 4
ENDMDL
MODEL 2
REMARK VINA RESULT:      -7.2      5.467      7.925
REMARK  Name = 
REMARK  5 active torsions:
REMARK  status: ('A' for Active; 'I' for Inactive)
REMARK    1  A    between atoms: C_1  and  C_2
REMARK    2  A    between atoms: C_10  and  C_12
REMARK    3  A    between atoms: C_12  and  C_13
REMARK    4  A    between atoms: C_13  and  C_14
REMARK    5  A    between atoms: C_14  and  N_15
REMARK                            x       y       z     vdW  Elec       q    Type
REMARK                         _______ _______ _______ _____ _____    ______ ____
ROOT
ATOM      1  C   UNL     1      -0.019  12.965  18.578  0.00  0.00    +0.000 C 
ATOM      2  C   UNL     1       0.024  11.725  19.393  0.00  0.00    +0.000 A 
ATOM      3  C   UNL     1      -0.723  11.467  20.520  0.00  0.00    +0.000 A 
ATOM      4  S   UNL     1      -0.355   9.918  21.122  0.00  0.00    +0.000 S 
ATOM      5  C   UNL     1       0.791   9.671  19.840  0.00  0.00    +0.000 A 
ATOM      6  N   UNL     1       1.467   8.498  19.674  0.00  0.00    +0.000 N 
ATOM      7  C   UNL     1       1.788   7.610  20.802  0.00  0.00    +0.000 C 
ATOM      8  C   UNL     1       1.804   6.145  20.328  0.00  0.00    +0.000 C 
ATOM      9  N   UNL     1       2.660   5.960  19.147  0.00  0.00    +0.000 N 
ATOM     10  C   UNL     1       3.487   4.853  19.088  0.00  0.00    +0.000 C 
ATOM     11  O   UNL     1       3.601   4.076  20.037  0.00  0.00    +0.000 OA
ATOM     12  C   UNL     1       2.379   6.900  18.048  0.00  0.00    +0.000 C 
ATOM     13  C   UNL     1       2.381   8.362  18.533  0.00  0.00    +0.000 C 
ATOM     14  N   UNL     1       0.875  10.696  19.015  0.00  0.00    +0.000 NA
ENDROOT
BRANCH  10  15
ATOM     15  C   UNL     1       4.311   4.649  17.825  0.00  0.00    +0.000 C 
BRANCH  15  16
ATOM     16  C   UNL     1       5.653   5.382  17.874  0.00  0.00    +0.000 C 
BRANCH  16  17
ATOM     17  C   UNL     1       6.665   4.720  16.936  0.00  0.00    +0.000 C 
BRANCH  17  18
ATOM     18  N   UNL     1       7.045   5.645  15.887  0.00  0.00    +0.000 N 
ATOM     19  C   UNL     1       6.961   5.079  14.615  0.00  0.00    +0.000 A 
ATOM     20  N   UNL     1       6.017   4.160  14.348  0.00  0.00    +0.000 NA
ATOM     21  C   UNL     1       6.012   3.632  13.113  0.00  0.00    +0.000 A 
ATOM     22  C   UNL     1       6.902   3.984  12.135  0.00  0.00    +0.000 A 
ATOM     23  C   UNL     1       7.823   4.936  12.502  0.00  0.00    +0.000 A 
ATOM     24  N   UNL     1       7.875   5.488  13.729  0.00  0.00    +0.000 NA
ATOM     25  H   UNL     1       7.991   6.007  15.951  0.00  0.00    +0.000 HD
ENDBRANCH  17  18
ENDBRANCH  16  17
ENDBRANCH  15  16
ENDBRANCH  10  15
TORSDOF 4
ENDMDL
MODEL 3
REMARK VINA RESULT:      -7.0      6.068      8.351
REMARK  Name = 
REMARK  5 active torsions:
REMARK  status: ('A' for Active; 'I' for Inactive)
REMARK    1  A    between atoms: C_1  and  C_2
REMARK    2  A    between atoms: C_10  and  C_12
REMARK    3  A    between atoms: C_12  and  C_13
REMARK    4  A    between atoms: C_13  and  C_14
REMARK    5  A    between atoms: C_14  and  N_15
REMARK                            x       y       z     vdW  Elec       q    Type
REMARK                         _______ _______ _______ _____ _____    ______ ____
ROOT
ATOM      1  C   UNL     1      -3.031  13.028  22.122  0.00  0.00    +0.000 C 
ATOM      2  C   UNL     1      -2.081  12.758  21.014  0.00  0.00    +0.000 A 
ATOM      3  C   UNL     1      -1.719  13.641  20.022  0.00  0.00    +0.000 A 
ATOM      4  S   UNL     1      -0.598  12.909  18.970  0.00  0.00    +0.000 S 
ATOM      5  C   UNL     1      -0.656  11.442  19.898  0.00  0.00    +0.000 A 
ATOM      6  N   UNL     1       0.126  10.361  19.615  0.00  0.00    +0.000 N 
ATOM      7  C   UNL     1       0.592  10.064  18.252  0.00  0.00    +0.000 C 
ATOM      8  C   UNL     1       1.966   9.371  18.307  0.00  0.00    +0.000 C 
ATOM      9  N   UNL     1       1.960   8.213  19.211  0.00  0.00    +0.000 N 
ATOM     10  C   UNL     1       2.601   7.053  18.815  0.00  0.00    +0.000 C 
ATOM     11  O   UNL     1       3.087   6.931  17.690  0.00  0.00    +0.000 OA
ATOM     12  C   UNL     1       1.426   8.501  20.553  0.00  0.00    +0.000 C 
ATOM     13  C   UNL     1       0.044   9.180  20.484  0.00  0.00    +0.000 C 
ATOM     14  N   UNL     1      -1.467  11.516  20.935  0.00  0.00    +0.000 NA
ENDROOT
BRANCH  10  15
ATOM     15  C   UNL     1       2.639   5.892  19.798  0.00  0.00    +0.000 C 
BRANCH  15  16
ATOM     16  C   UNL     1       2.478   4.535  19.112  0.00  0.00    +0.000 C 
BRANCH  16  17
ATOM     17  C   UNL     1       3.646   3.609  19.462  0.00  0.00    +0.000 C 
BRANCH  17  18
ATOM     18  N   UNL     1       4.491   3.421  18.300  0.00  0.00    +0.000 N 
ATOM     19  C   UNL     1       5.554   4.323  18.257  0.00  0.00    +0.000 A 
ATOM     20  N   UNL     1       6.119   4.752  19.399  0.00  0.00    +0.000 NA
ATOM     21  C   UNL     1       7.117   5.645  19.287  0.00  0.00    +0.000 A 
ATOM     22  C   UNL     1       7.577   6.123  18.089  0.00  0.00    +0.000 A 
ATOM     23  C   UNL     1       6.940   5.619  16.980  0.00  0.00    +0.000 A 
ATOM     24  N   UNL     1       5.930   4.730  17.040  0.00  0.00    +0.000 NA
ATOM     25  H   UNL     1       4.026   3.522  17.405  0.00  0.00    +0.000 HD
ENDBRANCH  17  18
ENDBRANCH  16  17
ENDBRANCH  15  16
ENDBRANCH  10  15
TORSDOF 4
ENDMDL
MODEL 4
REMARK VINA RESULT:      -6.8      5.206      8.478
REMARK  Name = 
REMARK  5 active torsions:
REMARK  status: ('A' for Active; 'I' for Inactive)
REMARK    1  A    between atoms: C_1  and  C_2
REMARK    2  A    between atoms: C_10  and  C_12
REMARK    3  A    between atoms: C_12  and  C_13
REMARK    4  A    between atoms: C_13  and  C_14
REMARK    5  A    between atoms: C_14  and  N_15
REMARK                            x       y       z     vdW  Elec       q    Type
REMARK                         _______ _______ _______ _____ _____    ______ ____
ROOT
ATOM      1  C   UNL     1      -0.724   9.255  22.946  0.00  0.00    +0.000 C 
ATOM      2  C   UNL     1       0.035   9.509  21.696  0.00  0.00    +0.000 A 
ATOM      3  C   UNL     1       0.160  10.721  21.055  0.00  0.00    +0.000 A 
ATOM      4  S   UNL     1       1.126  10.547  19.664  0.00  0.00    +0.000 S 
ATOM      5  C   UNL     1       1.327   8.853  19.992  0.00  0.00    +0.000 A 
ATOM      6  N   UNL     1       2.117   8.045  19.227  0.00  0.00    +0.000 N 
ATOM      7  C   UNL     1       2.358   8.303  17.800  0.00  0.00    +0.000 C 
ATOM      8  C   UNL     1       3.762   7.810  17.408  0.00  0.00    +0.000 C 
ATOM      9  N   UNL     1       3.990   6.418  17.818  0.00  0.00    +0.000 N 
ATOM     10  C   UNL     1       4.627   5.558  16.942  0.00  0.00    +0.000 C 
ATOM     11  O   UNL     1       4.917   5.898  15.793  0.00  0.00    +0.000 OA
ATOM     12  C   UNL     1       3.680   6.151  19.233  0.00  0.00    +0.000 C 
ATOM     13  C   UNL     1       2.265   6.634  19.608  0.00  0.00    +0.000 C 
ATOM     14  N   UNL     1       0.706   8.459  21.086  0.00  0.00    +0.000 NA
ENDROOT
BRANCH  10  15
ATOM     15  C   UNL     1       4.912   4.141  17.418  0.00  0.00    +0.000 C 
BRANCH  15  16
ATOM     16  C   UNL     1       3.743   3.189  17.161  0.00  0.00    +0.000 C 
BRANCH  16  17
ATOM     17  C   UNL     1       4.096   1.767  17.603  0.00  0.00    +0.000 C 
BRANCH  17  18
ATOM     18  N   UNL     1       4.210   1.713  19.047  0.00  0.00    +0.000 N 
ATOM     19  C   UNL     1       3.086   2.226  19.695  0.00  0.00    +0.000 A 
ATOM     20  N   UNL     1       1.868   2.086  19.142  0.00  0.00    +0.000 NA
ATOM     21  C   UNL     1       0.833   2.631  19.801  0.00  0.00    +0.000 A 
ATOM     22  C   UNL     1       0.959   3.303  20.987  0.00  0.00    +0.000 A 
ATOM     23  C   UNL     1       2.241   3.386  21.475  0.00  0.00    +0.000 A 
ATOM     24  N   UNL     1       3.312   2.865  20.846  0.00  0.00    +0.000 NA
ATOM     25  H   UNL     1       4.994   2.224  19.439  0.00  0.00    +0.000 HD
ENDBRANCH  17  18
ENDBRANCH  16  17
ENDBRANCH  15  16
ENDBRANCH  10  15
TORSDOF 4
ENDMDL
MODEL 5
REMARK VINA RESULT:      -6.7      5.593      9.252
REMARK  Name = 
REMARK  5 active torsions:
REMARK  status: ('A' for Active; 'I' for Inactive)
REMARK    1  A    between atoms: C_1  and  C_2
REMARK    2  A    between atoms: C_10  and  C_12
REMARK    3  A    between atoms: C_12  and  C_13
REMARK    4  A    between atoms: C_13  and  C_14
REMARK    5  A    between atoms: C_14  and  N_15
REMARK                            x       y       z     vdW  Elec       q    Type
REMARK                         _______ _______ _______ _____ _____    ______ ____
ROOT
ATOM      1  C   UNL     1      -1.192  13.921  19.351  0.00  0.00    +0.000 C 
ATOM      2  C   UNL     1      -0.845  12.664  20.061  0.00  0.00    +0.000 A 
ATOM      3  C   UNL     1      -1.351  12.251  21.273  0.00  0.00    +0.000 A 
ATOM      4  S   UNL     1      -0.680  10.746  21.702  0.00  0.00    +0.000 S 
ATOM      5  C   UNL     1       0.255  10.725  20.239  0.00  0.00    +0.000 A 
ATOM      6  N   UNL     1       1.046   9.670  19.887  0.00  0.00    +0.000 N 
ATOM      7  C   UNL     1       1.669   8.788  20.885  0.00  0.00    +0.000 C 
ATOM      8  C   UNL     1       1.803   7.364  20.315  0.00  0.00    +0.000 C 
ATOM      9  N   UNL     1       2.464   7.357  19.003  0.00  0.00    +0.000 N 
ATOM     10  C   UNL     1       3.411   6.385  18.736  0.00  0.00    +0.000 C 
ATOM     11  O   UNL     1       3.787   5.590  19.600  0.00  0.00    +0.000 OA
ATOM     12  C   UNL     1       1.877   8.295  18.030  0.00  0.00    +0.000 C 
ATOM     13  C   UNL     1       1.765   9.719  18.607  0.00  0.00    +0.000 C 
ATOM     14  N   UNL     1       0.061  11.787  19.483  0.00  0.00    +0.000 NA
ENDROOT
BRANCH  10  15
ATOM     15  C   UNL     1       4.030   6.359  17.347  0.00  0.00    +0.000 C 
BRANCH  15  16
ATOM     16  C   UNL     1       5.069   5.248  17.186  0.00  0.00    +0.000 C 
BRANCH  16  17
ATOM     17  C   UNL     1       4.437   4.002  16.563  0.00  0.00    +0.000 C 
BRANCH  17  18
ATOM     18  N   UNL     1       4.440   2.914  17.521  0.00  0.00    +0.000 N 
ATOM     19  C   UNL     1       3.246   2.827  18.238  0.00  0.00    +0.000 A 
ATOM     20  N   UNL     1       2.084   3.163  17.653  0.00  0.00    +0.000 NA
ATOM     21  C   UNL     1       0.976   3.086  18.410  0.00  0.00    +0.000 A 
ATOM     22  C   UNL     1       0.978   2.686  19.718  0.00  0.00    +0.000 A 
ATOM     23  C   UNL     1       2.213   2.356  20.224  0.00  0.00    +0.000 A 
ATOM     24  N   UNL     1       3.353   2.426  19.509  0.00  0.00    +0.000 NA
ATOM     25  H   UNL     1       5.166   2.962  18.227  0.00  0.00    +0.000 HD
ENDBRANCH  17  18
ENDBRANCH  16  17
ENDBRANCH  15  16
ENDBRANCH  10  15
TORSDOF 4
ENDMDL
MODEL 6
REMARK VINA RESULT:      -6.7      5.511      7.856
REMARK  Name = 
REMARK  5 active torsions:
REMARK  status: ('A' for Active; 'I' for Inactive)
REMARK    1  A    between atoms: C_1  and  C_2
REMARK    2  A    between atoms: C_10  and  C_12
REMARK    3  A    between atoms: C_12  and  C_13
REMARK    4  A    between atoms: C_13  and  C_14
REMARK    5  A    between atoms: C_14  and  N_15
REMARK                            x       y       z     vdW  Elec       q    Type
REMARK                         _______ _______ _______ _____ _____    ______ ____
ROOT
ATOM      1  C   UNL     1       0.875  12.204  19.319  0.00  0.00    +0.000 C 
ATOM      2  C   UNL     1       0.686  10.895  19.994  0.00  0.00    +0.000 A 
ATOM      3  C   UNL     1      -0.174  10.638  21.037  0.00  0.00    +0.000 A 
ATOM      4  S   UNL     1      -0.069   9.000  21.489  0.00  0.00    +0.000 S 
ATOM      5  C   UNL     1       1.128   8.719  20.261  0.00  0.00    +0.000 A 
ATOM      6  N   UNL     1       1.648   7.483  20.011  0.00  0.00    +0.000 N 
ATOM      7  C   UNL     1       1.757   6.450  21.052  0.00  0.00    +0.000 C 
ATOM      8  C   UNL     1       1.609   5.053  20.422  0.00  0.00    +0.000 C 
ATOM      9  N   UNL     1       2.520   4.865  19.284  0.00  0.00    +0.000 N 
ATOM     10  C   UNL     1       3.190   3.661  19.156  0.00  0.00    +0.000 C 
ATOM     11  O   UNL     1       3.123   2.786  20.020  0.00  0.00    +0.000 OA
ATOM     12  C   UNL     1       2.455   5.940  18.279  0.00  0.00    +0.000 C 
ATOM     13  C   UNL     1       2.620   7.331  18.921  0.00  0.00    +0.000 C 
ATOM     14  N   UNL     1       1.415   9.798  19.560  0.00  0.00    +0.000 NA
ENDROOT
BRANCH  10  15
ATOM     15  C   UNL     1       4.073   3.468  17.932  0.00  0.00    +0.000 C 
BRANCH  15  16
ATOM     16  C   UNL     1       5.430   4.159  18.071  0.00  0.00    +0.000 C 
BRANCH  16  17
ATOM     17  C   UNL     1       5.891   4.723  16.725  0.00  0.00    +0.000 C 
BRANCH  17  18
ATOM     18  N   UNL     1       5.990   3.655  15.750  0.00  0.00    +0.000 N 
ATOM     19  C   UNL     1       6.538   4.081  14.540  0.00  0.00    +0.000 A 
ATOM     20  N   UNL     1       7.471   5.049  14.528  0.00  0.00    +0.000 NA
ATOM     21  C   UNL     1       7.934   5.435  13.327  0.00  0.00    +0.000 A 
ATOM     22  C   UNL     1       7.511   4.895  12.143  0.00  0.00    +0.000 A 
ATOM     23  C   UNL     1       6.562   3.907  12.260  0.00  0.00    +0.000 A 
ATOM     24  N   UNL     1       6.060   3.493  13.439  0.00  0.00    +0.000 NA
ATOM     25  H   UNL     1       5.111   3.216  15.498  0.00  0.00    +0.000 HD
ENDBRANCH  17  18
ENDBRANCH  16  17
ENDBRANCH  15  16
ENDBRANCH  10  15
TORSDOF 4
ENDMDL
MODEL 7
REMARK VINA RESULT:      -6.7      8.203      9.819
REMARK  Name = 
REMARK  5 active torsions:
REMARK  status: ('A' for Active; 'I' for Inactive)
REMARK    1  A    between atoms: C_1  and  C_2
REMARK    2  A    between atoms: C_10  and  C_12
REMARK    3  A    between atoms: C_12  and  C_13
REMARK    4  A    between atoms: C_13  and  C_14
REMARK    5  A    between atoms: C_14  and  N_15
REMARK                            x       y       z     vdW  Elec       q    Type
REMARK                         _______ _______ _______ _____ _____    ______ ____
ROOT
ATOM      1  C   UNL     1       4.042   6.388  17.651  0.00  0.00    +0.000 C 
ATOM      2  C   UNL     1       3.126   6.407  18.818  0.00  0.00    +0.000 A 
ATOM      3  C   UNL     1       2.850   5.346  19.650  0.00  0.00    +0.000 A 
ATOM      4  S   UNL     1       1.751   5.824  20.860  0.00  0.00    +0.000 S 
ATOM      5  C   UNL     1       1.701   7.432  20.205  0.00  0.00    +0.000 A 
ATOM      6  N   UNL     1       0.992   8.442  20.787  0.00  0.00    +0.000 N 
ATOM      7  C   UNL     1      -0.221   8.194  21.581  0.00  0.00    +0.000 C 
ATOM      8  C   UNL     1      -0.350   9.256  22.688  0.00  0.00    +0.000 C 
ATOM      9  N   UNL     1      -0.243  10.621  22.155  0.00  0.00    +0.000 N 
ATOM     10  C   UNL     1      -1.109  11.592  22.625  0.00  0.00    +0.000 C 
ATOM     11  O   UNL     1      -2.028  11.323  23.399  0.00  0.00    +0.000 OA
ATOM     12  C   UNL     1       0.939  10.842  21.303  0.00  0.00    +0.000 C 
ATOM     13  C   UNL     1       1.046   9.782  20.190  0.00  0.00    +0.000 C 
ATOM     14  N   UNL     1       2.472   7.586  19.147  0.00  0.00    +0.000 NA
ENDROOT
BRANCH  10  15
ATOM     15  C   UNL     1      -0.931  13.012  22.106  0.00  0.00    +0.000 C 
BRANCH  15  16
ATOM     16  C   UNL     1      -2.128  13.490  21.283  0.00  0.00    +0.000 C 
BRANCH  16  17
ATOM     17  C   UNL     1      -1.982  13.065  19.819  0.00  0.00    +0.000 C 
BRANCH  17  18
ATOM     18  N   UNL     1      -3.212  12.450  19.359  0.00  0.00    +0.000 N 
ATOM     19  C   UNL     1      -3.005  11.559  18.306  0.00  0.00    +0.000 A 
ATOM     20  N   UNL     1      -1.868  10.845  18.242  0.00  0.00    +0.000 NA
ATOM     21  C   UNL     1      -1.720  10.029  17.185  0.00  0.00    +0.000 A 
ATOM     22  C   UNL     1      -2.655   9.892  16.195  0.00  0.00    +0.000 A 
ATOM     23  C   UNL     1      -3.786  10.658  16.354  0.00  0.00    +0.000 A 
ATOM     24  N   UNL     1      -3.977  11.497  17.390  0.00  0.00    +0.000 NA
ATOM     25  H   UNL     1      -3.918  13.095  19.021  0.00  0.00    +0.000 HD
ENDBRANCH  17  18
ENDBRANCH  16  17
ENDBRANCH  15  16
ENDBRANCH  10  15
TORSDOF 4
ENDMDL
MODEL 8
REMARK VINA RESULT:      -6.6      8.091      9.976
REMARK  Name = 
REMARK  5 active torsions:
REMARK  status: ('A' for Active; 'I' for Inactive)
REMARK    1  A    between atoms: C_1  and  C_2
REMARK    2  A    between atoms: C_10  and  C_12
REMARK    3  A    between atoms: C_12  and  C_13
REMARK    4  A    between atoms: C_13  and  C_14
REMARK    5  A    between atoms: C_14  and  N_15
REMARK                            x       y       z     vdW  Elec       q    Type
REMARK                         _______ _______ _______ _____ _____    ______ ____
ROOT
ATOM      1  C   UNL     1       5.605   4.202  15.779  0.00  0.00    +0.000 C 
ATOM      2  C   UNL     1       5.079   4.655  17.091  0.00  0.00    +0.000 A 
ATOM      3  C   UNL     1       5.489   4.210  18.327  0.00  0.00    +0.000 A 
ATOM      4  S   UNL     1       4.620   5.011  19.553  0.00  0.00    +0.000 S 
ATOM      5  C   UNL     1       3.736   5.915  18.361  0.00  0.00    +0.000 A 
ATOM      6  N   UNL     1       2.830   6.879  18.693  0.00  0.00    +0.000 N 
ATOM      7  C   UNL     1       2.068   6.843  19.951  0.00  0.00    +0.000 C 
ATOM      8  C   UNL     1       1.773   8.276  20.427  0.00  0.00    +0.000 C 
ATOM      9  N   UNL     1       1.159   9.091  19.370  0.00  0.00    +0.000 N 
ATOM     10  C   UNL     1       0.105   9.926  19.696  0.00  0.00    +0.000 C 
ATOM     11  O   UNL     1      -0.396   9.929  20.822  0.00  0.00    +0.000 OA
ATOM     12  C   UNL     1       1.891   9.067  18.091  0.00  0.00    +0.000 C 
ATOM     13  C   UNL     1       2.165   7.626  17.618  0.00  0.00    +0.000 C 
ATOM     14  N   UNL     1       4.088   5.626  17.124  0.00  0.00    +0.000 NA
ENDROOT
BRANCH  10  15
ATOM     15  C   UNL     1      -0.467  10.809  18.597  0.00  0.00    +0.000 C 
BRANCH  15  16
ATOM     16  C   UNL     1      -1.811  10.299  18.074  0.00  0.00    +0.000 C 
BRANCH  16  17
ATOM     17  C   UNL     1      -2.725  11.468  17.699  0.00  0.00    +0.000 C 
BRANCH  17  18
ATOM     18  N   UNL     1      -3.295  12.053  18.897  0.00  0.00    +0.000 N 
ATOM     19  C   UNL     1      -4.690  12.036  18.892  0.00  0.00    +0.000 A 
ATOM     20  N   UNL     1      -5.348  11.027  18.294  0.00  0.00    +0.000 NA
ATOM     21  C   UNL     1      -6.690  11.089  18.298  0.00  0.00    +0.000 A 
ATOM     22  C   UNL     1      -7.401  12.107  18.874  0.00  0.00    +0.000 A 
ATOM     23  C   UNL     1      -6.638  13.086  19.465  0.00  0.00    +0.000 A 
ATOM     24  N   UNL     1      -5.292  13.074  19.480  0.00  0.00    +0.000 NA
ATOM     25  H   UNL     1      -3.045  13.021  19.066  0.00  0.00    +0.000 HD
ENDBRANCH  17  18
ENDBRANCH  16  17
ENDBRANCH  15  16
ENDBRANCH  10  15
TORSDOF 4
ENDMDL
MODEL 9
REMARK VINA RESULT:      -6.6      5.326      8.752
REMARK  Name = 
REMARK  5 active torsions:
REMARK  status: ('A' for Active; 'I' for Inactive)
REMARK    1  A    between atoms: C_1  and  C_2
REMARK    2  A    between atoms: C_10  and  C_12
REMARK    3  A    between atoms: C_12  and  C_13
REMARK    4  A    between atoms: C_13  and  C_14
REMARK    5  A    between atoms: C_14  and  N_15
REMARK                            x       y       z     vdW  Elec       q    Type
REMARK                         _______ _______ _______ _____ _____    ______ ____
ROOT
ATOM      1  C   UNL     1       0.451  14.086  21.498  0.00  0.00    +0.000 C 
ATOM      2  C   UNL     1       0.954  13.209  20.411  0.00  0.00    +0.000 A 
ATOM      3  C   UNL     1       1.526  13.627  19.231  0.00  0.00    +0.000 A 
ATOM      4  S   UNL     1       1.964  12.280  18.286  0.00  0.00    +0.000 S 
ATOM      5  C   UNL     1       1.363  11.204  19.509  0.00  0.00    +0.000 A 
ATOM      6  N   UNL     1       1.468   9.847  19.411  0.00  0.00    +0.000 N 
ATOM      7  C   UNL     1       1.501   9.153  18.114  0.00  0.00    +0.000 C 
ATOM      8  C   UNL     1       2.359   7.879  18.222  0.00  0.00    +0.000 C 
ATOM      9  N   UNL     1       1.947   7.034  19.352  0.00  0.00    +0.000 N 
ATOM     10  C   UNL     1       1.875   5.665  19.171  0.00  0.00    +0.000 C 
ATOM     11  O   UNL     1       2.047   5.146  18.067  0.00  0.00    +0.000 OA
ATOM     12  C   UNL     1       1.849   7.752  20.635  0.00  0.00    +0.000 C 
ATOM     13  C   UNL     1       0.974   9.015  20.516  0.00  0.00    +0.000 C 
ATOM     14  N   UNL     1       0.873  11.832  20.559  0.00  0.00    +0.000 NA
ENDROOT
BRANCH  10  15
ATOM     15  C   UNL     1       1.512   4.808  20.375  0.00  0.00    +0.000 C 
BRANCH  15  16
ATOM     16  C   UNL     1       1.639   3.311  20.090  0.00  0.00    +0.000 C 
BRANCH  16  17
ATOM     17  C   UNL     1       3.071   2.831  20.340  0.00  0.00    +0.000 C 
BRANCH  17  18
ATOM     18  N   UNL     1       3.644   2.326  19.108  0.00  0.00    +0.000 N 
ATOM     19  C   UNL     1       4.532   3.227  18.520  0.00  0.00    +0.000 A 
ATOM     20  N   UNL     1       5.279   4.036  19.291  0.00  0.00    +0.000 NA
ATOM     21  C   UNL     1       6.090   4.901  18.659  0.00  0.00    +0.000 A 
ATOM     22  C   UNL     1       6.190   4.990  17.297  0.00  0.00    +0.000 A 
ATOM     23  C   UNL     1       5.393   4.117  16.597  0.00  0.00    +0.000 A 
ATOM     24  N   UNL     1       4.558   3.238  17.183  0.00  0.00    +0.000 NA
ATOM     25  H   UNL     1       2.976   2.103  18.379  0.00  0.00    +0.000 HD
ENDBRANCH  17  18
ENDBRANCH  16  17
ENDBRANCH  15  16
ENDBRANCH  10  15
TORSDOF 4
ENDMDL
