MODEL 1
REMARK VINA RESULT:      -7.8      0.000      0.000
REMARK  Name = 
REMARK  7 active torsions:
REMARK  status: ('A' for Active; 'I' for Inactive)
REMARK    1  A    between atoms: C_1  and  C_2
REMARK    2  A    between atoms: C_6  and  C_7
REMARK    3  A    between atoms: N_9  and  C_10
REMARK    4  A    between atoms: C_16  and  C_17
REMARK    5  A    between atoms: N_19  and  C_20
REMARK    6  A    between atoms: C_26  and  C_27
REMARK    7  A    between atoms: C_31  and  C_32
REMARK                            x       y       z     vdW  Elec       q    Type
REMARK                         _______ _______ _______ _____ _____    ______ ____
ROOT
ATOM      1  C   UNL     1       1.011  12.547  19.317  0.00  0.00    +0.000 C 
ATOM      2  C   UNL     1       1.731  11.698  18.245  0.00  0.00    +0.000 C 
ATOM      3  O   UNL     1       2.488  12.121  17.384  0.00  0.00    +0.000 OA
ATOM      4  N   UNL     1       1.625  10.281  18.307  0.00  0.00    +0.000 N 
ATOM      5  C   UNL     1       1.107   9.686  19.436  0.00  0.00    +0.000 A 
ATOM      6  C   UNL     1       0.262  10.358  20.293  0.00  0.00    +0.000 A 
ATOM      7  C   UNL     1      -0.024   9.387  21.293  0.00  0.00    +0.000 A 
ATOM      8  C   UNL     1      -0.804   9.478  22.557  0.00  0.00    +0.000 C 
ATOM      9  N   UNL     1       0.536   8.199  21.006  0.00  0.00    +0.000 NA
ATOM     10  N   UNL     1       1.307   8.415  19.917  0.00  0.00    +0.000 N 
ATOM     11  C   UNL     1      -0.175  11.747  19.927  0.00  0.00    +0.000 C 
ATOM     12  H   UNL     1       2.033   9.746  17.550  0.00  0.00    +0.000 HD
ENDROOT
BRANCH  11  13
ATOM     13  C   UNL     1      -0.913  12.429  21.063  0.00  0.00    +0.000 A 
ATOM     14  C   UNL     1      -0.147  13.084  22.049  0.00  0.00    +0.000 A 
ATOM     15  C   UNL     1      -0.743  13.642  23.179  0.00  0.00    +0.000 A 
ATOM     16  C   UNL     1      -2.117  13.548  23.355  0.00  0.00    +0.000 A 
ATOM     17  C   UNL     1      -2.910  12.912  22.393  0.00  0.00    +0.000 A 
ATOM     18  C   UNL     1      -4.394  12.807  22.596  0.00  0.00    +0.000 C 
ATOM     19  C   UNL     1      -2.306  12.367  21.246  0.00  0.00    +0.000 A 
ENDBRANCH  11  13
BRANCH  10  20
ATOM     20  C   UNL     1       2.261   7.461  19.478  0.00  0.00    +0.000 A 
ATOM     21  C   UNL     1       2.897   7.644  18.245  0.00  0.00    +0.000 A 
ATOM     22  C   UNL     1       3.817   6.695  17.792  0.00  0.00    +0.000 A 
ATOM     23  C   UNL     1       4.085   5.558  18.555  0.00  0.00    +0.000 A 
ATOM     24  C   UNL     1       3.441   5.360  19.774  0.00  0.00    +0.000 A 
ATOM     25  C   UNL     1       2.532   6.309  20.239  0.00  0.00    +0.000 A 
ENDBRANCH  10  20
BRANCH   1  28
ATOM     26  C   UNL     1       1.250  14.973  19.130  0.00  0.00    +0.000 C 
ATOM     27  O   UNL     1       2.097  14.964  20.017  0.00  0.00    +0.000 OA
ATOM     28  N   UNL     1       0.627  13.818  18.702  0.00  0.00    +0.000 N 
ATOM     29  H   UNL     1       0.098  13.825  17.837  0.00  0.00    +0.000 HD
BRANCH  26  35
ATOM     30  C   UNL     1      -2.103  18.585  18.170  0.00  0.00    +0.000 C 
ATOM     31  C   UNL     1      -0.735  17.990  17.996  0.00  0.00    +0.000 A 
ATOM     32  C   UNL     1       0.235  18.631  17.218  0.00  0.00    +0.000 A 
ATOM     33  C   UNL     1       1.513  18.087  17.078  0.00  0.00    +0.000 A 
ATOM     34  C   UNL     1       1.831  16.888  17.708  0.00  0.00    +0.000 A 
ATOM     35  C   UNL     1       0.863  16.232  18.470  0.00  0.00    +0.000 A 
ATOM     36  C   UNL     1      -0.415  16.784  18.633  0.00  0.00    +0.000 A 
ENDBRANCH  26  35
ENDBRANCH   1  28
TORSDOF 4
ENDMDL
MODEL 2
REMARK VINA RESULT:      -7.5      0.496      1.235
REMARK  Name = 
REMARK  7 active torsions:
REMARK  status: ('A' for Active; 'I' for Inactive)
REMARK    1  A    between atoms: C_1  and  C_2
REMARK    2  A    between atoms: C_6  and  C_7
REMARK    3  A    between atoms: N_9  and  C_10
REMARK    4  A    between atoms: C_16  and  C_17
REMARK    5  A    between atoms: N_19  and  C_20
REMARK    6  A    between atoms: C_26  and  C_27
REMARK    7  A    between atoms: C_31  and  C_32
REMARK                            x       y       z     vdW  Elec       q    Type
REMARK                         _______ _______ _______ _____ _____    ______ ____
ROOT
ATOM      1  C   UNL     1       0.905  12.607  19.582  0.00  0.00    +0.000 C 
ATOM      2  C   UNL     1       1.517  11.722  18.473  0.00  0.00    +0.000 C 
ATOM      3  O   UNL     1       2.206  12.113  17.542  0.00  0.00    +0.000 OA
ATOM      4  N   UNL     1       1.392  10.309  18.574  0.00  0.00    +0.000 N 
ATOM      5  C   UNL     1       0.962   9.748  19.756  0.00  0.00    +0.000 A 
ATOM      6  C   UNL     1       0.203  10.453  20.666  0.00  0.00    +0.000 A 
ATOM      7  C   UNL     1      -0.014   9.509  21.708  0.00  0.00    +0.000 A 
ATOM      8  C   UNL     1      -0.683   9.640  23.030  0.00  0.00    +0.000 C 
ATOM      9  N   UNL     1       0.500   8.305  21.401  0.00  0.00    +0.000 NA
ATOM     10  N   UNL     1       1.179   8.483  20.247  0.00  0.00    +0.000 N 
ATOM     11  C   UNL     1      -0.239  11.842  20.307  0.00  0.00    +0.000 C 
ATOM     12  H   UNL     1       1.727   9.752  17.798  0.00  0.00    +0.000 HD
ENDROOT
BRANCH  11  13
ATOM     13  C   UNL     1      -0.867  12.562  21.485  0.00  0.00    +0.000 A 
ATOM     14  C   UNL     1      -2.188  12.222  21.839  0.00  0.00    +0.000 A 
ATOM     15  C   UNL     1      -2.872  12.911  22.840  0.00  0.00    +0.000 A 
ATOM     16  C   UNL     1      -2.254  13.963  23.503  0.00  0.00    +0.000 A 
ATOM     17  C   UNL     1      -0.940  14.323  23.183  0.00  0.00    +0.000 A 
ATOM     18  C   UNL     1      -0.282  15.469  23.897  0.00  0.00    +0.000 C 
ATOM     19  C   UNL     1      -0.248  13.614  22.185  0.00  0.00    +0.000 A 
ENDBRANCH  11  13
BRANCH  10  20
ATOM     20  C   UNL     1       2.076   7.503  19.751  0.00  0.00    +0.000 A 
ATOM     21  C   UNL     1       2.679   7.692  18.502  0.00  0.00    +0.000 A 
ATOM     22  C   UNL     1       3.542   6.719  17.993  0.00  0.00    +0.000 A 
ATOM     23  C   UNL     1       3.786   5.551  18.717  0.00  0.00    +0.000 A 
ATOM     24  C   UNL     1       3.175   5.346  19.952  0.00  0.00    +0.000 A 
ATOM     25  C   UNL     1       2.323   6.320  20.472  0.00  0.00    +0.000 A 
ENDBRANCH  10  20
BRANCH   1  28
ATOM     26  C   UNL     1       1.274  14.991  19.182  0.00  0.00    +0.000 C 
ATOM     27  O   UNL     1       2.287  14.956  19.873  0.00  0.00    +0.000 OA
ATOM     28  N   UNL     1       0.493  13.872  18.974  0.00  0.00    +0.000 N 
ATOM     29  H   UNL     1      -0.205  13.878  18.239  0.00  0.00    +0.000 HD
BRANCH  26  35
ATOM     30  C   UNL     1      -2.169  18.537  18.299  0.00  0.00    +0.000 C 
ATOM     31  C   UNL     1      -0.794  17.969  18.093  0.00  0.00    +0.000 A 
ATOM     32  C   UNL     1       0.146  18.627  17.294  0.00  0.00    +0.000 A 
ATOM     33  C   UNL     1       1.431  18.109  17.125  0.00  0.00    +0.000 A 
ATOM     34  C   UNL     1       1.786  16.916  17.747  0.00  0.00    +0.000 A 
ATOM     35  C   UNL     1       0.848  16.242  18.531  0.00  0.00    +0.000 A 
ATOM     36  C   UNL     1      -0.436  16.769  18.723  0.00  0.00    +0.000 A 
ENDBRANCH  26  35
ENDBRANCH   1  28
TORSDOF 4
ENDMDL
MODEL 3
REMARK VINA RESULT:      -7.3      0.649      1.238
REMARK  Name = 
REMARK  7 active torsions:
REMARK  status: ('A' for Active; 'I' for Inactive)
REMARK    1  A    between atoms: C_1  and  C_2
REMARK    2  A    between atoms: C_6  and  C_7
REMARK    3  A    between atoms: N_9  and  C_10
REMARK    4  A    between atoms: C_16  and  C_17
REMARK    5  A    between atoms: N_19  and  C_20
REMARK    6  A    between atoms: C_26  and  C_27
REMARK    7  A    between atoms: C_31  and  C_32
REMARK                            x       y       z     vdW  Elec       q    Type
REMARK                         _______ _______ _______ _____ _____    ______ ____
ROOT
ATOM      1  C   UNL     1       0.701  12.558  19.346  0.00  0.00    +0.000 C 
ATOM      2  C   UNL     1       1.498  11.837  18.235  0.00  0.00    +0.000 C 
ATOM      3  O   UNL     1       2.220  12.374  17.407  0.00  0.00    +0.000 OA
ATOM      4  N   UNL     1       1.515  10.415  18.214  0.00  0.00    +0.000 N 
ATOM      5  C   UNL     1       1.045   9.715  19.302  0.00  0.00    +0.000 A 
ATOM      6  C   UNL     1       0.139  10.260  20.187  0.00  0.00    +0.000 A 
ATOM      7  C   UNL     1      -0.067   9.212  21.127  0.00  0.00    +0.000 A 
ATOM      8  C   UNL     1      -0.858   9.162  22.386  0.00  0.00    +0.000 C 
ATOM      9  N   UNL     1       0.597   8.095  20.779  0.00  0.00    +0.000 NA
ATOM     10  N   UNL     1       1.352   8.439  19.712  0.00  0.00    +0.000 N 
ATOM     11  C   UNL     1      -0.415  11.624  19.896  0.00  0.00    +0.000 C 
ATOM     12  H   UNL     1       1.973   9.963  17.433  0.00  0.00    +0.000 HD
ENDROOT
BRANCH  11  13
ATOM     13  C   UNL     1      -1.215  12.174  21.061  0.00  0.00    +0.000 A 
ATOM     14  C   UNL     1      -0.523  12.490  22.247  0.00  0.00    +0.000 A 
ATOM     15  C   UNL     1      -1.200  12.899  23.397  0.00  0.00    +0.000 A 
ATOM     16  C   UNL     1      -2.586  12.988  23.388  0.00  0.00    +0.000 A 
ATOM     17  C   UNL     1      -3.305  12.689  22.226  0.00  0.00    +0.000 A 
ATOM     18  C   UNL     1      -4.804  12.779  22.229  0.00  0.00    +0.000 C 
ATOM     19  C   UNL     1      -2.617  12.295  21.065  0.00  0.00    +0.000 A 
ENDBRANCH  11  13
BRANCH  10  20
ATOM     20  C   UNL     1       2.388   7.599  19.230  0.00  0.00    +0.000 A 
ATOM     21  C   UNL     1       2.988   7.886  17.999  0.00  0.00    +0.000 A 
ATOM     22  C   UNL     1       3.990   7.048  17.504  0.00  0.00    +0.000 A 
ATOM     23  C   UNL     1       4.376   5.916  18.222  0.00  0.00    +0.000 A 
ATOM     24  C   UNL     1       3.769   5.612  19.439  0.00  0.00    +0.000 A 
ATOM     25  C   UNL     1       2.778   6.452  19.946  0.00  0.00    +0.000 A 
ENDBRANCH  10  20
BRANCH   1  28
ATOM     26  C   UNL     1       0.405  14.978  19.533  0.00  0.00    +0.000 C 
ATOM     27  O   UNL     1       0.955  14.966  20.629  0.00  0.00    +0.000 OA
ATOM     28  N   UNL     1       0.211  13.825  18.800  0.00  0.00    +0.000 N 
ATOM     29  H   UNL     1      -0.048  13.890  17.822  0.00  0.00    +0.000 HD
BRANCH  26  35
ATOM     30  C   UNL     1       0.735  18.630  16.103  0.00  0.00    +0.000 C 
ATOM     31  C   UNL     1       0.061  18.011  17.294  0.00  0.00    +0.000 A 
ATOM     32  C   UNL     1      -1.069  18.601  17.870  0.00  0.00    +0.000 A 
ATOM     33  C   UNL     1      -1.706  18.010  18.962  0.00  0.00    +0.000 A 
ATOM     34  C   UNL     1      -1.212  16.825  19.498  0.00  0.00    +0.000 A 
ATOM     35  C   UNL     1      -0.073  16.240  18.942  0.00  0.00    +0.000 A 
ATOM     36  C   UNL     1       0.558  16.816  17.832  0.00  0.00    +0.000 A 
ENDBRANCH  26  35
ENDBRANCH   1  28
TORSDOF 4
ENDMDL
MODEL 4
REMARK VINA RESULT:      -7.3      0.832      1.739
REMARK  Name = 
REMARK  7 active torsions:
REMARK  status: ('A' for Active; 'I' for Inactive)
REMARK    1  A    between atoms: C_1  and  C_2
REMARK    2  A    between atoms: C_6  and  C_7
REMARK    3  A    between atoms: N_9  and  C_10
REMARK    4  A    between atoms: C_16  and  C_17
REMARK    5  A    between atoms: N_19  and  C_20
REMARK    6  A    between atoms: C_26  and  C_27
REMARK    7  A    between atoms: C_31  and  C_32
REMARK                            x       y       z     vdW  Elec       q    Type
REMARK                         _______ _______ _______ _____ _____    ______ ____
ROOT
ATOM      1  C   UNL     1       0.370  12.624  19.762  0.00  0.00    +0.000 C 
ATOM      2  C   UNL     1       0.980  11.813  18.596  0.00  0.00    +0.000 C 
ATOM      3  O   UNL     1       1.570  12.277  17.632  0.00  0.00    +0.000 OA
ATOM      4  N   UNL     1       0.981  10.393  18.675  0.00  0.00    +0.000 N 
ATOM      5  C   UNL     1       0.679   9.779  19.870  0.00  0.00    +0.000 A 
ATOM      6  C   UNL     1      -0.074  10.401  20.842  0.00  0.00    +0.000 A 
ATOM      7  C   UNL     1      -0.142   9.425  21.875  0.00  0.00    +0.000 A 
ATOM      8  C   UNL     1      -0.730   9.478  23.240  0.00  0.00    +0.000 C 
ATOM      9  N   UNL     1       0.450   8.275  21.509  0.00  0.00    +0.000 NA
ATOM     10  N   UNL     1       1.034   8.529  20.318  0.00  0.00    +0.000 N 
ATOM     11  C   UNL     1      -0.655  11.753  20.543  0.00  0.00    +0.000 C 
ATOM     12  H   UNL     1       1.309   9.879  17.867  0.00  0.00    +0.000 HD
ENDROOT
BRANCH  11  13
ATOM     13  C   UNL     1      -1.261  12.397  21.775  0.00  0.00    +0.000 A 
ATOM     14  C   UNL     1      -2.570  12.022  22.139  0.00  0.00    +0.000 A 
ATOM     15  C   UNL     1      -3.237  12.645  23.194  0.00  0.00    +0.000 A 
ATOM     16  C   UNL     1      -2.614  13.666  23.901  0.00  0.00    +0.000 A 
ATOM     17  C   UNL     1      -1.312  14.058  23.571  0.00  0.00    +0.000 A 
ATOM     18  C   UNL     1      -0.649  15.169  24.334  0.00  0.00    +0.000 C 
ATOM     19  C   UNL     1      -0.637  13.414  22.519  0.00  0.00    +0.000 A 
ENDBRANCH  11  13
BRANCH  10  20
ATOM     20  C   UNL     1       1.976   7.637  19.743  0.00  0.00    +0.000 A 
ATOM     21  C   UNL     1       2.549   7.948  18.505  0.00  0.00    +0.000 A 
ATOM     22  C   UNL     1       3.457   7.062  17.919  0.00  0.00    +0.000 A 
ATOM     23  C   UNL     1       3.774   5.861  18.554  0.00  0.00    +0.000 A 
ATOM     24  C   UNL     1       3.192   5.535  19.777  0.00  0.00    +0.000 A 
ATOM     25  C   UNL     1       2.296   6.421  20.375  0.00  0.00    +0.000 A 
ENDBRANCH  10  20
BRANCH   1  28
ATOM     26  C   UNL     1       0.442  15.054  19.497  0.00  0.00    +0.000 C 
ATOM     27  O   UNL     1       1.436  15.109  20.212  0.00  0.00    +0.000 OA
ATOM     28  N   UNL     1      -0.187  13.860  19.209  0.00  0.00    +0.000 N 
ATOM     29  H   UNL     1      -0.865  13.818  18.457  0.00  0.00    +0.000 HD
BRANCH  26  35
ATOM     30  C   UNL     1       0.427  18.630  15.973  0.00  0.00    +0.000 C 
ATOM     31  C   UNL     1      -0.159  18.009  17.208  0.00  0.00    +0.000 A 
ATOM     32  C   UNL     1      -1.290  18.556  17.822  0.00  0.00    +0.000 A 
ATOM     33  C   UNL     1      -1.846  17.961  18.956  0.00  0.00    +0.000 A 
ATOM     34  C   UNL     1      -1.267  16.817  19.496  0.00  0.00    +0.000 A 
ATOM     35  C   UNL     1      -0.127  16.276  18.900  0.00  0.00    +0.000 A 
ATOM     36  C   UNL     1       0.423  16.854  17.749  0.00  0.00    +0.000 A 
ENDBRANCH  26  35
ENDBRANCH   1  28
TORSDOF 4
ENDMDL
MODEL 5
REMARK VINA RESULT:      -7.2      2.621      5.355
REMARK  Name = 
REMARK  7 active torsions:
REMARK  status: ('A' for Active; 'I' for Inactive)
REMARK    1  A    between atoms: C_1  and  C_2
REMARK    2  A    between atoms: C_6  and  C_7
REMARK    3  A    between atoms: N_9  and  C_10
REMARK    4  A    between atoms: C_16  and  C_17
REMARK    5  A    between atoms: N_19  and  C_20
REMARK    6  A    between atoms: C_26  and  C_27
REMARK    7  A    between atoms: C_31  and  C_32
REMARK                            x       y       z     vdW  Elec       q    Type
REMARK                         _______ _______ _______ _____ _____    ______ ____
ROOT
ATOM      1  C   UNL     1      -0.322  10.374  21.427  0.00  0.00    +0.000 C 
ATOM      2  C   UNL     1      -0.174   8.978  22.073  0.00  0.00    +0.000 C 
ATOM      3  O   UNL     1      -0.885   8.516  22.953  0.00  0.00    +0.000 OA
ATOM      4  N   UNL     1       0.785   8.073  21.540  0.00  0.00    +0.000 N 
ATOM      5  C   UNL     1       1.379   8.348  20.328  0.00  0.00    +0.000 A 
ATOM      6  C   UNL     1       1.472   9.631  19.835  0.00  0.00    +0.000 A 
ATOM      7  C   UNL     1       2.145   9.453  18.593  0.00  0.00    +0.000 A 
ATOM      8  C   UNL     1       2.488  10.418  17.514  0.00  0.00    +0.000 C 
ATOM      9  N   UNL     1       2.505   8.172  18.404  0.00  0.00    +0.000 NA
ATOM     10  N   UNL     1       1.949   7.483  19.425  0.00  0.00    +0.000 N 
ATOM     11  C   UNL     1       0.992  10.766  20.692  0.00  0.00    +0.000 C 
ATOM     12  H   UNL     1       0.925   7.197  22.027  0.00  0.00    +0.000 HD
ENDROOT
BRANCH  11  13
ATOM     13  C   UNL     1       0.953  12.077  19.931  0.00  0.00    +0.000 A 
ATOM     14  C   UNL     1      -0.111  12.287  19.030  0.00  0.00    +0.000 A 
ATOM     15  C   UNL     1      -0.162  13.418  18.216  0.00  0.00    +0.000 A 
ATOM     16  C   UNL     1       0.858  14.360  18.276  0.00  0.00    +0.000 A 
ATOM     17  C   UNL     1       1.925  14.188  19.164  0.00  0.00    +0.000 A 
ATOM     18  C   UNL     1       3.028  15.206  19.215  0.00  0.00    +0.000 C 
ATOM     19  C   UNL     1       1.962  13.055  19.996  0.00  0.00    +0.000 A 
ENDBRANCH  11  13
BRANCH  10  20
ATOM     20  C   UNL     1       1.885   6.066  19.421  0.00  0.00    +0.000 A 
ATOM     21  C   UNL     1       2.018   5.376  18.211  0.00  0.00    +0.000 A 
ATOM     22  C   UNL     1       1.929   3.982  18.195  0.00  0.00    +0.000 A 
ATOM     23  C   UNL     1       1.687   3.281  19.376  0.00  0.00    +0.000 A 
ATOM     24  C   UNL     1       1.534   3.962  20.582  0.00  0.00    +0.000 A 
ATOM     25  C   UNL     1       1.635   5.352  20.608  0.00  0.00    +0.000 A 
ENDBRANCH  10  20
BRANCH   1  28
ATOM     26  C   UNL     1      -1.818  12.131  22.237  0.00  0.00    +0.000 C 
ATOM     27  O   UNL     1      -2.434  12.103  21.178  0.00  0.00    +0.000 OA
ATOM     28  N   UNL     1      -0.730  11.313  22.472  0.00  0.00    +0.000 N 
ATOM     29  H   UNL     1      -0.379  11.206  23.417  0.00  0.00    +0.000 HD
BRANCH  26  35
ATOM     30  C   UNL     1      -0.927  16.049  25.248  0.00  0.00    +0.000 C 
ATOM     31  C   UNL     1      -1.818  14.934  24.782  0.00  0.00    +0.000 A 
ATOM     32  C   UNL     1      -3.083  14.739  25.345  0.00  0.00    +0.000 A 
ATOM     33  C   UNL     1      -3.918  13.717  24.892  0.00  0.00    +0.000 A 
ATOM     34  C   UNL     1      -3.490  12.868  23.876  0.00  0.00    +0.000 A 
ATOM     35  C   UNL     1      -2.221  13.043  23.322  0.00  0.00    +0.000 A 
ATOM     36  C   UNL     1      -1.387  14.082  23.756  0.00  0.00    +0.000 A 
ENDBRANCH  26  35
ENDBRANCH   1  28
TORSDOF 4
ENDMDL
MODEL 6
REMARK VINA RESULT:      -7.1      3.807      7.425
REMARK  Name = 
REMARK  7 active torsions:
REMARK  status: ('A' for Active; 'I' for Inactive)
REMARK    1  A    between atoms: C_1  and  C_2
REMARK    2  A    between atoms: C_6  and  C_7
REMARK    3  A    between atoms: N_9  and  C_10
REMARK    4  A    between atoms: C_16  and  C_17
REMARK    5  A    between atoms: N_19  and  C_20
REMARK    6  A    between atoms: C_26  and  C_27
REMARK    7  A    between atoms: C_31  and  C_32
REMARK                            x       y       z     vdW  Elec       q    Type
REMARK                         _______ _______ _______ _____ _____    ______ ____
ROOT
ATOM      1  C   UNL     1      -0.217  13.726  21.668  0.00  0.00    +0.000 C 
ATOM      2  C   UNL     1       0.419  15.016  22.234  0.00  0.00    +0.000 C 
ATOM      3  O   UNL     1       0.145  15.541  23.303  0.00  0.00    +0.000 OA
ATOM      4  N   UNL     1       1.508  15.607  21.536  0.00  0.00    +0.000 N 
ATOM      5  C   UNL     1       2.132  14.904  20.530  0.00  0.00    +0.000 A 
ATOM      6  C   UNL     1       1.496  13.894  19.840  0.00  0.00    +0.000 A 
ATOM      7  C   UNL     1       2.485  13.461  18.914  0.00  0.00    +0.000 A 
ATOM      8  C   UNL     1       2.488  12.346  17.929  0.00  0.00    +0.000 C 
ATOM      9  N   UNL     1       3.596  14.216  18.985  0.00  0.00    +0.000 NA
ATOM     10  N   UNL     1       3.410  15.037  20.042  0.00  0.00    +0.000 N 
ATOM     11  C   UNL     1       0.050  13.622  20.139  0.00  0.00    +0.000 C 
ATOM     12  H   UNL     1       1.856  16.495  21.876  0.00  0.00    +0.000 HD
ENDROOT
BRANCH  11  13
ATOM     13  C   UNL     1      -0.440  12.352  19.472  0.00  0.00    +0.000 A 
ATOM     14  C   UNL     1       0.043  11.121  19.960  0.00  0.00    +0.000 A 
ATOM     15  C   UNL     1      -0.275   9.916  19.333  0.00  0.00    +0.000 A 
ATOM     16  C   UNL     1      -1.075   9.916  18.197  0.00  0.00    +0.000 A 
ATOM     17  C   UNL     1      -1.577  11.119  17.689  0.00  0.00    +0.000 A 
ATOM     18  C   UNL     1      -2.432  11.112  16.455  0.00  0.00    +0.000 C 
ATOM     19  C   UNL     1      -1.268  12.330  18.335  0.00  0.00    +0.000 A 
ENDBRANCH  11  13
BRANCH  10  20
ATOM     20  C   UNL     1       4.475  15.795  20.593  0.00  0.00    +0.000 A 
ATOM     21  C   UNL     1       5.192  15.282  21.680  0.00  0.00    +0.000 A 
ATOM     22  C   UNL     1       6.224  16.034  22.246  0.00  0.00    +0.000 A 
ATOM     23  C   UNL     1       6.525  17.302  21.746  0.00  0.00    +0.000 A 
ATOM     24  C   UNL     1       5.802  17.827  20.677  0.00  0.00    +0.000 A 
ATOM     25  C   UNL     1       4.780  17.076  20.098  0.00  0.00    +0.000 A 
ENDBRANCH  10  20
BRANCH   1  28
ATOM     26  C   UNL     1      -2.127  12.663  22.765  0.00  0.00    +0.000 C 
ATOM     27  O   UNL     1      -1.418  11.721  23.100  0.00  0.00    +0.000 OA
ATOM     28  N   UNL     1      -1.635  13.725  22.033  0.00  0.00    +0.000 N 
ATOM     29  H   UNL     1      -2.179  14.576  21.956  0.00  0.00    +0.000 HD
BRANCH  26  35
ATOM     30  C   UNL     1      -6.959  13.403  21.617  0.00  0.00    +0.000 C 
ATOM     31  C   UNL     1      -5.890  13.053  22.612  0.00  0.00    +0.000 A 
ATOM     32  C   UNL     1      -6.213  12.727  23.933  0.00  0.00    +0.000 A 
ATOM     33  C   UNL     1      -5.219  12.378  24.848  0.00  0.00    +0.000 A 
ATOM     34  C   UNL     1      -3.885  12.364  24.453  0.00  0.00    +0.000 A 
ATOM     35  C   UNL     1      -3.551  12.708  23.142  0.00  0.00    +0.000 A 
ATOM     36  C   UNL     1      -4.546  13.036  22.212  0.00  0.00    +0.000 A 
ENDBRANCH  26  35
ENDBRANCH   1  28
TORSDOF 4
ENDMDL
MODEL 7
REMARK VINA RESULT:      -6.8      6.135      8.345
REMARK  Name = 
REMARK  7 active torsions:
REMARK  status: ('A' for Active; 'I' for Inactive)
REMARK    1  A    between atoms: C_1  and  C_2
REMARK    2  A    between atoms: C_6  and  C_7
REMARK    3  A    between atoms: N_9  and  C_10
REMARK    4  A    between atoms: C_16  and  C_17
REMARK    5  A    between atoms: N_19  and  C_20
REMARK    6  A    between atoms: C_26  and  C_27
REMARK    7  A    between atoms: C_31  and  C_32
REMARK                            x       y       z     vdW  Elec       q    Type
REMARK                         _______ _______ _______ _____ _____    ______ ____
ROOT
ATOM      1  C   UNL     1       4.987  15.004  20.971  0.00  0.00    +0.000 C 
ATOM      2  C   UNL     1       4.305  14.706  22.325  0.00  0.00    +0.000 C 
ATOM      3  O   UNL     1       3.108  14.531  22.503  0.00  0.00    +0.000 OA
ATOM      4  N   UNL     1       5.120  14.487  23.471  0.00  0.00    +0.000 N 
ATOM      5  C   UNL     1       6.474  14.297  23.315  0.00  0.00    +0.000 A 
ATOM      6  C   UNL     1       7.156  14.768  22.213  0.00  0.00    +0.000 A 
ATOM      7  C   UNL     1       8.497  14.361  22.464  0.00  0.00    +0.000 A 
ATOM      8  C   UNL     1       9.728  14.472  21.637  0.00  0.00    +0.000 C 
ATOM      9  N   UNL     1       8.620  13.772  23.666  0.00  0.00    +0.000 NA
ATOM     10  N   UNL     1       7.361  13.649  24.141  0.00  0.00    +0.000 N 
ATOM     11  C   UNL     1       6.409  15.591  21.205  0.00  0.00    +0.000 C 
ATOM     12  H   UNL     1       4.654  14.375  24.363  0.00  0.00    +0.000 HD
ENDROOT
BRANCH  11  13
ATOM     13  C   UNL     1       7.229  15.842  19.955  0.00  0.00    +0.000 A 
ATOM     14  C   UNL     1       7.355  14.790  19.024  0.00  0.00    +0.000 A 
ATOM     15  C   UNL     1       8.177  14.905  17.904  0.00  0.00    +0.000 A 
ATOM     16  C   UNL     1       8.903  16.072  17.695  0.00  0.00    +0.000 A 
ATOM     17  C   UNL     1       8.797  17.139  18.594  0.00  0.00    +0.000 A 
ATOM     18  C   UNL     1       9.592  18.392  18.366  0.00  0.00    +0.000 C 
ATOM     19  C   UNL     1       7.952  17.024  19.712  0.00  0.00    +0.000 A 
ENDBRANCH  11  13
BRANCH  10  20
ATOM     20  C   UNL     1       7.064  12.836  25.265  0.00  0.00    +0.000 A 
ATOM     21  C   UNL     1       6.285  11.686  25.093  0.00  0.00    +0.000 A 
ATOM     22  C   UNL     1       5.965  10.894  26.199  0.00  0.00    +0.000 A 
ATOM     23  C   UNL     1       6.401  11.260  27.473  0.00  0.00    +0.000 A 
ATOM     24  C   UNL     1       7.159  12.414  27.654  0.00  0.00    +0.000 A 
ATOM     25  C   UNL     1       7.495  13.201  26.554  0.00  0.00    +0.000 A 
ENDBRANCH  10  20
BRANCH   1  28
ATOM     26  C   UNL     1       3.304  15.305  19.223  0.00  0.00    +0.000 C 
ATOM     27  O   UNL     1       3.339  14.105  18.974  0.00  0.00    +0.000 OA
ATOM     28  N   UNL     1       4.097  15.873  20.200  0.00  0.00    +0.000 N 
ATOM     29  H   UNL     1       3.896  16.811  20.525  0.00  0.00    +0.000 HD
BRANCH  26  35
ATOM     30  C   UNL     1      -1.175  17.484  18.596  0.00  0.00    +0.000 C 
ATOM     31  C   UNL     1       0.247  17.271  18.165  0.00  0.00    +0.000 A 
ATOM     32  C   UNL     1       0.772  17.944  17.057  0.00  0.00    +0.000 A 
ATOM     33  C   UNL     1       2.102  17.761  16.673  0.00  0.00    +0.000 A 
ATOM     34  C   UNL     1       2.919  16.892  17.390  0.00  0.00    +0.000 A 
ATOM     35  C   UNL     1       2.397  16.202  18.485  0.00  0.00    +0.000 A 
ATOM     36  C   UNL     1       1.070  16.398  18.889  0.00  0.00    +0.000 A 
ENDBRANCH  26  35
ENDBRANCH   1  28
TORSDOF 4
ENDMDL
MODEL 8
REMARK VINA RESULT:      -6.8      3.525      5.667
REMARK  Name = 
REMARK  7 active torsions:
REMARK  status: ('A' for Active; 'I' for Inactive)
REMARK    1  A    between atoms: C_1  and  C_2
REMARK    2  A    between atoms: C_6  and  C_7
REMARK    3  A    between atoms: N_9  and  C_10
REMARK    4  A    between atoms: C_16  and  C_17
REMARK    5  A    between atoms: N_19  and  C_20
REMARK    6  A    between atoms: C_26  and  C_27
REMARK    7  A    between atoms: C_31  and  C_32
REMARK                            x       y       z     vdW  Elec       q    Type
REMARK                         _______ _______ _______ _____ _____    ______ ____
ROOT
ATOM      1  C   UNL     1      -2.463  13.398  21.906  0.00  0.00    +0.000 C 
ATOM      2  C   UNL     1      -0.945  13.109  21.859  0.00  0.00    +0.000 C 
ATOM      3  O   UNL     1      -0.143  13.346  22.750  0.00  0.00    +0.000 OA
ATOM      4  N   UNL     1      -0.416  12.396  20.749  0.00  0.00    +0.000 N 
ATOM      5  C   UNL     1      -1.273  11.765  19.875  0.00  0.00    +0.000 A 
ATOM      6  C   UNL     1      -2.585  12.162  19.724  0.00  0.00    +0.000 A 
ATOM      7  C   UNL     1      -3.085  11.261  18.743  0.00  0.00    +0.000 A 
ATOM      8  C   UNL     1      -4.450  11.078  18.181  0.00  0.00    +0.000 C 
ATOM      9  N   UNL     1      -2.120  10.446  18.280  0.00  0.00    +0.000 NA
ATOM     10  N   UNL     1      -1.036  10.696  19.045  0.00  0.00    +0.000 N 
ATOM     11  C   UNL     1      -3.057  13.377  20.469  0.00  0.00    +0.000 C 
ATOM     12  H   UNL     1       0.590  12.289  20.696  0.00  0.00    +0.000 HD
ENDROOT
BRANCH  11  13
ATOM     13  C   UNL     1      -4.560  13.552  20.376  0.00  0.00    +0.000 A 
ATOM     14  C   UNL     1      -5.052  14.695  19.714  0.00  0.00    +0.000 A 
ATOM     15  C   UNL     1      -6.416  14.984  19.679  0.00  0.00    +0.000 A 
ATOM     16  C   UNL     1      -7.319  14.141  20.316  0.00  0.00    +0.000 A 
ATOM     17  C   UNL     1      -6.866  12.993  20.976  0.00  0.00    +0.000 A 
ATOM     18  C   UNL     1      -7.847  12.093  21.671  0.00  0.00    +0.000 C 
ATOM     19  C   UNL     1      -5.491  12.697  20.993  0.00  0.00    +0.000 A 
ENDBRANCH  11  13
BRANCH  10  20
ATOM     20  C   UNL     1       0.098   9.843  19.032  0.00  0.00    +0.000 A 
ATOM     21  C   UNL     1       0.781   9.628  17.830  0.00  0.00    +0.000 A 
ATOM     22  C   UNL     1       1.882   8.768  17.802  0.00  0.00    +0.000 A 
ATOM     23  C   UNL     1       2.286   8.109  18.964  0.00  0.00    +0.000 A 
ATOM     24  C   UNL     1       1.599   8.303  20.160  0.00  0.00    +0.000 A 
ATOM     25  C   UNL     1       0.508   9.170  20.198  0.00  0.00    +0.000 A 
ENDBRANCH  10  20
BRANCH   1  28
ATOM     26  C   UNL     1      -3.516  14.678  23.704  0.00  0.00    +0.000 C 
ATOM     27  O   UNL     1      -4.124  13.677  24.068  0.00  0.00    +0.000 OA
ATOM     28  N   UNL     1      -2.660  14.659  22.621  0.00  0.00    +0.000 N 
ATOM     29  H   UNL     1      -2.019  15.431  22.475  0.00  0.00    +0.000 HD
BRANCH  26  35
ATOM     30  C   UNL     1      -1.572  18.612  26.144  0.00  0.00    +0.000 C 
ATOM     31  C   UNL     1      -2.755  17.868  25.595  0.00  0.00    +0.000 A 
ATOM     32  C   UNL     1      -4.051  18.381  25.720  0.00  0.00    +0.000 A 
ATOM     33  C   UNL     1      -5.145  17.698  25.187  0.00  0.00    +0.000 A 
ATOM     34  C   UNL     1      -4.956  16.486  24.532  0.00  0.00    +0.000 A 
ATOM     35  C   UNL     1      -3.669  15.957  24.420  0.00  0.00    +0.000 A 
ATOM     36  C   UNL     1      -2.564  16.648  24.932  0.00  0.00    +0.000 A 
ENDBRANCH  26  35
ENDBRANCH   1  28
TORSDOF 4
ENDMDL
MODEL 9
REMARK VINA RESULT:      -6.7      3.612      5.801
REMARK  Name = 
REMARK  7 active torsions:
REMARK  status: ('A' for Active; 'I' for Inactive)
REMARK    1  A    between atoms: C_1  and  C_2
REMARK    2  A    between atoms: C_6  and  C_7
REMARK    3  A    between atoms: N_9  and  C_10
REMARK    4  A    between atoms: C_16  and  C_17
REMARK    5  A    between atoms: N_19  and  C_20
REMARK    6  A    between atoms: C_26  and  C_27
REMARK    7  A    between atoms: C_31  and  C_32
REMARK                            x       y       z     vdW  Elec       q    Type
REMARK                         _______ _______ _______ _____ _____    ______ ____
ROOT
ATOM      1  C   UNL     1      -2.759  13.332  21.707  0.00  0.00    +0.000 C 
ATOM      2  C   UNL     1      -1.229  13.118  21.674  0.00  0.00    +0.000 C 
ATOM      3  O   UNL     1      -0.444  13.419  22.561  0.00  0.00    +0.000 OA
ATOM      4  N   UNL     1      -0.660  12.399  20.587  0.00  0.00    +0.000 N 
ATOM      5  C   UNL     1      -1.481  11.702  19.729  0.00  0.00    +0.000 A 
ATOM      6  C   UNL     1      -2.809  12.030  19.561  0.00  0.00    +0.000 A 
ATOM      7  C   UNL     1      -3.260  11.077  18.605  0.00  0.00    +0.000 A 
ATOM      8  C   UNL     1      -4.611  10.812  18.043  0.00  0.00    +0.000 C 
ATOM      9  N   UNL     1      -2.254  10.298  18.169  0.00  0.00    +0.000 NA
ATOM     10  N   UNL     1      -1.187  10.623  18.931  0.00  0.00    +0.000 N 
ATOM     11  C   UNL     1      -3.345  13.241  20.269  0.00  0.00    +0.000 C 
ATOM     12  H   UNL     1       0.350  12.341  20.541  0.00  0.00    +0.000 HD
ENDROOT
BRANCH  11  13
ATOM     13  C   UNL     1      -4.854  13.340  20.166  0.00  0.00    +0.000 A 
ATOM     14  C   UNL     1      -5.628  12.581  21.066  0.00  0.00    +0.000 A 
ATOM     15  C   UNL     1      -7.019  12.534  20.969  0.00  0.00    +0.000 A 
ATOM     16  C   UNL     1      -7.666  13.236  19.960  0.00  0.00    +0.000 A 
ATOM     17  C   UNL     1      -6.929  14.006  19.053  0.00  0.00    +0.000 A 
ATOM     18  C   UNL     1      -7.636  14.754  17.959  0.00  0.00    +0.000 C 
ATOM     19  C   UNL     1      -5.529  14.064  19.167  0.00  0.00    +0.000 A 
ENDBRANCH  11  13
BRANCH  10  20
ATOM     20  C   UNL     1      -0.013   9.827  18.947  0.00  0.00    +0.000 A 
ATOM     21  C   UNL     1       0.635   9.535  17.742  0.00  0.00    +0.000 A 
ATOM     22  C   UNL     1       1.776   8.730  17.745  0.00  0.00    +0.000 A 
ATOM     23  C   UNL     1       2.257   8.198  18.943  0.00  0.00    +0.000 A 
ATOM     24  C   UNL     1       1.605   8.468  20.144  0.00  0.00    +0.000 A 
ATOM     25  C   UNL     1       0.474   9.282  20.150  0.00  0.00    +0.000 A 
ENDBRANCH  10  20
BRANCH   1  28
ATOM     26  C   UNL     1      -3.538  14.574  23.664  0.00  0.00    +0.000 C 
ATOM     27  O   UNL     1      -3.796  13.522  24.237  0.00  0.00    +0.000 OA
ATOM     28  N   UNL     1      -3.022  14.603  22.384  0.00  0.00    +0.000 N 
ATOM     29  H   UNL     1      -2.624  15.462  22.023  0.00  0.00    +0.000 HD
BRANCH  26  35
ATOM     30  C   UNL     1      -1.832  18.629  26.084  0.00  0.00    +0.000 C 
ATOM     31  C   UNL     1      -2.963  17.839  25.493  0.00  0.00    +0.000 A 
ATOM     32  C   UNL     1      -4.275  18.323  25.528  0.00  0.00    +0.000 A 
ATOM     33  C   UNL     1      -5.321  17.596  24.955  0.00  0.00    +0.000 A 
ATOM     34  C   UNL     1      -5.065  16.370  24.351  0.00  0.00    +0.000 A 
ATOM     35  C   UNL     1      -3.762  15.870  24.329  0.00  0.00    +0.000 A 
ATOM     36  C   UNL     1      -2.705  16.604  24.882  0.00  0.00    +0.000 A 
ENDBRANCH  26  35
ENDBRANCH   1  28
TORSDOF 4
ENDMDL
