MODEL 1
REMARK VINA RESULT:      -7.4      0.000      0.000
REMARK  Name = 
REMARK  6 active torsions:
REMARK  status: ('A' for Active; 'I' for Inactive)
REMARK    1  A    between atoms: C_1  and  N_2
REMARK    2  A    between atoms: N_2  and  C_3
REMARK    3  A    between atoms: C_3  and  C_4
REMARK    4  A    between atoms: C_9  and  C_11
REMARK    5  A    between atoms: C_11  and  C_12
REMARK    6  A    between atoms: C_12  and  C_13
REMARK                            x       y       z     vdW  Elec       q    Type
REMARK                         _______ _______ _______ _____ _____    ______ ____
ROOT
ATOM      1  C   UNL     1       4.365   4.061  17.882  0.00  0.00    +0.000 C 
ENDROOT
BRANCH   1   4
ATOM      2  C   UNL     1       1.101   4.025  19.860  0.00  0.00    +0.000 C 
ATOM      3  N   UNL     1       2.431   4.413  19.415  0.00  0.00    +0.000 N 
ATOM      4  C   UNL     1       2.980   3.681  18.366  0.00  0.00    +0.000 C 
ATOM      5  O   UNL     1       2.382   2.720  17.875  0.00  0.00    +0.000 OA
BRANCH   3   6
ATOM      6  C   UNL     1       3.014   5.629  19.982  0.00  0.00    +0.000 C 
BRANCH   6   7
ATOM      7  C   UNL     1       2.471   6.885  19.351  0.00  0.00    +0.000 A 
ATOM      8  C   UNL     1       2.558   7.359  18.055  0.00  0.00    +0.000 A 
ATOM      9  C   UNL     1       1.956   8.642  17.895  0.00  0.00    +0.000 A 
ATOM     10  C   UNL     1       1.414   9.108  19.070  0.00  0.00    +0.000 A 
ATOM     11  S   UNL     1       1.611   7.993  20.350  0.00  0.00    +0.000 S 
ENDBRANCH   6   7
ENDBRANCH   3   6
ENDBRANCH   1   4
BRANCH   1  12
ATOM     12  C   UNL     1       4.611   3.521  16.475  0.00  0.00    +0.000 C 
BRANCH  12  13
ATOM     13  C   UNL     1       5.723   4.246  15.785  0.00  0.00    +0.000 A 
ATOM     14  C   UNL     1       6.592   5.147  16.366  0.00  0.00    +0.000 A 
ATOM     15  N   UNL     1       7.472   5.574  15.409  0.00  0.00    +0.000 N 
ATOM     16  C   UNL     1       7.184   4.986  14.200  0.00  0.00    +0.000 A 
ATOM     17  C   UNL     1       7.808   5.131  12.955  0.00  0.00    +0.000 A 
ATOM     18  C   UNL     1       7.287   4.403  11.881  0.00  0.00    +0.000 A 
ATOM     19  C   UNL     1       6.190   3.562  12.050  0.00  0.00    +0.000 A 
ATOM     20  C   UNL     1       5.582   3.424  13.303  0.00  0.00    +0.000 A 
ATOM     21  C   UNL     1       6.086   4.148  14.403  0.00  0.00    +0.000 A 
ATOM     22  H   UNL     1       8.226   6.230  15.562  0.00  0.00    +0.000 HD
ENDBRANCH  12  13
ENDBRANCH   1  12
TORSDOF 5
ENDMDL
MODEL 2
REMARK VINA RESULT:      -7.3      2.660      7.116
REMARK  Name = 
REMARK  6 active torsions:
REMARK  status: ('A' for Active; 'I' for Inactive)
REMARK    1  A    between atoms: C_1  and  N_2
REMARK    2  A    between atoms: N_2  and  C_3
REMARK    3  A    between atoms: C_3  and  C_4
REMARK    4  A    between atoms: C_9  and  C_11
REMARK    5  A    between atoms: C_11  and  C_12
REMARK    6  A    between atoms: C_12  and  C_13
REMARK                            x       y       z     vdW  Elec       q    Type
REMARK                         _______ _______ _______ _____ _____    ______ ____
ROOT
ATOM      1  C   UNL     1       4.835   6.993  17.435  0.00  0.00    +0.000 C 
ENDROOT
BRANCH   1   4
ATOM      2  C   UNL     1       6.000   3.860  15.593  0.00  0.00    +0.000 C 
ATOM      3  N   UNL     1       5.604   4.746  16.676  0.00  0.00    +0.000 N 
ATOM      4  C   UNL     1       5.251   6.046  16.327  0.00  0.00    +0.000 C 
ATOM      5  O   UNL     1       5.320   6.435  15.157  0.00  0.00    +0.000 OA
BRANCH   3   6
ATOM      6  C   UNL     1       5.448   4.168  18.011  0.00  0.00    +0.000 C 
BRANCH   6   7
ATOM      7  C   UNL     1       4.134   3.452  18.187  0.00  0.00    +0.000 A 
ATOM      8  C   UNL     1       2.979   3.478  17.427  0.00  0.00    +0.000 A 
ATOM      9  C   UNL     1       1.928   2.697  17.993  0.00  0.00    +0.000 A 
ATOM     10  C   UNL     1       2.313   2.084  19.163  0.00  0.00    +0.000 A 
ATOM     11  S   UNL     1       3.939   2.433  19.561  0.00  0.00    +0.000 S 
ENDBRANCH   6   7
ENDBRANCH   3   6
ENDBRANCH   1   4
BRANCH   1  12
ATOM     12  C   UNL     1       3.351   7.333  17.323  0.00  0.00    +0.000 C 
BRANCH  12  13
ATOM     13  C   UNL     1       2.683   7.361  18.661  0.00  0.00    +0.000 A 
ATOM     14  C   UNL     1       2.792   6.401  19.647  0.00  0.00    +0.000 A 
ATOM     15  N   UNL     1       2.046   6.802  20.722  0.00  0.00    +0.000 N 
ATOM     16  C   UNL     1       1.429   8.001  20.454  0.00  0.00    +0.000 A 
ATOM     17  C   UNL     1       0.573   8.773  21.250  0.00  0.00    +0.000 A 
ATOM     18  C   UNL     1       0.081   9.963  20.705  0.00  0.00    +0.000 A 
ATOM     19  C   UNL     1       0.435  10.363  19.419  0.00  0.00    +0.000 A 
ATOM     20  C   UNL     1       1.296   9.582  18.640  0.00  0.00    +0.000 A 
ATOM     21  C   UNL     1       1.806   8.377  19.164  0.00  0.00    +0.000 A 
ATOM     22  H   UNL     1       1.956   6.293  21.591  0.00  0.00    +0.000 HD
ENDBRANCH  12  13
ENDBRANCH   1  12
TORSDOF 5
ENDMDL
MODEL 3
REMARK VINA RESULT:      -7.3      0.875      1.113
REMARK  Name = 
REMARK  6 active torsions:
REMARK  status: ('A' for Active; 'I' for Inactive)
REMARK    1  A    between atoms: C_1  and  N_2
REMARK    2  A    between atoms: N_2  and  C_3
REMARK    3  A    between atoms: C_3  and  C_4
REMARK    4  A    between atoms: C_9  and  C_11
REMARK    5  A    between atoms: C_11  and  C_12
REMARK    6  A    between atoms: C_12  and  C_13
REMARK                            x       y       z     vdW  Elec       q    Type
REMARK                         _______ _______ _______ _____ _____    ______ ____
ROOT
ATOM      1  C   UNL     1       3.641   5.018  17.092  0.00  0.00    +0.000 C 
ENDROOT
BRANCH   1   4
ATOM      2  C   UNL     1       1.165   4.234  19.890  0.00  0.00    +0.000 C 
ATOM      3  N   UNL     1       2.286   4.826  19.177  0.00  0.00    +0.000 N 
ATOM      4  C   UNL     1       2.480   4.419  17.860  0.00  0.00    +0.000 C 
ATOM      5  O   UNL     1       1.759   3.559  17.345  0.00  0.00    +0.000 OA
BRANCH   3   6
ATOM      6  C   UNL     1       3.016   5.913  19.831  0.00  0.00    +0.000 C 
BRANCH   6   7
ATOM      7  C   UNL     1       2.274   7.224  19.784  0.00  0.00    +0.000 A 
ATOM      8  C   UNL     1       1.515   7.871  20.743  0.00  0.00    +0.000 A 
ATOM      9  C   UNL     1       0.923   9.074  20.258  0.00  0.00    +0.000 A 
ATOM     10  C   UNL     1       1.255   9.321  18.946  0.00  0.00    +0.000 A 
ATOM     11  S   UNL     1       2.294   8.120  18.314  0.00  0.00    +0.000 S 
ENDBRANCH   6   7
ENDBRANCH   3   6
ENDBRANCH   1   4
BRANCH   1  12
ATOM     12  C   UNL     1       4.626   3.930  16.671  0.00  0.00    +0.000 C 
BRANCH  12  13
ATOM     13  C   UNL     1       5.761   4.486  15.870  0.00  0.00    +0.000 A 
ATOM     14  C   UNL     1       6.745   5.337  16.331  0.00  0.00    +0.000 A 
ATOM     15  N   UNL     1       7.605   5.599  15.299  0.00  0.00    +0.000 N 
ATOM     16  C   UNL     1       7.192   4.952  14.158  0.00  0.00    +0.000 A 
ATOM     17  C   UNL     1       7.754   4.939  12.875  0.00  0.00    +0.000 A 
ATOM     18  C   UNL     1       7.105   4.187  11.892  0.00  0.00    +0.000 A 
ATOM     19  C   UNL     1       5.943   3.475  12.184  0.00  0.00    +0.000 A 
ATOM     20  C   UNL     1       5.399   3.495  13.473  0.00  0.00    +0.000 A 
ATOM     21  C   UNL     1       6.033   4.246  14.483  0.00  0.00    +0.000 A 
ATOM     22  H   UNL     1       8.425   6.186  15.360  0.00  0.00    +0.000 HD
ENDBRANCH  12  13
ENDBRANCH   1  12
TORSDOF 5
ENDMDL
MODEL 4
REMARK VINA RESULT:      -7.2      2.087      3.166
REMARK  Name = 
REMARK  6 active torsions:
REMARK  status: ('A' for Active; 'I' for Inactive)
REMARK    1  A    between atoms: C_1  and  N_2
REMARK    2  A    between atoms: N_2  and  C_3
REMARK    3  A    between atoms: C_3  and  C_4
REMARK    4  A    between atoms: C_9  and  C_11
REMARK    5  A    between atoms: C_11  and  C_12
REMARK    6  A    between atoms: C_12  and  C_13
REMARK                            x       y       z     vdW  Elec       q    Type
REMARK                         _______ _______ _______ _____ _____    ______ ____
ROOT
ATOM      1  C   UNL     1       4.358   3.212  18.543  0.00  0.00    +0.000 C 
ENDROOT
BRANCH   1   4
ATOM      2  C   UNL     1       0.837   3.603  19.964  0.00  0.00    +0.000 C 
ATOM      3  N   UNL     1       2.251   3.841  19.719  0.00  0.00    +0.000 N 
ATOM      4  C   UNL     1       2.884   2.990  18.817  0.00  0.00    +0.000 C 
ATOM      5  O   UNL     1       2.279   2.051  18.292  0.00  0.00    +0.000 OA
BRANCH   3   6
ATOM      6  C   UNL     1       2.854   5.040  20.302  0.00  0.00    +0.000 C 
BRANCH   6   7
ATOM      7  C   UNL     1       2.507   6.295  19.543  0.00  0.00    +0.000 A 
ATOM      8  C   UNL     1       2.688   6.630  18.214  0.00  0.00    +0.000 A 
ATOM      9  C   UNL     1       2.276   7.963  17.920  0.00  0.00    +0.000 A 
ATOM     10  C   UNL     1       1.780   8.607  19.030  0.00  0.00    +0.000 A 
ATOM     11  S   UNL     1       1.791   7.599  20.410  0.00  0.00    +0.000 S 
ENDBRANCH   6   7
ENDBRANCH   3   6
ENDBRANCH   1   4
BRANCH   1  12
ATOM     12  C   UNL     1       4.603   3.415  17.050  0.00  0.00    +0.000 C 
BRANCH  12  13
ATOM     13  C   UNL     1       5.246   4.735  16.765  0.00  0.00    +0.000 A 
ATOM     14  C   UNL     1       4.983   5.555  15.686  0.00  0.00    +0.000 A 
ATOM     15  N   UNL     1       5.763   6.675  15.796  0.00  0.00    +0.000 N 
ATOM     16  C   UNL     1       6.552   6.598  16.920  0.00  0.00    +0.000 A 
ATOM     17  C   UNL     1       7.497   7.501  17.421  0.00  0.00    +0.000 A 
ATOM     18  C   UNL     1       8.165   7.151  18.598  0.00  0.00    +0.000 A 
ATOM     19  C   UNL     1       7.893   5.949  19.247  0.00  0.00    +0.000 A 
ATOM     20  C   UNL     1       6.941   5.061  18.735  0.00  0.00    +0.000 A 
ATOM     21  C   UNL     1       6.253   5.388  17.548  0.00  0.00    +0.000 A 
ATOM     22  H   UNL     1       5.765   7.449  15.147  0.00  0.00    +0.000 HD
ENDBRANCH  12  13
ENDBRANCH   1  12
TORSDOF 5
ENDMDL
MODEL 5
REMARK VINA RESULT:      -7.0      3.123      7.621
REMARK  Name = 
REMARK  6 active torsions:
REMARK  status: ('A' for Active; 'I' for Inactive)
REMARK    1  A    between atoms: C_1  and  N_2
REMARK    2  A    between atoms: N_2  and  C_3
REMARK    3  A    between atoms: C_3  and  C_4
REMARK    4  A    between atoms: C_9  and  C_11
REMARK    5  A    between atoms: C_11  and  C_12
REMARK    6  A    between atoms: C_12  and  C_13
REMARK                            x       y       z     vdW  Elec       q    Type
REMARK                         _______ _______ _______ _____ _____    ______ ____
ROOT
ATOM      1  C   UNL     1       2.240   6.035  18.175  0.00  0.00    +0.000 C 
ENDROOT
BRANCH   1   4
ATOM      2  C   UNL     1       4.887   3.676  16.761  0.00  0.00    +0.000 C 
ATOM      3  N   UNL     1       3.651   4.144  17.370  0.00  0.00    +0.000 N 
ATOM      4  C   UNL     1       3.517   5.519  17.542  0.00  0.00    +0.000 C 
ATOM      5  O   UNL     1       4.427   6.293  17.235  0.00  0.00    +0.000 OA
BRANCH   3   6
ATOM      6  C   UNL     1       2.588   3.165  17.600  0.00  0.00    +0.000 C 
BRANCH   6   7
ATOM      7  C   UNL     1       2.286   2.964  19.062  0.00  0.00    +0.000 A 
ATOM      8  C   UNL     1       1.088   2.991  19.752  0.00  0.00    +0.000 A 
ATOM      9  C   UNL     1       1.256   2.820  21.158  0.00  0.00    +0.000 A 
ATOM     10  C   UNL     1       2.578   2.655  21.503  0.00  0.00    +0.000 A 
ATOM     11  S   UNL     1       3.603   2.683  20.135  0.00  0.00    +0.000 S 
ENDBRANCH   6   7
ENDBRANCH   3   6
ENDBRANCH   1   4
BRANCH   1  12
ATOM     12  C   UNL     1       2.555   7.070  19.253  0.00  0.00    +0.000 C 
BRANCH  12  13
ATOM     13  C   UNL     1       1.886   8.380  18.981  0.00  0.00    +0.000 A 
ATOM     14  C   UNL     1       1.960   9.104  17.808  0.00  0.00    +0.000 A 
ATOM     15  N   UNL     1       1.198  10.232  17.950  0.00  0.00    +0.000 N 
ATOM     16  C   UNL     1       0.640  10.275  19.206  0.00  0.00    +0.000 A 
ATOM     17  C   UNL     1      -0.196  11.236  19.790  0.00  0.00    +0.000 A 
ATOM     18  C   UNL     1      -0.610  11.019  21.107  0.00  0.00    +0.000 A 
ATOM     19  C   UNL     1      -0.208   9.884  21.808  0.00  0.00    +0.000 A 
ATOM     20  C   UNL     1       0.623   8.932  21.207  0.00  0.00    +0.000 A 
ATOM     21  C   UNL     1       1.057   9.126  19.880  0.00  0.00    +0.000 A 
ATOM     22  H   UNL     1       1.063  10.938  17.239  0.00  0.00    +0.000 HD
ENDBRANCH  12  13
ENDBRANCH   1  12
TORSDOF 5
ENDMDL
MODEL 6
REMARK VINA RESULT:      -6.9      2.588      5.894
REMARK  Name = 
REMARK  6 active torsions:
REMARK  status: ('A' for Active; 'I' for Inactive)
REMARK    1  A    between atoms: C_1  and  N_2
REMARK    2  A    between atoms: N_2  and  C_3
REMARK    3  A    between atoms: C_3  and  C_4
REMARK    4  A    between atoms: C_9  and  C_11
REMARK    5  A    between atoms: C_11  and  C_12
REMARK    6  A    between atoms: C_12  and  C_13
REMARK                            x       y       z     vdW  Elec       q    Type
REMARK                         _______ _______ _______ _____ _____    ______ ____
ROOT
ATOM      1  C   UNL     1       5.074   4.056  16.265  0.00  0.00    +0.000 C 
ENDROOT
BRANCH   1   4
ATOM      2  C   UNL     1       6.883   7.194  17.469  0.00  0.00    +0.000 C 
ATOM      3  N   UNL     1       5.853   6.337  16.901  0.00  0.00    +0.000 N 
ATOM      4  C   UNL     1       6.127   4.973  16.853  0.00  0.00    +0.000 C 
ATOM      5  O   UNL     1       7.214   4.526  17.231  0.00  0.00    +0.000 OA
BRANCH   3   6
ATOM      6  C   UNL     1       4.560   6.942  16.581  0.00  0.00    +0.000 C 
BRANCH   6   7
ATOM      7  C   UNL     1       3.681   7.113  17.793  0.00  0.00    +0.000 A 
ATOM      8  C   UNL     1       3.602   6.385  18.966  0.00  0.00    +0.000 A 
ATOM      9  C   UNL     1       2.571   6.848  19.835  0.00  0.00    +0.000 A 
ATOM     10  C   UNL     1       1.897   7.926  19.308  0.00  0.00    +0.000 A 
ATOM     11  S   UNL     1       2.522   8.387  17.786  0.00  0.00    +0.000 S 
ENDBRANCH   6   7
ENDBRANCH   3   6
ENDBRANCH   1   4
BRANCH   1  12
ATOM     12  C   UNL     1       4.685   2.972  17.267  0.00  0.00    +0.000 C 
BRANCH  12  13
ATOM     13  C   UNL     1       3.309   3.187  17.815  0.00  0.00    +0.000 A 
ATOM     14  C   UNL     1       2.207   3.619  17.105  0.00  0.00    +0.000 A 
ATOM     15  N   UNL     1       1.139   3.670  17.958  0.00  0.00    +0.000 N 
ATOM     16  C   UNL     1       1.522   3.299  19.226  0.00  0.00    +0.000 A 
ATOM     17  C   UNL     1       0.773   3.212  20.406  0.00  0.00    +0.000 A 
ATOM     18  C   UNL     1       1.439   2.807  21.566  0.00  0.00    +0.000 A 
ATOM     19  C   UNL     1       2.797   2.499  21.543  0.00  0.00    +0.000 A 
ATOM     20  C   UNL     1       3.529   2.586  20.354  0.00  0.00    +0.000 A 
ATOM     21  C   UNL     1       2.883   2.993  19.169  0.00  0.00    +0.000 A 
ATOM     22  H   UNL     1       0.200   3.944  17.701  0.00  0.00    +0.000 HD
ENDBRANCH  12  13
ENDBRANCH   1  12
TORSDOF 5
ENDMDL
MODEL 7
REMARK VINA RESULT:      -6.9      2.015      3.185
REMARK  Name = 
REMARK  6 active torsions:
REMARK  status: ('A' for Active; 'I' for Inactive)
REMARK    1  A    between atoms: C_1  and  N_2
REMARK    2  A    between atoms: N_2  and  C_3
REMARK    3  A    between atoms: C_3  and  C_4
REMARK    4  A    between atoms: C_9  and  C_11
REMARK    5  A    between atoms: C_11  and  C_12
REMARK    6  A    between atoms: C_12  and  C_13
REMARK                            x       y       z     vdW  Elec       q    Type
REMARK                         _______ _______ _______ _____ _____    ______ ____
ROOT
ATOM      1  C   UNL     1       4.931   5.362  17.951  0.00  0.00    +0.000 C 
ENDROOT
BRANCH   1   4
ATOM      2  C   UNL     1       2.133   7.476  19.459  0.00  0.00    +0.000 C 
ATOM      3  N   UNL     1       3.042   6.363  19.235  0.00  0.00    +0.000 N 
ATOM      4  C   UNL     1       3.972   6.507  18.209  0.00  0.00    +0.000 C 
ATOM      5  O   UNL     1       3.985   7.514  17.496  0.00  0.00    +0.000 OA
BRANCH   3   6
ATOM      6  C   UNL     1       3.023   5.260  20.197  0.00  0.00    +0.000 C 
BRANCH   6   7
ATOM      7  C   UNL     1       2.383   4.014  19.642  0.00  0.00    +0.000 A 
ATOM      8  C   UNL     1       1.155   3.817  19.039  0.00  0.00    +0.000 A 
ATOM      9  C   UNL     1       0.908   2.449  18.720  0.00  0.00    +0.000 A 
ATOM     10  C   UNL     1       1.961   1.638  19.078  0.00  0.00    +0.000 A 
ATOM     11  S   UNL     1       3.245   2.529  19.771  0.00  0.00    +0.000 S 
ENDBRANCH   6   7
ENDBRANCH   3   6
ENDBRANCH   1   4
BRANCH   1  12
ATOM     12  C   UNL     1       4.649   4.718  16.596  0.00  0.00    +0.000 C 
BRANCH  12  13
ATOM     13  C   UNL     1       5.787   4.903  15.643  0.00  0.00    +0.000 A 
ATOM     14  C   UNL     1       6.942   5.621  15.882  0.00  0.00    +0.000 A 
ATOM     15  N   UNL     1       7.739   5.535  14.773  0.00  0.00    +0.000 N 
ATOM     16  C   UNL     1       7.119   4.790  13.797  0.00  0.00    +0.000 A 
ATOM     17  C   UNL     1       7.553   4.450  12.510  0.00  0.00    +0.000 A 
ATOM     18  C   UNL     1       6.697   3.675  11.721  0.00  0.00    +0.000 A 
ATOM     19  C   UNL     1       5.460   3.256  12.206  0.00  0.00    +0.000 A 
ATOM     20  C   UNL     1       5.045   3.600  13.497  0.00  0.00    +0.000 A 
ATOM     21  C   UNL     1       5.888   4.382  14.312  0.00  0.00    +0.000 A 
ATOM     22  H   UNL     1       8.651   5.959  14.677  0.00  0.00    +0.000 HD
ENDBRANCH  12  13
ENDBRANCH   1  12
TORSDOF 5
ENDMDL
MODEL 8
REMARK VINA RESULT:      -6.9      2.581      7.517
REMARK  Name = 
REMARK  6 active torsions:
REMARK  status: ('A' for Active; 'I' for Inactive)
REMARK    1  A    between atoms: C_1  and  N_2
REMARK    2  A    between atoms: N_2  and  C_3
REMARK    3  A    between atoms: C_3  and  C_4
REMARK    4  A    between atoms: C_9  and  C_11
REMARK    5  A    between atoms: C_11  and  C_12
REMARK    6  A    between atoms: C_12  and  C_13
REMARK                            x       y       z     vdW  Elec       q    Type
REMARK                         _______ _______ _______ _____ _____    ______ ____
ROOT
ATOM      1  C   UNL     1       2.548   5.935  18.120  0.00  0.00    +0.000 C 
ENDROOT
BRANCH   1   4
ATOM      2  C   UNL     1       3.473   2.374  19.135  0.00  0.00    +0.000 C 
ATOM      3  N   UNL     1       3.611   3.760  18.717  0.00  0.00    +0.000 N 
ATOM      4  C   UNL     1       2.435   4.488  18.557  0.00  0.00    +0.000 C 
ATOM      5  O   UNL     1       1.331   3.962  18.717  0.00  0.00    +0.000 OA
BRANCH   3   6
ATOM      6  C   UNL     1       4.959   4.326  18.657  0.00  0.00    +0.000 C 
BRANCH   6   7
ATOM      7  C   UNL     1       5.512   4.369  17.256  0.00  0.00    +0.000 A 
ATOM      8  C   UNL     1       4.923   4.075  16.040  0.00  0.00    +0.000 A 
ATOM      9  C   UNL     1       5.832   4.180  14.946  0.00  0.00    +0.000 A 
ATOM     10  C   UNL     1       7.089   4.563  15.355  0.00  0.00    +0.000 A 
ATOM     11  S   UNL     1       7.161   4.817  17.044  0.00  0.00    +0.000 S 
ENDBRANCH   6   7
ENDBRANCH   3   6
ENDBRANCH   1   4
BRANCH   1  12
ATOM     12  C   UNL     1       2.543   6.865  19.331  0.00  0.00    +0.000 C 
BRANCH  12  13
ATOM     13  C   UNL     1       1.941   8.196  19.010  0.00  0.00    +0.000 A 
ATOM     14  C   UNL     1       2.097   8.898  17.831  0.00  0.00    +0.000 A 
ATOM     15  N   UNL     1       1.376  10.058  17.923  0.00  0.00    +0.000 N 
ATOM     16  C   UNL     1       0.763  10.143  19.151  0.00  0.00    +0.000 A 
ATOM     17  C   UNL     1      -0.058  11.145  19.682  0.00  0.00    +0.000 A 
ATOM     18  C   UNL     1      -0.541  10.965  20.982  0.00  0.00    +0.000 A 
ATOM     19  C   UNL     1      -0.217   9.826  21.716  0.00  0.00    +0.000 A 
ATOM     20  C   UNL     1       0.601   8.832  21.167  0.00  0.00    +0.000 A 
ATOM     21  C   UNL     1       1.102   8.989  19.859  0.00  0.00    +0.000 A 
ATOM     22  H   UNL     1       1.302  10.757  17.197  0.00  0.00    +0.000 HD
ENDBRANCH  12  13
ENDBRANCH   1  12
TORSDOF 5
ENDMDL
MODEL 9
REMARK VINA RESULT:      -6.9      2.629      6.941
REMARK  Name = 
REMARK  6 active torsions:
REMARK  status: ('A' for Active; 'I' for Inactive)
REMARK    1  A    between atoms: C_1  and  N_2
REMARK    2  A    between atoms: N_2  and  C_3
REMARK    3  A    between atoms: C_3  and  C_4
REMARK    4  A    between atoms: C_9  and  C_11
REMARK    5  A    between atoms: C_11  and  C_12
REMARK    6  A    between atoms: C_12  and  C_13
REMARK                            x       y       z     vdW  Elec       q    Type
REMARK                         _______ _______ _______ _____ _____    ______ ____
ROOT
ATOM      1  C   UNL     1       1.598   4.477  19.547  0.00  0.00    +0.000 C 
ENDROOT
BRANCH   1   4
ATOM      2  C   UNL     1       3.741   1.519  18.441  0.00  0.00    +0.000 C 
ATOM      3  N   UNL     1       3.036   2.791  18.405  0.00  0.00    +0.000 N 
ATOM      4  C   UNL     1       2.342   3.157  19.555  0.00  0.00    +0.000 C 
ATOM      5  O   UNL     1       2.292   2.410  20.536  0.00  0.00    +0.000 OA
BRANCH   3   6
ATOM      6  C   UNL     1       3.243   3.655  17.243  0.00  0.00    +0.000 C 
BRANCH   6   7
ATOM      7  C   UNL     1       4.690   4.021  17.038  0.00  0.00    +0.000 A 
ATOM      8  C   UNL     1       5.500   3.928  15.921  0.00  0.00    +0.000 A 
ATOM      9  C   UNL     1       6.846   4.323  16.181  0.00  0.00    +0.000 A 
ATOM     10  C   UNL     1       7.025   4.720  17.486  0.00  0.00    +0.000 A 
ATOM     11  S   UNL     1       5.573   4.638  18.383  0.00  0.00    +0.000 S 
ENDBRANCH   6   7
ENDBRANCH   3   6
ENDBRANCH   1   4
BRANCH   1  12
ATOM     12  C   UNL     1       2.453   5.581  20.165  0.00  0.00    +0.000 C 
BRANCH  12  13
ATOM     13  C   UNL     1       2.264   6.890  19.466  0.00  0.00    +0.000 A 
ATOM     14  C   UNL     1       2.694   7.204  18.193  0.00  0.00    +0.000 A 
ATOM     15  N   UNL     1       2.312   8.489  17.914  0.00  0.00    +0.000 N 
ATOM     16  C   UNL     1       1.655   9.035  18.991  0.00  0.00    +0.000 A 
ATOM     17  C   UNL     1       1.101  10.310  19.158  0.00  0.00    +0.000 A 
ATOM     18  C   UNL     1       0.491  10.596  20.383  0.00  0.00    +0.000 A 
ATOM     19  C   UNL     1       0.435   9.641  21.396  0.00  0.00    +0.000 A 
ATOM     20  C   UNL     1       0.989   8.370  21.210  0.00  0.00    +0.000 A 
ATOM     21  C   UNL     1       1.612   8.056  19.985  0.00  0.00    +0.000 A 
ATOM     22  H   UNL     1       2.488   8.973  17.045  0.00  0.00    +0.000 HD
ENDBRANCH  12  13
ENDBRANCH   1  12
TORSDOF 5
ENDMDL
