MODEL 1
REMARK VINA RESULT:      -8.0      0.000      0.000
REMARK  Name = 
REMARK  4 active torsions:
REMARK  status: ('A' for Active; 'I' for Inactive)
REMARK    1  A    between atoms: C_2  and  C_17
REMARK    2  A    between atoms: N_3  and  C_4
REMARK    3  A    between atoms: C_4  and  N_6
REMARK    4  A    between atoms: N_6  and  C_7
REMARK                            x       y       z     vdW  Elec       q    Type
REMARK                         _______ _______ _______ _____ _____    ______ ____
ROOT
ATOM      1  C   UNL     1       7.265   5.165  18.057  0.00  0.00    +0.000 C 
ATOM      2  S   UNL     1       7.972   6.388  18.940  0.00  0.00    +0.000 S 
ENDROOT
BRANCH   1   5
ATOM      3  O   UNL     1       5.196   5.374  15.941  0.00  0.00    +0.000 OA
ATOM      4  C   UNL     1       6.358   5.042  15.720  0.00  0.00    +0.000 C 
ATOM      5  N   UNL     1       7.353   4.950  16.681  0.00  0.00    +0.000 N 
ATOM      6  H   UNL     1       8.284   4.720  16.367  0.00  0.00    +0.000 HD
BRANCH   4   7
ATOM      7  C   UNL     1       6.708   4.644  14.322  0.00  0.00    +0.000 A 
ATOM      8  C   UNL     1       7.610   5.478  13.644  0.00  0.00    +0.000 A 
ATOM      9  C   UNL     1       7.886   5.287  12.291  0.00  0.00    +0.000 A 
ATOM     10  C   UNL     1       7.261   4.254  11.599  0.00  0.00    +0.000 A 
ATOM     11  C   UNL     1       6.379   3.408  12.271  0.00  0.00    +0.000 A 
ATOM     12 BR   UNL     1       5.505   2.032  11.306  0.00  0.00    +0.000 Br
ATOM     13  C   UNL     1       6.101   3.585  13.632  0.00  0.00    +0.000 A 
ENDBRANCH   4   7
ENDBRANCH   1   5
BRANCH   1  14
ATOM     14  N   UNL     1       6.561   4.192  18.734  0.00  0.00    +0.000 N 
ATOM     15  H   UNL     1       7.121   3.438  19.120  0.00  0.00    +0.000 HD
BRANCH  14  16
ATOM     16  C   UNL     1       5.199   4.236  19.090  0.00  0.00    +0.000 A 
ATOM     17  C   UNL     1       4.578   5.439  19.451  0.00  0.00    +0.000 A 
ATOM     18  C   UNL     1       3.209   5.486  19.686  0.00  0.00    +0.000 A 
ATOM     19  C   UNL     1       2.459   4.321  19.581  0.00  0.00    +0.000 A 
ATOM     20  C   UNL     1       3.085   3.108  19.262  0.00  0.00    +0.000 A 
ATOM     21  C   UNL     1       4.464   3.053  19.062  0.00  0.00    +0.000 A 
ATOM     22  O   UNL     1       2.395   1.933  19.103  0.00  0.00    +0.000 OA
ATOM     23  C   UNL     1       0.997   2.183  18.904  0.00  0.00    +0.000 C 
ATOM     24  C   UNL     1       0.483   3.170  19.938  0.00  0.00    +0.000 C 
ATOM     25  O   UNL     1       1.111   4.447  19.781  0.00  0.00    +0.000 OA
ENDBRANCH  14  16
ENDBRANCH   1  14
TORSDOF 4
ENDMDL
MODEL 2
REMARK VINA RESULT:      -7.8      1.333      1.386
REMARK  Name = 
REMARK  4 active torsions:
REMARK  status: ('A' for Active; 'I' for Inactive)
REMARK    1  A    between atoms: C_2  and  C_17
REMARK    2  A    between atoms: N_3  and  C_4
REMARK    3  A    between atoms: C_4  and  N_6
REMARK    4  A    between atoms: N_6  and  C_7
REMARK                            x       y       z     vdW  Elec       q    Type
REMARK                         _______ _______ _______ _____ _____    ______ ____
ROOT
ATOM      1  C   UNL     1       6.972   6.835  17.426  0.00  0.00    +0.000 C 
ATOM      2  S   UNL     1       7.722   8.267  17.831  0.00  0.00    +0.000 S 
ENDROOT
BRANCH   1   5
ATOM      3  O   UNL     1       7.741   4.132  16.477  0.00  0.00    +0.000 OA
ATOM      4  C   UNL     1       7.255   4.992  15.746  0.00  0.00    +0.000 C 
ATOM      5  N   UNL     1       6.871   6.258  16.159  0.00  0.00    +0.000 N 
ATOM      6  H   UNL     1       6.432   6.857  15.476  0.00  0.00    +0.000 HD
BRANCH   4   7
ATOM      7  C   UNL     1       7.132   4.672  14.291  0.00  0.00    +0.000 A 
ATOM      8  C   UNL     1       8.038   5.315  13.434  0.00  0.00    +0.000 A 
ATOM      9  C   UNL     1       7.915   5.207  12.050  0.00  0.00    +0.000 A 
ATOM     10  C   UNL     1       6.881   4.452  11.505  0.00  0.00    +0.000 A 
ATOM     11  C   UNL     1       5.989   3.793  12.352  0.00  0.00    +0.000 A 
ATOM     12 BR   UNL     1       4.563   2.802  11.596  0.00  0.00    +0.000 Br
ATOM     13  C   UNL     1       6.108   3.887  13.743  0.00  0.00    +0.000 A 
ENDBRANCH   4   7
ENDBRANCH   1   5
BRANCH   1  14
ATOM     14  N   UNL     1       6.439   6.067  18.438  0.00  0.00    +0.000 N 
ATOM     15  H   UNL     1       7.029   5.956  19.258  0.00  0.00    +0.000 HD
BRANCH  14  16
ATOM     16  C   UNL     1       5.119   5.584  18.520  0.00  0.00    +0.000 A 
ATOM     17  C   UNL     1       4.033   6.353  18.080  0.00  0.00    +0.000 A 
ATOM     18  C   UNL     1       2.750   5.818  18.059  0.00  0.00    +0.000 A 
ATOM     19  C   UNL     1       2.547   4.516  18.499  0.00  0.00    +0.000 A 
ATOM     20  C   UNL     1       3.625   3.760  18.979  0.00  0.00    +0.000 A 
ATOM     21  C   UNL     1       4.905   4.307  19.036  0.00  0.00    +0.000 A 
ATOM     22  O   UNL     1       3.497   2.456  19.389  0.00  0.00    +0.000 OA
ATOM     23  C   UNL     1       2.280   1.882  18.894  0.00  0.00    +0.000 C 
ATOM     24  C   UNL     1       1.111   2.820  19.143  0.00  0.00    +0.000 C 
ATOM     25  O   UNL     1       1.268   4.038  18.408  0.00  0.00    +0.000 OA
ENDBRANCH  14  16
ENDBRANCH   1  14
TORSDOF 4
ENDMDL
MODEL 3
REMARK VINA RESULT:      -7.8      4.618      8.127
REMARK  Name = 
REMARK  4 active torsions:
REMARK  status: ('A' for Active; 'I' for Inactive)
REMARK    1  A    between atoms: C_2  and  C_17
REMARK    2  A    between atoms: N_3  and  C_4
REMARK    3  A    between atoms: C_4  and  N_6
REMARK    4  A    between atoms: N_6  and  C_7
REMARK                            x       y       z     vdW  Elec       q    Type
REMARK                         _______ _______ _______ _____ _____    ______ ____
ROOT
ATOM      1  C   UNL     1       2.892   5.214  19.924  0.00  0.00    +0.000 C 
ATOM      2  S   UNL     1       2.299   3.713  19.509  0.00  0.00    +0.000 S 
ENDROOT
BRANCH   1   5
ATOM      3  O   UNL     1       2.592   7.858  18.613  0.00  0.00    +0.000 OA
ATOM      4  C   UNL     1       2.056   7.567  19.680  0.00  0.00    +0.000 C 
ATOM      5  N   UNL     1       2.162   6.338  20.312  0.00  0.00    +0.000 N 
ATOM      6  H   UNL     1       1.630   6.202  21.158  0.00  0.00    +0.000 HD
BRANCH   4   7
ATOM      7  C   UNL     1       1.289   8.642  20.382  0.00  0.00    +0.000 A 
ATOM      8  C   UNL     1       1.141   8.497  21.769  0.00  0.00    +0.000 A 
ATOM      9  C   UNL     1       0.319   9.355  22.497  0.00  0.00    +0.000 A 
ATOM     10  C   UNL     1      -0.367  10.374  21.842  0.00  0.00    +0.000 A 
ATOM     11  C   UNL     1      -0.209  10.537  20.465  0.00  0.00    +0.000 A 
ATOM     12 BR   UNL     1      -1.181  11.901  19.582  0.00  0.00    +0.000 Br
ATOM     13  C   UNL     1       0.621   9.686  19.726  0.00  0.00    +0.000 A 
ENDBRANCH   4   7
ENDBRANCH   1   5
BRANCH   1  14
ATOM     14  N   UNL     1       4.258   5.387  19.970  0.00  0.00    +0.000 N 
ATOM     15  H   UNL     1       4.658   5.451  20.902  0.00  0.00    +0.000 HD
BRANCH  14  16
ATOM     16  C   UNL     1       5.153   5.303  18.886  0.00  0.00    +0.000 A 
ATOM     17  C   UNL     1       6.541   5.308  19.084  0.00  0.00    +0.000 A 
ATOM     18  C   UNL     1       7.408   5.107  18.016  0.00  0.00    +0.000 A 
ATOM     19  C   UNL     1       6.888   4.922  16.742  0.00  0.00    +0.000 A 
ATOM     20  C   UNL     1       5.502   4.960  16.534  0.00  0.00    +0.000 A 
ATOM     21  C   UNL     1       4.633   5.198  17.598  0.00  0.00    +0.000 A 
ATOM     22  O   UNL     1       4.926   4.743  15.308  0.00  0.00    +0.000 OA
ATOM     23  C   UNL     1       5.847   4.100  14.417  0.00  0.00    +0.000 C 
ATOM     24  C   UNL     1       7.195   4.799  14.451  0.00  0.00    +0.000 C 
ATOM     25  O   UNL     1       7.796   4.685  15.745  0.00  0.00    +0.000 OA
ENDBRANCH  14  16
ENDBRANCH   1  14
TORSDOF 4
ENDMDL
MODEL 4
REMARK VINA RESULT:      -7.6      4.793      7.950
REMARK  Name = 
REMARK  4 active torsions:
REMARK  status: ('A' for Active; 'I' for Inactive)
REMARK    1  A    between atoms: C_2  and  C_17
REMARK    2  A    between atoms: N_3  and  C_4
REMARK    3  A    between atoms: C_4  and  N_6
REMARK    4  A    between atoms: N_6  and  C_7
REMARK                            x       y       z     vdW  Elec       q    Type
REMARK                         _______ _______ _______ _____ _____    ______ ____
ROOT
ATOM      1  C   UNL     1       2.906   5.313  19.840  0.00  0.00    +0.000 C 
ATOM      2  S   UNL     1       2.333   3.756  19.692  0.00  0.00    +0.000 S 
ENDROOT
BRANCH   1   5
ATOM      3  O   UNL     1       2.800   7.777  18.191  0.00  0.00    +0.000 OA
ATOM      4  C   UNL     1       2.147   7.623  19.221  0.00  0.00    +0.000 C 
ATOM      5  N   UNL     1       2.161   6.481  20.006  0.00  0.00    +0.000 N 
ATOM      6  H   UNL     1       1.538   6.454  20.799  0.00  0.00    +0.000 HD
BRANCH   4   7
ATOM      7  C   UNL     1       1.329   8.780  19.698  0.00  0.00    +0.000 A 
ATOM      8  C   UNL     1       1.299   9.908  18.864  0.00  0.00    +0.000 A 
ATOM      9  C   UNL     1       0.695  11.093  19.280  0.00  0.00    +0.000 A 
ATOM     10  C   UNL     1       0.111  11.163  20.541  0.00  0.00    +0.000 A 
ATOM     11  C   UNL     1       0.118  10.040  21.368  0.00  0.00    +0.000 A 
ATOM     12 BR   UNL     1      -0.644  10.163  23.097  0.00  0.00    +0.000 Br
ATOM     13  C   UNL     1       0.715   8.842  20.957  0.00  0.00    +0.000 A 
ENDBRANCH   4   7
ENDBRANCH   1   5
BRANCH   1  14
ATOM     14  N   UNL     1       4.270   5.507  19.880  0.00  0.00    +0.000 N 
ATOM     15  H   UNL     1       4.667   5.624  20.808  0.00  0.00    +0.000 HD
BRANCH  14  16
ATOM     16  C   UNL     1       5.168   5.380  18.803  0.00  0.00    +0.000 A 
ATOM     17  C   UNL     1       6.555   5.371  19.006  0.00  0.00    +0.000 A 
ATOM     18  C   UNL     1       7.424   5.128  17.949  0.00  0.00    +0.000 A 
ATOM     19  C   UNL     1       6.907   4.914  16.678  0.00  0.00    +0.000 A 
ATOM     20  C   UNL     1       5.523   4.965  16.463  0.00  0.00    +0.000 A 
ATOM     21  C   UNL     1       4.653   5.245  17.515  0.00  0.00    +0.000 A 
ATOM     22  O   UNL     1       4.949   4.721  15.241  0.00  0.00    +0.000 OA
ATOM     23  C   UNL     1       5.864   4.040  14.373  0.00  0.00    +0.000 C 
ATOM     24  C   UNL     1       7.222   4.721  14.393  0.00  0.00    +0.000 C 
ATOM     25  O   UNL     1       7.816   4.636  15.693  0.00  0.00    +0.000 OA
ENDBRANCH  14  16
ENDBRANCH   1  14
TORSDOF 4
ENDMDL
MODEL 5
REMARK VINA RESULT:      -7.6      6.475      7.721
REMARK  Name = 
REMARK  4 active torsions:
REMARK  status: ('A' for Active; 'I' for Inactive)
REMARK    1  A    between atoms: C_2  and  C_17
REMARK    2  A    between atoms: N_3  and  C_4
REMARK    3  A    between atoms: C_4  and  N_6
REMARK    4  A    between atoms: N_6  and  C_7
REMARK                            x       y       z     vdW  Elec       q    Type
REMARK                         _______ _______ _______ _____ _____    ______ ____
ROOT
ATOM      1  C   UNL     1       1.222   9.016  20.234  0.00  0.00    +0.000 C 
ATOM      2  S   UNL     1       0.600   9.041  21.779  0.00  0.00    +0.000 S 
ENDROOT
BRANCH   1   5
ATOM      3  O   UNL     1       2.350   8.817  17.497  0.00  0.00    +0.000 OA
ATOM      4  C   UNL     1       2.471   7.935  18.344  0.00  0.00    +0.000 C 
ATOM      5  N   UNL     1       1.971   8.002  19.635  0.00  0.00    +0.000 N 
ATOM      6  H   UNL     1       2.182   7.235  20.256  0.00  0.00    +0.000 HD
BRANCH   4   7
ATOM      7  C   UNL     1       3.148   6.669  17.929  0.00  0.00    +0.000 A 
ATOM      8  C   UNL     1       4.336   6.809  17.195  0.00  0.00    +0.000 A 
ATOM      9  C   UNL     1       4.965   5.702  16.630  0.00  0.00    +0.000 A 
ATOM     10  C   UNL     1       4.412   4.435  16.794  0.00  0.00    +0.000 A 
ATOM     11  C   UNL     1       3.243   4.285  17.540  0.00  0.00    +0.000 A 
ATOM     12 BR   UNL     1       2.479   2.562  17.721  0.00  0.00    +0.000 Br
ATOM     13  C   UNL     1       2.607   5.390  18.120  0.00  0.00    +0.000 A 
ENDBRANCH   4   7
ENDBRANCH   1   5
BRANCH   1  14
ATOM     14  N   UNL     1       0.928  10.068  19.393  0.00  0.00    +0.000 N 
ATOM     15  H   UNL     1       1.729  10.514  18.956  0.00  0.00    +0.000 HD
BRANCH  14  16
ATOM     16  C   UNL     1      -0.351  10.458  18.953  0.00  0.00    +0.000 A 
ATOM     17  C   UNL     1      -1.111  11.400  19.661  0.00  0.00    +0.000 A 
ATOM     18  C   UNL     1      -2.319  11.862  19.152  0.00  0.00    +0.000 A 
ATOM     19  C   UNL     1      -2.782  11.365  17.941  0.00  0.00    +0.000 A 
ATOM     20  C   UNL     1      -2.046  10.391  17.252  0.00  0.00    +0.000 A 
ATOM     21  C   UNL     1      -0.853   9.901  17.779  0.00  0.00    +0.000 A 
ATOM     22  O   UNL     1      -2.429   9.892  16.032  0.00  0.00    +0.000 OA
ATOM     23  C   UNL     1      -3.394  10.750  15.408  0.00  0.00    +0.000 C 
ATOM     24  C   UNL     1      -4.487  11.125  16.394  0.00  0.00    +0.000 C 
ATOM     25  O   UNL     1      -3.956  11.896  17.477  0.00  0.00    +0.000 OA
ENDBRANCH  14  16
ENDBRANCH   1  14
TORSDOF 4
ENDMDL
MODEL 6
REMARK VINA RESULT:      -7.6      0.885      1.369
REMARK  Name = 
REMARK  4 active torsions:
REMARK  status: ('A' for Active; 'I' for Inactive)
REMARK    1  A    between atoms: C_2  and  C_17
REMARK    2  A    between atoms: N_3  and  C_4
REMARK    3  A    between atoms: C_4  and  N_6
REMARK    4  A    between atoms: N_6  and  C_7
REMARK                            x       y       z     vdW  Elec       q    Type
REMARK                         _______ _______ _______ _____ _____    ______ ____
ROOT
ATOM      1  C   UNL     1       7.246   5.125  17.977  0.00  0.00    +0.000 C 
ATOM      2  S   UNL     1       7.895   6.394  18.841  0.00  0.00    +0.000 S 
ENDROOT
BRANCH   1   5
ATOM      3  O   UNL     1       5.729   6.257  15.693  0.00  0.00    +0.000 OA
ATOM      4  C   UNL     1       6.621   5.421  15.565  0.00  0.00    +0.000 C 
ATOM      5  N   UNL     1       7.359   4.883  16.608  0.00  0.00    +0.000 N 
ATOM      6  H   UNL     1       8.103   4.244  16.370  0.00  0.00    +0.000 HD
BRANCH   4   7
ATOM      7  C   UNL     1       6.881   4.895  14.190  0.00  0.00    +0.000 A 
ATOM      8  C   UNL     1       7.773   5.635  13.399  0.00  0.00    +0.000 A 
ATOM      9  C   UNL     1       7.971   5.322  12.056  0.00  0.00    +0.000 A 
ATOM     10  C   UNL     1       7.274   4.261  11.485  0.00  0.00    +0.000 A 
ATOM     11  C   UNL     1       6.401   3.507  12.271  0.00  0.00    +0.000 A 
ATOM     12 BR   UNL     1       5.430   2.092  11.470  0.00  0.00    +0.000 Br
ATOM     13  C   UNL     1       6.202   3.808  13.623  0.00  0.00    +0.000 A 
ENDBRANCH   4   7
ENDBRANCH   1   5
BRANCH   1  14
ATOM     14  N   UNL     1       6.573   4.140  18.668  0.00  0.00    +0.000 N 
ATOM     15  H   UNL     1       7.125   3.635  19.355  0.00  0.00    +0.000 HD
BRANCH  14  16
ATOM     16  C   UNL     1       5.187   3.896  18.645  0.00  0.00    +0.000 A 
ATOM     17  C   UNL     1       4.560   3.361  17.511  0.00  0.00    +0.000 A 
ATOM     18  C   UNL     1       3.213   3.017  17.543  0.00  0.00    +0.000 A 
ATOM     19  C   UNL     1       2.484   3.228  18.706  0.00  0.00    +0.000 A 
ATOM     20  C   UNL     1       3.098   3.802  19.827  0.00  0.00    +0.000 A 
ATOM     21  C   UNL     1       4.438   4.181  19.785  0.00  0.00    +0.000 A 
ATOM     22  O   UNL     1       2.443   3.997  21.017  0.00  0.00    +0.000 OA
ATOM     23  C   UNL     1       1.253   3.200  21.083  0.00  0.00    +0.000 C 
ATOM     24  C   UNL     1       0.449   3.341  19.802  0.00  0.00    +0.000 C 
ATOM     25  O   UNL     1       1.176   2.824  18.682  0.00  0.00    +0.000 OA
ENDBRANCH  14  16
ENDBRANCH   1  14
TORSDOF 4
ENDMDL
MODEL 7
REMARK VINA RESULT:      -7.6      6.352      7.730
REMARK  Name = 
REMARK  4 active torsions:
REMARK  status: ('A' for Active; 'I' for Inactive)
REMARK    1  A    between atoms: C_2  and  C_17
REMARK    2  A    between atoms: N_3  and  C_4
REMARK    3  A    between atoms: C_4  and  N_6
REMARK    4  A    between atoms: N_6  and  C_7
REMARK                            x       y       z     vdW  Elec       q    Type
REMARK                         _______ _______ _______ _____ _____    ______ ____
ROOT
ATOM      1  C   UNL     1       1.313   8.934  20.225  0.00  0.00    +0.000 C 
ATOM      2  S   UNL     1       0.792   8.996  21.807  0.00  0.00    +0.000 S 
ENDROOT
BRANCH   1   5
ATOM      3  O   UNL     1       2.480   8.761  17.503  0.00  0.00    +0.000 OA
ATOM      4  C   UNL     1       2.487   7.829  18.303  0.00  0.00    +0.000 C 
ATOM      5  N   UNL     1       1.966   7.880  19.586  0.00  0.00    +0.000 N 
ATOM      6  H   UNL     1       2.082   7.064  20.169  0.00  0.00    +0.000 HD
BRANCH   4   7
ATOM      7  C   UNL     1       3.040   6.521  17.833  0.00  0.00    +0.000 A 
ATOM      8  C   UNL     1       2.198   5.406  17.963  0.00  0.00    +0.000 A 
ATOM      9  C   UNL     1       2.665   4.120  17.699  0.00  0.00    +0.000 A 
ATOM     10  C   UNL     1       3.984   3.934  17.298  0.00  0.00    +0.000 A 
ATOM     11  C   UNL     1       4.821   5.040  17.146  0.00  0.00    +0.000 A 
ATOM     12 BR   UNL     1       6.626   4.767  16.640  0.00  0.00    +0.000 Br
ATOM     13  C   UNL     1       4.361   6.337  17.401  0.00  0.00    +0.000 A 
ENDBRANCH   4   7
ENDBRANCH   1   5
BRANCH   1  14
ATOM     14  N   UNL     1       1.023   9.999  19.400  0.00  0.00    +0.000 N 
ATOM     15  H   UNL     1       1.826  10.442  18.962  0.00  0.00    +0.000 HD
BRANCH  14  16
ATOM     16  C   UNL     1      -0.255  10.406  18.972  0.00  0.00    +0.000 A 
ATOM     17  C   UNL     1      -0.994  11.360  19.687  0.00  0.00    +0.000 A 
ATOM     18  C   UNL     1      -2.201  11.837  19.191  0.00  0.00    +0.000 A 
ATOM     19  C   UNL     1      -2.684  11.345  17.985  0.00  0.00    +0.000 A 
ATOM     20  C   UNL     1      -1.969  10.361  17.289  0.00  0.00    +0.000 A 
ATOM     21  C   UNL     1      -0.776   9.855  17.804  0.00  0.00    +0.000 A 
ATOM     22  O   UNL     1      -2.372   9.866  16.074  0.00  0.00    +0.000 OA
ATOM     23  C   UNL     1      -3.331  10.737  15.460  0.00  0.00    +0.000 C 
ATOM     24  C   UNL     1      -4.408  11.128  16.456  0.00  0.00    +0.000 C 
ATOM     25  O   UNL     1      -3.855  11.892  17.533  0.00  0.00    +0.000 OA
ENDBRANCH  14  16
ENDBRANCH   1  14
TORSDOF 4
ENDMDL
MODEL 8
REMARK VINA RESULT:      -7.5      4.024      7.517
REMARK  Name = 
REMARK  4 active torsions:
REMARK  status: ('A' for Active; 'I' for Inactive)
REMARK    1  A    between atoms: C_2  and  C_17
REMARK    2  A    between atoms: N_3  and  C_4
REMARK    3  A    between atoms: C_4  and  N_6
REMARK    4  A    between atoms: N_6  and  C_7
REMARK                            x       y       z     vdW  Elec       q    Type
REMARK                         _______ _______ _______ _____ _____    ______ ____
ROOT
ATOM      1  C   UNL     1       3.507   3.605  18.152  0.00  0.00    +0.000 C 
ATOM      2  S   UNL     1       2.630   2.193  18.264  0.00  0.00    +0.000 S 
ENDROOT
BRANCH   1   5
ATOM      3  O   UNL     1       2.869   5.162  20.596  0.00  0.00    +0.000 OA
ATOM      4  C   UNL     1       2.735   5.604  19.457  0.00  0.00    +0.000 C 
ATOM      5  N   UNL     1       3.038   4.911  18.296  0.00  0.00    +0.000 N 
ATOM      6  H   UNL     1       2.936   5.402  17.420  0.00  0.00    +0.000 HD
BRANCH   4   7
ATOM      7  C   UNL     1       2.136   6.967  19.313  0.00  0.00    +0.000 A 
ATOM      8  C   UNL     1       2.266   7.574  18.055  0.00  0.00    +0.000 A 
ATOM      9  C   UNL     1       1.882   8.899  17.854  0.00  0.00    +0.000 A 
ATOM     10  C   UNL     1       1.359   9.634  18.915  0.00  0.00    +0.000 A 
ATOM     11  C   UNL     1       1.208   9.030  20.163  0.00  0.00    +0.000 A 
ATOM     12 BR   UNL     1       0.534  10.054  21.607  0.00  0.00    +0.000 Br
ATOM     13  C   UNL     1       1.583   7.698  20.374  0.00  0.00    +0.000 A 
ENDBRANCH   4   7
ENDBRANCH   1   5
BRANCH   1  14
ATOM     14  N   UNL     1       4.870   3.515  17.967  0.00  0.00    +0.000 N 
ATOM     15  H   UNL     1       5.354   2.882  18.598  0.00  0.00    +0.000 HD
BRANCH  14  16
ATOM     16  C   UNL     1       5.611   4.060  16.901  0.00  0.00    +0.000 A 
ATOM     17  C   UNL     1       6.712   4.897  17.132  0.00  0.00    +0.000 A 
ATOM     18  C   UNL     1       7.503   5.332  16.075  0.00  0.00    +0.000 A 
ATOM     19  C   UNL     1       7.180   4.949  14.780  0.00  0.00    +0.000 A 
ATOM     20  C   UNL     1       6.055   4.147  14.542  0.00  0.00    +0.000 A 
ATOM     21  C   UNL     1       5.240   3.740  15.597  0.00  0.00    +0.000 A 
ATOM     22  O   UNL     1       5.708   3.701  13.292  0.00  0.00    +0.000 OA
ATOM     23  C   UNL     1       6.814   3.808  12.386  0.00  0.00    +0.000 C 
ATOM     24  C   UNL     1       7.458   5.179  12.493  0.00  0.00    +0.000 C 
ATOM     25  O   UNL     1       8.027   5.375  13.793  0.00  0.00    +0.000 OA
ENDBRANCH  14  16
ENDBRANCH   1  14
TORSDOF 4
ENDMDL
MODEL 9
REMARK VINA RESULT:      -7.4      4.141      5.686
REMARK  Name = 
REMARK  4 active torsions:
REMARK  status: ('A' for Active; 'I' for Inactive)
REMARK    1  A    between atoms: C_2  and  C_17
REMARK    2  A    between atoms: N_3  and  C_4
REMARK    3  A    between atoms: C_4  and  N_6
REMARK    4  A    between atoms: N_6  and  C_7
REMARK                            x       y       z     vdW  Elec       q    Type
REMARK                         _______ _______ _______ _____ _____    ______ ____
ROOT
ATOM      1  C   UNL     1       2.348   5.069  19.994  0.00  0.00    +0.000 C 
ATOM      2  S   UNL     1       1.138   3.977  20.342  0.00  0.00    +0.000 S 
ENDROOT
BRANCH   1   5
ATOM      3  O   UNL     1       4.259   2.859  19.479  0.00  0.00    +0.000 OA
ATOM      4  C   UNL     1       4.240   3.902  18.830  0.00  0.00    +0.000 C 
ATOM      5  N   UNL     1       3.352   4.946  19.033  0.00  0.00    +0.000 N 
ATOM      6  H   UNL     1       3.400   5.729  18.398  0.00  0.00    +0.000 HD
BRANCH   4   7
ATOM      7  C   UNL     1       5.296   4.084  17.788  0.00  0.00    +0.000 A 
ATOM      8  C   UNL     1       6.498   4.668  18.215  0.00  0.00    +0.000 A 
ATOM      9  C   UNL     1       7.489   5.023  17.301  0.00  0.00    +0.000 A 
ATOM     10  C   UNL     1       7.288   4.796  15.943  0.00  0.00    +0.000 A 
ATOM     11  C   UNL     1       6.103   4.196  15.512  0.00  0.00    +0.000 A 
ATOM     12 BR   UNL     1       5.827   3.931  13.658  0.00  0.00    +0.000 Br
ATOM     13  C   UNL     1       5.106   3.828  16.423  0.00  0.00    +0.000 A 
ENDBRANCH   4   7
ENDBRANCH   1   5
BRANCH   1  14
ATOM     14  N   UNL     1       2.352   6.274  20.661  0.00  0.00    +0.000 N 
ATOM     15  H   UNL     1       2.824   6.273  21.561  0.00  0.00    +0.000 HD
BRANCH  14  16
ATOM     16  C   UNL     1       1.936   7.519  20.149  0.00  0.00    +0.000 A 
ATOM     17  C   UNL     1       2.197   7.885  18.822  0.00  0.00    +0.000 A 
ATOM     18  C   UNL     1       1.680   9.065  18.299  0.00  0.00    +0.000 A 
ATOM     19  C   UNL     1       0.916   9.893  19.111  0.00  0.00    +0.000 A 
ATOM     20  C   UNL     1       0.689   9.549  20.451  0.00  0.00    +0.000 A 
ATOM     21  C   UNL     1       1.238   8.386  20.987  0.00  0.00    +0.000 A 
ATOM     22  O   UNL     1      -0.091  10.304  21.292  0.00  0.00    +0.000 OA
ATOM     23  C   UNL     1      -0.926  11.200  20.548  0.00  0.00    +0.000 C 
ATOM     24  C   UNL     1      -0.114  11.930  19.492  0.00  0.00    +0.000 C 
ATOM     25  O   UNL     1       0.400  11.014  18.519  0.00  0.00    +0.000 OA
ENDBRANCH  14  16
ENDBRANCH   1  14
TORSDOF 4
ENDMDL
