MODEL 1
REMARK VINA RESULT:      -8.3      0.000      0.000
REMARK  Name = 
REMARK  4 active torsions:
REMARK  status: ('A' for Active; 'I' for Inactive)
REMARK    1  A    between atoms: C_1  and  O_2
REMARK    2  A    between atoms: O_2  and  C_3
REMARK    3  A    between atoms: C_6  and  N_7
REMARK    4  A    between atoms: C_12  and  C_13
REMARK                            x       y       z     vdW  Elec       q    Type
REMARK                         _______ _______ _______ _____ _____    ______ ____
ROOT
ATOM      1  N   UNL     1       3.769   5.999  18.744  0.00  0.00    +0.000 N 
ATOM      2  C   UNL     1       3.665   4.885  19.594  0.00  0.00    +0.000 A 
ATOM      3  O   UNL     1       4.276   3.819  19.514  0.00  0.00    +0.000 OA
ATOM      4  N   UNL     1       2.761   5.050  20.593  0.00  0.00    +0.000 N 
ATOM      5  C   UNL     1       2.075   6.218  20.779  0.00  0.00    +0.000 A 
ATOM      6  C   UNL     1       2.113   7.319  19.955  0.00  0.00    +0.000 A 
ATOM      7  C   UNL     1       2.884   7.105  18.728  0.00  0.00    +0.000 A 
ATOM      8  O   UNL     1       2.728   7.889  17.796  0.00  0.00    +0.000 OA
ATOM      9  H   UNL     1       2.700   4.271  21.249  0.00  0.00    +0.000 HD
ENDROOT
BRANCH   6  10
ATOM     10  C   UNL     1       1.200   8.496  20.376  0.00  0.00    +0.000 C 
ATOM     11  O   UNL     1       1.634   8.766  21.541  0.00  0.00    +0.000 OA
ATOM     12  N   UNL     1      -0.006   9.313  19.656  0.00  0.00    +0.000 N 
ATOM     13  C   UNL     1       0.116  10.167  20.866  0.00  0.00    +0.000 C 
ATOM     14  C   UNL     1      -0.594  11.394  21.357  0.00  0.00    +0.000 C 
ATOM     15  C   UNL     1      -1.610  12.206  20.691  0.00  0.00    +0.000 C 
ATOM     16  C   UNL     1      -1.967  11.400  19.496  0.00  0.00    +0.000 A 
ATOM     17  C   UNL     1      -3.097  12.104  18.924  0.00  0.00    +0.000 A 
ATOM     18  C   UNL     1      -3.600  11.758  17.716  0.00  0.00    +0.000 A 
ATOM     19  C   UNL     1      -2.933  10.713  17.089  0.00  0.00    +0.000 A 
ATOM     20  C   UNL     1      -1.806   9.947  17.696  0.00  0.00    +0.000 A 
ATOM     21  C   UNL     1      -1.243  10.211  18.981  0.00  0.00    +0.000 A 
ENDBRANCH   6  10
BRANCH   1  25
ATOM     22  C   UNL     1       6.804   5.518  15.929  0.00  0.00    +0.000 A 
ATOM     23  C   UNL     1       5.531   5.005  15.677  0.00  0.00    +0.000 A 
ATOM     24  C   UNL     1       4.500   5.220  16.572  0.00  0.00    +0.000 A 
ATOM     25  C   UNL     1       4.761   5.909  17.752  0.00  0.00    +0.000 A 
ATOM     26  C   UNL     1       6.027   6.457  17.999  0.00  0.00    +0.000 A 
ATOM     27  C   UNL     1       7.052   6.264  17.083  0.00  0.00    +0.000 A 
BRANCH  22  29
ATOM     28  C   UNL     1       7.213   4.780  13.740  0.00  0.00    +0.000 C 
ATOM     29  O   UNL     1       7.739   5.174  14.997  0.00  0.00    +0.000 OA
ENDBRANCH  22  29
ENDBRANCH   1  25
TORSDOF 3
ENDMDL
MODEL 2
REMARK VINA RESULT:      -8.3      0.525      1.057
REMARK  Name = 
REMARK  4 active torsions:
REMARK  status: ('A' for Active; 'I' for Inactive)
REMARK    1  A    between atoms: C_1  and  O_2
REMARK    2  A    between atoms: O_2  and  C_3
REMARK    3  A    between atoms: C_6  and  N_7
REMARK    4  A    between atoms: C_12  and  C_13
REMARK                            x       y       z     vdW  Elec       q    Type
REMARK                         _______ _______ _______ _____ _____    ______ ____
ROOT
ATOM      1  N   UNL     1       3.704   5.478  18.859  0.00  0.00    +0.000 N 
ATOM      2  C   UNL     1       3.438   4.331  19.625  0.00  0.00    +0.000 A 
ATOM      3  O   UNL     1       3.924   3.208  19.490  0.00  0.00    +0.000 OA
ATOM      4  N   UNL     1       2.522   4.536  20.605  0.00  0.00    +0.000 N 
ATOM      5  C   UNL     1       1.970   5.763  20.851  0.00  0.00    +0.000 A 
ATOM      6  C   UNL     1       2.168   6.903  20.108  0.00  0.00    +0.000 A 
ATOM      7  C   UNL     1       2.955   6.680  18.893  0.00  0.00    +0.000 A 
ATOM      8  O   UNL     1       2.927   7.536  18.013  0.00  0.00    +0.000 OA
ATOM      9  H   UNL     1       2.346   3.729  21.203  0.00  0.00    +0.000 HD
ENDROOT
BRANCH   6  10
ATOM     10  C   UNL     1       1.382   8.150  20.581  0.00  0.00    +0.000 C 
ATOM     11  O   UNL     1       1.845   8.327  21.752  0.00  0.00    +0.000 OA
ATOM     12  N   UNL     1       0.264   9.116  19.903  0.00  0.00    +0.000 N 
ATOM     13  C   UNL     1       0.478   9.903  21.145  0.00  0.00    +0.000 C 
ATOM     14  C   UNL     1      -0.101  11.176  21.689  0.00  0.00    +0.000 C 
ATOM     15  C   UNL     1      -1.029  12.114  21.063  0.00  0.00    +0.000 C 
ATOM     16  C   UNL     1      -1.471  11.398  19.839  0.00  0.00    +0.000 A 
ATOM     17  C   UNL     1      -2.523  12.237  19.304  0.00  0.00    +0.000 A 
ATOM     18  C   UNL     1      -3.063  11.994  18.086  0.00  0.00    +0.000 A 
ATOM     19  C   UNL     1      -2.510  10.911  17.414  0.00  0.00    +0.000 A 
ATOM     20  C   UNL     1      -1.465  10.010  17.982  0.00  0.00    +0.000 A 
ATOM     21  C   UNL     1      -0.875  10.162  19.272  0.00  0.00    +0.000 A 
ENDBRANCH   6  10
BRANCH   1  25
ATOM     22  C   UNL     1       6.603   5.267  15.873  0.00  0.00    +0.000 A 
ATOM     23  C   UNL     1       6.887   5.914  17.076  0.00  0.00    +0.000 A 
ATOM     24  C   UNL     1       5.958   5.929  18.099  0.00  0.00    +0.000 A 
ATOM     25  C   UNL     1       4.717   5.336  17.893  0.00  0.00    +0.000 A 
ATOM     26  C   UNL     1       4.434   4.654  16.702  0.00  0.00    +0.000 A 
ATOM     27  C   UNL     1       5.382   4.616  15.689  0.00  0.00    +0.000 A 
BRANCH  22  29
ATOM     28  C   UNL     1       7.258   4.844  13.659  0.00  0.00    +0.000 C 
ATOM     29  O   UNL     1       7.581   5.388  14.929  0.00  0.00    +0.000 OA
ENDBRANCH  22  29
ENDBRANCH   1  25
TORSDOF 3
ENDMDL
MODEL 3
REMARK VINA RESULT:      -8.3      1.877      2.193
REMARK  Name = 
REMARK  4 active torsions:
REMARK  status: ('A' for Active; 'I' for Inactive)
REMARK    1  A    between atoms: C_1  and  O_2
REMARK    2  A    between atoms: O_2  and  C_3
REMARK    3  A    between atoms: C_6  and  N_7
REMARK    4  A    between atoms: C_12  and  C_13
REMARK                            x       y       z     vdW  Elec       q    Type
REMARK                         _______ _______ _______ _____ _____    ______ ____
ROOT
ATOM      1  N   UNL     1       3.832   5.313  18.712  0.00  0.00    +0.000 N 
ATOM      2  C   UNL     1       3.615   4.142  19.459  0.00  0.00    +0.000 A 
ATOM      3  O   UNL     1       4.150   3.044  19.305  0.00  0.00    +0.000 OA
ATOM      4  N   UNL     1       2.690   4.291  20.440  0.00  0.00    +0.000 N 
ATOM      5  C   UNL     1       2.084   5.488  20.705  0.00  0.00    +0.000 A 
ATOM      6  C   UNL     1       2.232   6.648  19.982  0.00  0.00    +0.000 A 
ATOM      7  C   UNL     1       3.030   6.480  18.765  0.00  0.00    +0.000 A 
ATOM      8  O   UNL     1       2.966   7.349  17.900  0.00  0.00    +0.000 OA
ATOM      9  H   UNL     1       2.549   3.466  21.024  0.00  0.00    +0.000 HD
ENDROOT
BRANCH   6  10
ATOM     10  C   UNL     1       1.393   7.851  20.474  0.00  0.00    +0.000 C 
ATOM     11  O   UNL     1       0.730   7.339  21.432  0.00  0.00    +0.000 OA
ATOM     12  N   UNL     1       1.276   9.412  20.037  0.00  0.00    +0.000 N 
ATOM     13  C   UNL     1       0.412   9.480  21.244  0.00  0.00    +0.000 C 
ATOM     14  C   UNL     1      -0.361  10.576  21.916  0.00  0.00    +0.000 C 
ATOM     15  C   UNL     1      -0.406  12.004  21.607  0.00  0.00    +0.000 C 
ATOM     16  C   UNL     1       0.307  12.098  20.308  0.00  0.00    +0.000 A 
ATOM     17  C   UNL     1       0.114  13.475  19.902  0.00  0.00    +0.000 A 
ATOM     18  C   UNL     1       0.768  13.989  18.834  0.00  0.00    +0.000 A 
ATOM     19  C   UNL     1       1.630  13.103  18.202  0.00  0.00    +0.000 A 
ATOM     20  C   UNL     1       1.791  11.668  18.579  0.00  0.00    +0.000 A 
ATOM     21  C   UNL     1       1.109  11.031  19.659  0.00  0.00    +0.000 A 
ENDBRANCH   6  10
BRANCH   1  25
ATOM     22  C   UNL     1       6.747   5.286  15.734  0.00  0.00    +0.000 A 
ATOM     23  C   UNL     1       7.016   5.878  16.969  0.00  0.00    +0.000 A 
ATOM     24  C   UNL     1       6.082   5.831  17.987  0.00  0.00    +0.000 A 
ATOM     25  C   UNL     1       4.850   5.231  17.746  0.00  0.00    +0.000 A 
ATOM     26  C   UNL     1       4.582   4.604  16.522  0.00  0.00    +0.000 A 
ATOM     27  C   UNL     1       5.535   4.629  15.513  0.00  0.00    +0.000 A 
BRANCH  22  29
ATOM     28  C   UNL     1       7.411   4.994  13.503  0.00  0.00    +0.000 C 
ATOM     29  O   UNL     1       7.727   5.467  14.803  0.00  0.00    +0.000 OA
ENDBRANCH  22  29
ENDBRANCH   1  25
TORSDOF 3
ENDMDL
MODEL 4
REMARK VINA RESULT:      -8.1      2.773      9.368
REMARK  Name = 
REMARK  4 active torsions:
REMARK  status: ('A' for Active; 'I' for Inactive)
REMARK    1  A    between atoms: C_1  and  O_2
REMARK    2  A    between atoms: O_2  and  C_3
REMARK    3  A    between atoms: C_6  and  N_7
REMARK    4  A    between atoms: C_12  and  C_13
REMARK                            x       y       z     vdW  Elec       q    Type
REMARK                         _______ _______ _______ _____ _____    ______ ____
ROOT
ATOM      1  N   UNL     1       0.045  11.595  19.863  0.00  0.00    +0.000 N 
ATOM      2  C   UNL     1       0.584  12.714  19.205  0.00  0.00    +0.000 A 
ATOM      3  O   UNL     1       0.263  13.894  19.346  0.00  0.00    +0.000 OA
ATOM      4  N   UNL     1       1.555  12.400  18.311  0.00  0.00    +0.000 N 
ATOM      5  C   UNL     1       2.000  11.119  18.127  0.00  0.00    +0.000 A 
ATOM      6  C   UNL     1       1.481   9.990  18.716  0.00  0.00    +0.000 A 
ATOM      7  C   UNL     1       0.272  10.243  19.502  0.00  0.00    +0.000 A 
ATOM      8  O   UNL     1      -0.439   9.289  19.804  0.00  0.00    +0.000 OA
ATOM      9  H   UNL     1       1.991  13.200  17.853  0.00  0.00    +0.000 HD
ENDROOT
BRANCH   6  10
ATOM     10  C   UNL     1       2.146   8.656  18.298  0.00  0.00    +0.000 C 
ATOM     11  O   UNL     1       2.661   8.957  17.174  0.00  0.00    +0.000 OA
ATOM     12  N   UNL     1       2.281   7.189  18.982  0.00  0.00    +0.000 N 
ATOM     13  C   UNL     1       3.178   6.948  17.822  0.00  0.00    +0.000 C 
ATOM     14  C   UNL     1       3.983   5.775  17.348  0.00  0.00    +0.000 C 
ATOM     15  C   UNL     1       4.203   4.481  17.991  0.00  0.00    +0.000 C 
ATOM     16  C   UNL     1       3.244   4.491  19.124  0.00  0.00    +0.000 A 
ATOM     17  C   UNL     1       3.323   3.148  19.661  0.00  0.00    +0.000 A 
ATOM     18  C   UNL     1       2.707   2.819  20.821  0.00  0.00    +0.000 A 
ATOM     19  C   UNL     1       2.034   3.867  21.436  0.00  0.00    +0.000 A 
ATOM     20  C   UNL     1       1.902   5.237  20.862  0.00  0.00    +0.000 A 
ATOM     21  C   UNL     1       2.477   5.659  19.625  0.00  0.00    +0.000 A 
ENDBRANCH   6  10
BRANCH   1  25
ATOM     22  C   UNL     1      -2.851  12.204  22.796  0.00  0.00    +0.000 A 
ATOM     23  C   UNL     1      -1.571  11.780  23.157  0.00  0.00    +0.000 A 
ATOM     24  C   UNL     1      -0.584  11.642  22.199  0.00  0.00    +0.000 A 
ATOM     25  C   UNL     1      -0.897  11.882  20.866  0.00  0.00    +0.000 A 
ATOM     26  C   UNL     1      -2.169  12.341  20.497  0.00  0.00    +0.000 A 
ATOM     27  C   UNL     1      -3.149  12.506  21.467  0.00  0.00    +0.000 A 
BRANCH  22  29
ATOM     28  C   UNL     1      -4.809  13.153  23.675  0.00  0.00    +0.000 C 
ATOM     29  O   UNL     1      -3.742  12.230  23.829  0.00  0.00    +0.000 OA
ENDBRANCH  22  29
ENDBRANCH   1  25
TORSDOF 3
ENDMDL
MODEL 5
REMARK VINA RESULT:      -8.1      2.567      9.354
REMARK  Name = 
REMARK  4 active torsions:
REMARK  status: ('A' for Active; 'I' for Inactive)
REMARK    1  A    between atoms: C_1  and  O_2
REMARK    2  A    between atoms: O_2  and  C_3
REMARK    3  A    between atoms: C_6  and  N_7
REMARK    4  A    between atoms: C_12  and  C_13
REMARK                            x       y       z     vdW  Elec       q    Type
REMARK                         _______ _______ _______ _____ _____    ______ ____
ROOT
ATOM      1  N   UNL     1      -0.402  11.205  20.005  0.00  0.00    +0.000 N 
ATOM      2  C   UNL     1      -1.299  11.476  18.958  0.00  0.00    +0.000 A 
ATOM      3  O   UNL     1      -2.224  12.289  18.953  0.00  0.00    +0.000 OA
ATOM      4  N   UNL     1      -1.087  10.717  17.853  0.00  0.00    +0.000 N 
ATOM      5  C   UNL     1      -0.054   9.825  17.761  0.00  0.00    +0.000 A 
ATOM      6  C   UNL     1       0.824   9.497  18.767  0.00  0.00    +0.000 A 
ATOM      7  C   UNL     1       0.490  10.105  20.057  0.00  0.00    +0.000 A 
ATOM      8  O   UNL     1       1.004   9.643  21.072  0.00  0.00    +0.000 OA
ATOM      9  H   UNL     1      -1.698  10.928  17.064  0.00  0.00    +0.000 HD
ENDROOT
BRANCH   6  10
ATOM     10  C   UNL     1       1.876   8.420  18.408  0.00  0.00    +0.000 C 
ATOM     11  O   UNL     1       2.496   8.966  17.440  0.00  0.00    +0.000 OA
ATOM     12  N   UNL     1       2.254   6.956  19.002  0.00  0.00    +0.000 N 
ATOM     13  C   UNL     1       3.383   7.076  18.043  0.00  0.00    +0.000 C 
ATOM     14  C   UNL     1       4.536   6.193  17.669  0.00  0.00    +0.000 C 
ATOM     15  C   UNL     1       4.958   4.922  18.253  0.00  0.00    +0.000 C 
ATOM     16  C   UNL     1       3.835   4.568  19.157  0.00  0.00    +0.000 A 
ATOM     17  C   UNL     1       4.156   3.228  19.605  0.00  0.00    +0.000 A 
ATOM     18  C   UNL     1       3.441   2.626  20.584  0.00  0.00    +0.000 A 
ATOM     19  C   UNL     1       2.419   3.403  21.115  0.00  0.00    +0.000 A 
ATOM     20  C   UNL     1       2.047   4.760  20.621  0.00  0.00    +0.000 A 
ATOM     21  C   UNL     1       2.715   5.452  19.566  0.00  0.00    +0.000 A 
ENDBRANCH   6  10
BRANCH   1  25
ATOM     22  C   UNL     1      -0.944  13.806  23.215  0.00  0.00    +0.000 A 
ATOM     23  C   UNL     1      -1.649  12.603  23.166  0.00  0.00    +0.000 A 
ATOM     24  C   UNL     1      -1.425  11.702  22.141  0.00  0.00    +0.000 A 
ATOM     25  C   UNL     1      -0.526  12.034  21.134  0.00  0.00    +0.000 A 
ATOM     26  C   UNL     1       0.213  13.224  21.192  0.00  0.00    +0.000 A 
ATOM     27  C   UNL     1       0.005  14.112  22.239  0.00  0.00    +0.000 A 
BRANCH  22  29
ATOM     28  C   UNL     1      -2.682  14.548  24.606  0.00  0.00    +0.000 C 
ATOM     29  O   UNL     1      -1.313  14.627  24.240  0.00  0.00    +0.000 OA
ENDBRANCH  22  29
ENDBRANCH   1  25
TORSDOF 3
ENDMDL
MODEL 6
REMARK VINA RESULT:      -8.1      2.720      9.297
REMARK  Name = 
REMARK  4 active torsions:
REMARK  status: ('A' for Active; 'I' for Inactive)
REMARK    1  A    between atoms: C_1  and  O_2
REMARK    2  A    between atoms: O_2  and  C_3
REMARK    3  A    between atoms: C_6  and  N_7
REMARK    4  A    between atoms: C_12  and  C_13
REMARK                            x       y       z     vdW  Elec       q    Type
REMARK                         _______ _______ _______ _____ _____    ______ ____
ROOT
ATOM      1  N   UNL     1      -0.797  11.242  19.828  0.00  0.00    +0.000 N 
ATOM      2  C   UNL     1      -1.886  11.227  18.941  0.00  0.00    +0.000 A 
ATOM      3  O   UNL     1      -2.949  11.840  19.046  0.00  0.00    +0.000 OA
ATOM      4  N   UNL     1      -1.699  10.418  17.868  0.00  0.00    +0.000 N 
ATOM      5  C   UNL     1      -0.531   9.739  17.653  0.00  0.00    +0.000 A 
ATOM      6  C   UNL     1       0.546   9.691  18.507  0.00  0.00    +0.000 A 
ATOM      7  C   UNL     1       0.302  10.348  19.793  0.00  0.00    +0.000 A 
ATOM      8  O   UNL     1       1.057  10.099  20.729  0.00  0.00    +0.000 OA
ATOM      9  H   UNL     1      -2.459  10.425  17.187  0.00  0.00    +0.000 HD
ENDROOT
BRANCH   6  10
ATOM     10  C   UNL     1       1.728   8.809  18.039  0.00  0.00    +0.000 C 
ATOM     11  O   UNL     1       2.567   9.678  17.640  0.00  0.00    +0.000 OA
ATOM     12  N   UNL     1       2.014   7.209  18.012  0.00  0.00    +0.000 N 
ATOM     13  C   UNL     1       3.364   7.657  17.583  0.00  0.00    +0.000 C 
ATOM     14  C   UNL     1       4.634   6.948  17.217  0.00  0.00    +0.000 C 
ATOM     15  C   UNL     1       4.951   5.523  17.278  0.00  0.00    +0.000 C 
ATOM     16  C   UNL     1       3.638   4.890  17.560  0.00  0.00    +0.000 A 
ATOM     17  C   UNL     1       3.904   3.470  17.447  0.00  0.00    +0.000 A 
ATOM     18  C   UNL     1       2.975   2.552  17.803  0.00  0.00    +0.000 A 
ATOM     19  C   UNL     1       1.791   3.088  18.294  0.00  0.00    +0.000 A 
ATOM     20  C   UNL     1       1.489   4.547  18.362  0.00  0.00    +0.000 A 
ATOM     21  C   UNL     1       2.389   5.582  17.965  0.00  0.00    +0.000 A 
ENDBRANCH   6  10
BRANCH   1  25
ATOM     22  C   UNL     1      -0.917  13.786  23.126  0.00  0.00    +0.000 A 
ATOM     23  C   UNL     1      -0.293  14.200  21.949  0.00  0.00    +0.000 A 
ATOM     24  C   UNL     1      -0.309  13.392  20.827  0.00  0.00    +0.000 A 
ATOM     25  C   UNL     1      -0.909  12.140  20.904  0.00  0.00    +0.000 A 
ATOM     26  C   UNL     1      -1.567  11.728  22.071  0.00  0.00    +0.000 A 
ATOM     27  C   UNL     1      -1.574  12.556  23.186  0.00  0.00    +0.000 A 
BRANCH  22  29
ATOM     28  C   UNL     1      -1.976  15.072  24.779  0.00  0.00    +0.000 C 
ATOM     29  O   UNL     1      -0.765  14.650  24.171  0.00  0.00    +0.000 OA
ENDBRANCH  22  29
ENDBRANCH   1  25
TORSDOF 3
ENDMDL
MODEL 7
REMARK VINA RESULT:      -8.1      1.892      2.171
REMARK  Name = 
REMARK  4 active torsions:
REMARK  status: ('A' for Active; 'I' for Inactive)
REMARK    1  A    between atoms: C_1  and  O_2
REMARK    2  A    between atoms: O_2  and  C_3
REMARK    3  A    between atoms: C_6  and  N_7
REMARK    4  A    between atoms: C_12  and  C_13
REMARK                            x       y       z     vdW  Elec       q    Type
REMARK                         _______ _______ _______ _____ _____    ______ ____
ROOT
ATOM      1  N   UNL     1       3.565   5.920  18.896  0.00  0.00    +0.000 N 
ATOM      2  C   UNL     1       3.364   4.820  19.747  0.00  0.00    +0.000 A 
ATOM      3  O   UNL     1       3.892   3.710  19.677  0.00  0.00    +0.000 OA
ATOM      4  N   UNL     1       2.463   5.058  20.734  0.00  0.00    +0.000 N 
ATOM      5  C   UNL     1       1.867   6.277  20.908  0.00  0.00    +0.000 A 
ATOM      6  C   UNL     1       2.001   7.369  20.083  0.00  0.00    +0.000 A 
ATOM      7  C   UNL     1       2.768   7.092  18.867  0.00  0.00    +0.000 A 
ATOM      8  O   UNL     1       2.686   7.882  17.931  0.00  0.00    +0.000 OA
ATOM      9  H   UNL     1       2.334   4.288  21.391  0.00  0.00    +0.000 HD
ENDROOT
BRANCH   6  10
ATOM     10  C   UNL     1       1.177   8.615  20.488  0.00  0.00    +0.000 C 
ATOM     11  O   UNL     1       0.380   8.135  21.357  0.00  0.00    +0.000 OA
ATOM     12  N   UNL     1       1.197  10.181  20.058  0.00  0.00    +0.000 N 
ATOM     13  C   UNL     1       0.204  10.292  21.158  0.00  0.00    +0.000 C 
ATOM     14  C   UNL     1      -0.581  11.426  21.748  0.00  0.00    +0.000 C 
ATOM     15  C   UNL     1      -0.512  12.855  21.451  0.00  0.00    +0.000 C 
ATOM     16  C   UNL     1       0.351  12.915  20.245  0.00  0.00    +0.000 A 
ATOM     17  C   UNL     1       0.282  14.303  19.835  0.00  0.00    +0.000 A 
ATOM     18  C   UNL     1       1.082  14.785  18.856  0.00  0.00    +0.000 A 
ATOM     19  C   UNL     1       1.962  13.855  18.317  0.00  0.00    +0.000 A 
ATOM     20  C   UNL     1       2.000  12.412  18.694  0.00  0.00    +0.000 A 
ATOM     21  C   UNL     1       1.164  11.809  19.681  0.00  0.00    +0.000 A 
ENDBRANCH   6  10
BRANCH   1  25
ATOM     22  C   UNL     1       6.604   5.211  16.135  0.00  0.00    +0.000 A 
ATOM     23  C   UNL     1       5.326   4.698  15.912  0.00  0.00    +0.000 A 
ATOM     24  C   UNL     1       4.294   4.986  16.786  0.00  0.00    +0.000 A 
ATOM     25  C   UNL     1       4.560   5.750  17.917  0.00  0.00    +0.000 A 
ATOM     26  C   UNL     1       5.832   6.298  18.133  0.00  0.00    +0.000 A 
ATOM     27  C   UNL     1       6.857   6.030  17.236  0.00  0.00    +0.000 A 
BRANCH  22  29
ATOM     28  C   UNL     1       7.135   4.868  13.875  0.00  0.00    +0.000 C 
ATOM     29  O   UNL     1       7.538   4.792  15.233  0.00  0.00    +0.000 OA
ENDBRANCH  22  29
ENDBRANCH   1  25
TORSDOF 3
ENDMDL
MODEL 8
REMARK VINA RESULT:      -8.0      3.016      3.460
REMARK  Name = 
REMARK  4 active torsions:
REMARK  status: ('A' for Active; 'I' for Inactive)
REMARK    1  A    between atoms: C_1  and  O_2
REMARK    2  A    between atoms: O_2  and  C_3
REMARK    3  A    between atoms: C_6  and  N_7
REMARK    4  A    between atoms: C_12  and  C_13
REMARK                            x       y       z     vdW  Elec       q    Type
REMARK                         _______ _______ _______ _____ _____    ______ ____
ROOT
ATOM      1  N   UNL     1       2.886   6.908  18.744  0.00  0.00    +0.000 N 
ATOM      2  C   UNL     1       2.625   6.236  19.950  0.00  0.00    +0.000 A 
ATOM      3  O   UNL     1       3.014   5.117  20.285  0.00  0.00    +0.000 OA
ATOM      4  N   UNL     1       1.838   6.940  20.802  0.00  0.00    +0.000 N 
ATOM      5  C   UNL     1       1.402   8.206  20.525  0.00  0.00    +0.000 A 
ATOM      6  C   UNL     1       1.597   8.890  19.348  0.00  0.00    +0.000 A 
ATOM      7  C   UNL     1       2.231   8.084  18.302  0.00  0.00    +0.000 A 
ATOM      8  O   UNL     1       2.168   8.480  17.141  0.00  0.00    +0.000 OA
ATOM      9  H   UNL     1       1.671   6.490  21.702  0.00  0.00    +0.000 HD
ENDROOT
BRANCH   6  10
ATOM     10  C   UNL     1       0.957  10.298  19.282  0.00  0.00    +0.000 C 
ATOM     11  O   UNL     1      -0.248  10.057  19.612  0.00  0.00    +0.000 OA
ATOM     12  N   UNL     1       1.513  11.785  18.938  0.00  0.00    +0.000 N 
ATOM     13  C   UNL     1       0.147  12.180  19.369  0.00  0.00    +0.000 C 
ATOM     14  C   UNL     1      -0.577  13.489  19.481  0.00  0.00    +0.000 C 
ATOM     15  C   UNL     1      -0.076  14.847  19.275  0.00  0.00    +0.000 C 
ATOM     16  C   UNL     1       1.270  14.632  18.686  0.00  0.00    +0.000 A 
ATOM     17  C   UNL     1       1.704  15.962  18.312  0.00  0.00    +0.000 A 
ATOM     18  C   UNL     1       2.969  16.194  17.889  0.00  0.00    +0.000 A 
ATOM     19  C   UNL     1       3.788  15.072  17.873  0.00  0.00    +0.000 A 
ATOM     20  C   UNL     1       3.333  13.690  18.203  0.00  0.00    +0.000 A 
ATOM     21  C   UNL     1       2.010  13.347  18.612  0.00  0.00    +0.000 A 
ENDBRANCH   6  10
BRANCH   1  25
ATOM     22  C   UNL     1       5.655   4.894  16.369  0.00  0.00    +0.000 A 
ATOM     23  C   UNL     1       4.441   4.287  16.692  0.00  0.00    +0.000 A 
ATOM     24  C   UNL     1       3.488   4.973  17.420  0.00  0.00    +0.000 A 
ATOM     25  C   UNL     1       3.776   6.257  17.871  0.00  0.00    +0.000 A 
ATOM     26  C   UNL     1       4.978   6.888  17.524  0.00  0.00    +0.000 A 
ATOM     27  C   UNL     1       5.920   6.205  16.767  0.00  0.00    +0.000 A 
BRANCH  22  29
ATOM     28  C   UNL     1       6.325   4.000  14.306  0.00  0.00    +0.000 C 
ATOM     29  O   UNL     1       6.528   4.080  15.708  0.00  0.00    +0.000 OA
ENDBRANCH  22  29
ENDBRANCH   1  25
TORSDOF 3
ENDMDL
MODEL 9
REMARK VINA RESULT:      -8.0      2.199      2.584
REMARK  Name = 
REMARK  4 active torsions:
REMARK  status: ('A' for Active; 'I' for Inactive)
REMARK    1  A    between atoms: C_1  and  O_2
REMARK    2  A    between atoms: O_2  and  C_3
REMARK    3  A    between atoms: C_6  and  N_7
REMARK    4  A    between atoms: C_12  and  C_13
REMARK                            x       y       z     vdW  Elec       q    Type
REMARK                         _______ _______ _______ _____ _____    ______ ____
ROOT
ATOM      1  N   UNL     1       3.975   4.514  17.777  0.00  0.00    +0.000 N 
ATOM      2  C   UNL     1       3.564   3.216  18.123  0.00  0.00    +0.000 A 
ATOM      3  O   UNL     1       3.971   2.150  17.658  0.00  0.00    +0.000 OA
ATOM      4  N   UNL     1       2.597   3.191  19.074  0.00  0.00    +0.000 N 
ATOM      5  C   UNL     1       2.125   4.326  19.674  0.00  0.00    +0.000 A 
ATOM      6  C   UNL     1       2.465   5.617  19.344  0.00  0.00    +0.000 A 
ATOM      7  C   UNL     1       3.321   5.711  18.159  0.00  0.00    +0.000 A 
ATOM      8  O   UNL     1       3.426   6.799  17.600  0.00  0.00    +0.000 OA
ATOM      9  H   UNL     1       2.314   2.257  19.374  0.00  0.00    +0.000 HD
ENDROOT
BRANCH   6  10
ATOM     10  C   UNL     1       1.747   6.722  20.155  0.00  0.00    +0.000 C 
ATOM     11  O   UNL     1       1.358   6.086  21.185  0.00  0.00    +0.000 OA
ATOM     12  N   UNL     1       1.485   8.310  19.930  0.00  0.00    +0.000 N 
ATOM     13  C   UNL     1       0.950   8.216  21.313  0.00  0.00    +0.000 C 
ATOM     14  C   UNL     1       0.343   9.201  22.269  0.00  0.00    +0.000 C 
ATOM     15  C   UNL     1       0.187  10.647  22.135  0.00  0.00    +0.000 C 
ATOM     16  C   UNL     1       0.549  10.904  20.718  0.00  0.00    +0.000 A 
ATOM     17  C   UNL     1       0.227  12.303  20.522  0.00  0.00    +0.000 A 
ATOM     18  C   UNL     1       0.579  12.951  19.388  0.00  0.00    +0.000 A 
ATOM     19  C   UNL     1       1.277  12.176  18.471  0.00  0.00    +0.000 A 
ATOM     20  C   UNL     1       1.563  10.721  18.640  0.00  0.00    +0.000 A 
ATOM     21  C   UNL     1       1.189   9.948  19.780  0.00  0.00    +0.000 A 
ENDBRANCH   6  10
BRANCH   1  25
ATOM     22  C   UNL     1       7.069   4.975  15.024  0.00  0.00    +0.000 A 
ATOM     23  C   UNL     1       7.320   5.134  16.387  0.00  0.00    +0.000 A 
ATOM     24  C   UNL     1       6.317   4.915  17.313  0.00  0.00    +0.000 A 
ATOM     25  C   UNL     1       5.043   4.585  16.864  0.00  0.00    +0.000 A 
ATOM     26  C   UNL     1       4.789   4.389  15.500  0.00  0.00    +0.000 A 
ATOM     27  C   UNL     1       5.807   4.582  14.576  0.00  0.00    +0.000 A 
BRANCH  22  29
ATOM     28  C   UNL     1       7.822   5.384  12.839  0.00  0.00    +0.000 C 
ATOM     29  O   UNL     1       8.127   5.288  14.221  0.00  0.00    +0.000 OA
ENDBRANCH  22  29
ENDBRANCH   1  25
TORSDOF 3
ENDMDL
