MODEL 1
REMARK VINA RESULT:      -7.8      0.000      0.000
REMARK  Name = 
REMARK  3 active torsions:
REMARK  status: ('A' for Active; 'I' for Inactive)
REMARK    1  A    between atoms: C_7  and  C_8
REMARK    2  A    between atoms: N_11  and  C_12
REMARK    3  A    between atoms: N_22  and  C_23
REMARK                            x       y       z     vdW  Elec       q    Type
REMARK                         _______ _______ _______ _____ _____    ______ ____
ROOT
ATOM      1  C   UNL     1       7.167  13.024  23.414  0.00  0.00    +0.000 A 
ATOM      2  N   UNL     1       6.253  13.923  23.012  0.00  0.00    +0.000 NA
ATOM      3  C   UNL     1       6.455  14.431  21.809  0.00  0.00    +0.000 A 
ATOM      4  N   UNL     1       5.625  15.370  21.237  0.00  0.00    +0.000 N 
ATOM      5  N   UNL     1       7.453  14.080  21.025  0.00  0.00    +0.000 NA
ATOM      6  C   UNL     1       8.320  13.205  21.497  0.00  0.00    +0.000 A 
ATOM      7  N   UNL     1       9.332  12.948  20.610  0.00  0.00    +0.000 N 
ATOM      8  N   UNL     1       8.231  12.643  22.687  0.00  0.00    +0.000 NA
ATOM      9  H   UNL     1       5.897  15.457  20.266  0.00  0.00    +0.000 HD
ATOM     10  H   UNL     1       8.969  13.225  19.704  0.00  0.00    +0.000 HD
ENDROOT
BRANCH   1  17
ATOM     11  N   UNL     1       4.382   9.988  25.757  0.00  0.00    +0.000 N 
ATOM     12  C   UNL     1       5.496  10.815  25.818  0.00  0.00    +0.000 A 
ATOM     13  C   UNL     1       6.090  11.107  27.036  0.00  0.00    +0.000 A 
ATOM     14  C   UNL     1       7.168  11.983  27.059  0.00  0.00    +0.000 A 
ATOM     15  C   UNL     1       7.586  12.578  25.872  0.00  0.00    +0.000 A 
ATOM     16  F   UNL     1       8.618  13.432  25.926  0.00  0.00    +0.000 F 
ATOM     17  C   UNL     1       6.913  12.294  24.684  0.00  0.00    +0.000 A 
ATOM     18  N   UNL     1       5.887  11.382  24.664  0.00  0.00    +0.000 NA
ATOM     19  H   UNL     1       4.504   9.115  26.254  0.00  0.00    +0.000 HD
ATOM     20  H   UNL     1       4.158   9.850  24.774  0.00  0.00    +0.000 HD
ENDBRANCH   1  17
BRANCH   4  21
ATOM     21  C   UNL     1       4.221  15.493  21.577  0.00  0.00    +0.000 C 
ATOM     22  C   UNL     1       3.383  14.322  21.042  0.00  0.00    +0.000 C 
ATOM     23  C   UNL     1       3.253  14.308  19.518  0.00  0.00    +0.000 C 
ATOM     24  C   UNL     1       2.773  15.641  18.974  0.00  0.00    +0.000 C 
ATOM     25  F   UNL     1       1.476  15.827  19.333  0.00  0.00    +0.000 F 
ATOM     26  F   UNL     1       2.797  15.610  17.619  0.00  0.00    +0.000 F 
ATOM     27  C   UNL     1       3.594  16.817  19.468  0.00  0.00    +0.000 C 
ATOM     28  C   UNL     1       3.701  16.826  20.997  0.00  0.00    +0.000 C 
ENDBRANCH   4  21
BRANCH   7  29
ATOM     29  C   UNL     1      10.193  11.780  20.628  0.00  0.00    +0.000 C 
ATOM     30  C   UNL     1      11.641  12.158  20.294  0.00  0.00    +0.000 C 
ATOM     31  C   UNL     1      11.738  12.879  18.948  0.00  0.00    +0.000 C 
ATOM     32  C   UNL     1      11.082  12.090  17.825  0.00  0.00    +0.000 C 
ATOM     33  F   UNL     1      11.903  11.057  17.490  0.00  0.00    +0.000 F 
ATOM     34  F   UNL     1      10.990  12.872  16.719  0.00  0.00    +0.000 F 
ATOM     35  C   UNL     1       9.710  11.516  18.145  0.00  0.00    +0.000 C 
ATOM     36  C   UNL     1       9.679  10.834  19.520  0.00  0.00    +0.000 C 
ENDBRANCH   7  29
TORSDOF 3
ENDMDL
MODEL 2
REMARK VINA RESULT:      -7.7      8.258     11.298
REMARK  Name = 
REMARK  3 active torsions:
REMARK  status: ('A' for Active; 'I' for Inactive)
REMARK    1  A    between atoms: C_7  and  C_8
REMARK    2  A    between atoms: N_11  and  C_12
REMARK    3  A    between atoms: N_22  and  C_23
REMARK                            x       y       z     vdW  Elec       q    Type
REMARK                         _______ _______ _______ _____ _____    ______ ____
ROOT
ATOM      1  C   UNL     1       4.243   6.440  18.173  0.00  0.00    +0.000 A 
ATOM      2  N   UNL     1       4.067   5.533  19.149  0.00  0.00    +0.000 NA
ATOM      3  C   UNL     1       3.071   5.785  19.978  0.00  0.00    +0.000 A 
ATOM      4  N   UNL     1       2.748   4.970  21.041  0.00  0.00    +0.000 N 
ATOM      5  N   UNL     1       2.269   6.824  19.865  0.00  0.00    +0.000 NA
ATOM      6  C   UNL     1       2.516   7.680  18.891  0.00  0.00    +0.000 A 
ATOM      7  N   UNL     1       1.644   8.736  18.897  0.00  0.00    +0.000 N 
ATOM      8  N   UNL     1       3.491   7.542  18.014  0.00  0.00    +0.000 NA
ATOM      9  H   UNL     1       1.856   5.287  21.401  0.00  0.00    +0.000 HD
ATOM     10  H   UNL     1       0.837   8.413  19.420  0.00  0.00    +0.000 HD
ENDROOT
BRANCH   1  17
ATOM     11  N   UNL     1       5.147   4.171  14.111  0.00  0.00    +0.000 N 
ATOM     12  C   UNL     1       5.657   4.975  15.122  0.00  0.00    +0.000 A 
ATOM     13  C   UNL     1       7.021   5.197  15.225  0.00  0.00    +0.000 A 
ATOM     14  C   UNL     1       7.494   5.962  16.284  0.00  0.00    +0.000 A 
ATOM     15  C   UNL     1       6.595   6.440  17.232  0.00  0.00    +0.000 A 
ATOM     16  F   UNL     1       7.081   7.162  18.252  0.00  0.00    +0.000 F 
ATOM     17  C   UNL     1       5.239   6.136  17.112  0.00  0.00    +0.000 A 
ATOM     18  N   UNL     1       4.776   5.428  16.030  0.00  0.00    +0.000 NA
ATOM     19  H   UNL     1       5.486   4.421  13.191  0.00  0.00    +0.000 HD
ATOM     20  H   UNL     1       4.132   4.205  14.176  0.00  0.00    +0.000 HD
ENDBRANCH   1  17
BRANCH   4  21
ATOM     21  C   UNL     1       3.039   3.549  21.062  0.00  0.00    +0.000 C 
ATOM     22  C   UNL     1       3.456   3.015  19.683  0.00  0.00    +0.000 C 
ATOM     23  C   UNL     1       2.320   3.005  18.660  0.00  0.00    +0.000 C 
ATOM     24  C   UNL     1       1.083   2.300  19.188  0.00  0.00    +0.000 C 
ATOM     25  F   UNL     1       1.339   0.970  19.290  0.00  0.00    +0.000 F 
ATOM     26  F   UNL     1       0.073   2.432  18.293  0.00  0.00    +0.000 F 
ATOM     27  C   UNL     1       0.632   2.820  20.540  0.00  0.00    +0.000 C 
ATOM     28  C   UNL     1       1.778   2.808  21.558  0.00  0.00    +0.000 C 
ENDBRANCH   4  21
BRANCH   7  29
ATOM     29  C   UNL     1       1.372   9.612  17.772  0.00  0.00    +0.000 C 
ATOM     30  C   UNL     1       1.960  11.009  18.007  0.00  0.00    +0.000 C 
ATOM     31  C   UNL     1       1.443  11.626  19.308  0.00  0.00    +0.000 C 
ATOM     32  C   UNL     1      -0.076  11.629  19.379  0.00  0.00    +0.000 C 
ATOM     33  F   UNL     1      -0.542  12.613  18.562  0.00  0.00    +0.000 F 
ATOM     34  F   UNL     1      -0.469  11.964  20.635  0.00  0.00    +0.000 F 
ATOM     35  C   UNL     1      -0.752  10.326  18.976  0.00  0.00    +0.000 C 
ATOM     36  C   UNL     1      -0.165   9.750  17.680  0.00  0.00    +0.000 C 
ENDBRANCH   7  29
TORSDOF 3
ENDMDL
MODEL 3
REMARK VINA RESULT:      -7.6      7.634      8.862
REMARK  Name = 
REMARK  3 active torsions:
REMARK  status: ('A' for Active; 'I' for Inactive)
REMARK    1  A    between atoms: C_7  and  C_8
REMARK    2  A    between atoms: N_11  and  C_12
REMARK    3  A    between atoms: N_22  and  C_23
REMARK                            x       y       z     vdW  Elec       q    Type
REMARK                         _______ _______ _______ _____ _____    ______ ____
ROOT
ATOM      1  C   UNL     1       2.343   5.925  18.946  0.00  0.00    +0.000 A 
ATOM      2  N   UNL     1       1.641   7.041  19.210  0.00  0.00    +0.000 NA
ATOM      3  C   UNL     1       2.161   8.158  18.735  0.00  0.00    +0.000 A 
ATOM      4  N   UNL     1       1.584   9.396  18.914  0.00  0.00    +0.000 N 
ATOM      5  N   UNL     1       3.270   8.206  18.026  0.00  0.00    +0.000 NA
ATOM      6  C   UNL     1       3.912   7.071  17.824  0.00  0.00    +0.000 A 
ATOM      7  N   UNL     1       5.067   7.250  17.109  0.00  0.00    +0.000 N 
ATOM      8  N   UNL     1       3.498   5.898  18.262  0.00  0.00    +0.000 NA
ATOM      9  H   UNL     1       2.077  10.046  18.314  0.00  0.00    +0.000 HD
ATOM     10  H   UNL     1       4.950   8.137  16.631  0.00  0.00    +0.000 HD
ENDROOT
BRANCH   1  17
ATOM     11  N   UNL     1       1.698   2.639  22.300  0.00  0.00    +0.000 N 
ATOM     12  C   UNL     1       1.463   3.003  20.980  0.00  0.00    +0.000 A 
ATOM     13  C   UNL     1       0.962   2.082  20.074  0.00  0.00    +0.000 A 
ATOM     14  C   UNL     1       0.794   2.472  18.751  0.00  0.00    +0.000 A 
ATOM     15  C   UNL     1       1.178   3.752  18.366  0.00  0.00    +0.000 A 
ATOM     16  F   UNL     1       1.020   4.096  17.079  0.00  0.00    +0.000 F 
ATOM     17  C   UNL     1       1.733   4.619  19.308  0.00  0.00    +0.000 A 
ATOM     18  N   UNL     1       1.840   4.242  20.624  0.00  0.00    +0.000 NA
ATOM     19  H   UNL     1       0.908   2.181  22.736  0.00  0.00    +0.000 HD
ATOM     20  H   UNL     1       1.990   3.475  22.800  0.00  0.00    +0.000 HD
ENDBRANCH   1  17
BRANCH   4  21
ATOM     21  C   UNL     1       0.159   9.580  19.113  0.00  0.00    +0.000 C 
ATOM     22  C   UNL     1      -0.354  10.891  18.499  0.00  0.00    +0.000 C 
ATOM     23  C   UNL     1       0.144  12.143  19.221  0.00  0.00    +0.000 C 
ATOM     24  C   UNL     1      -0.114  12.080  20.716  0.00  0.00    +0.000 C 
ATOM     25  F   UNL     1      -1.449  12.179  20.941  0.00  0.00    +0.000 F 
ATOM     26  F   UNL     1       0.459  13.152  21.317  0.00  0.00    +0.000 F 
ATOM     27  C   UNL     1       0.401  10.805  21.357  0.00  0.00    +0.000 C 
ATOM     28  C   UNL     1      -0.121   9.560  20.631  0.00  0.00    +0.000 C 
ENDBRANCH   4  21
BRANCH   7  29
ATOM     29  C   UNL     1       5.778   6.215  16.380  0.00  0.00    +0.000 C 
ATOM     30  C   UNL     1       5.640   4.857  17.078  0.00  0.00    +0.000 C 
ATOM     31  C   UNL     1       6.119   4.918  18.530  0.00  0.00    +0.000 C 
ATOM     32  C   UNL     1       7.528   5.479  18.648  0.00  0.00    +0.000 C 
ATOM     33  F   UNL     1       8.407   4.517  18.251  0.00  0.00    +0.000 F 
ATOM     34  F   UNL     1       7.806   5.729  19.953  0.00  0.00    +0.000 F 
ATOM     35  C   UNL     1       7.803   6.732  17.830  0.00  0.00    +0.000 C 
ATOM     36  C   UNL     1       7.272   6.611  16.395  0.00  0.00    +0.000 C 
ENDBRANCH   7  29
TORSDOF 3
ENDMDL
MODEL 4
REMARK VINA RESULT:      -7.6      2.107      7.865
REMARK  Name = 
REMARK  3 active torsions:
REMARK  status: ('A' for Active; 'I' for Inactive)
REMARK    1  A    between atoms: C_7  and  C_8
REMARK    2  A    between atoms: N_11  and  C_12
REMARK    3  A    between atoms: N_22  and  C_23
REMARK                            x       y       z     vdW  Elec       q    Type
REMARK                         _______ _______ _______ _____ _____    ______ ____
ROOT
ATOM      1  C   UNL     1       8.271  14.087  20.014  0.00  0.00    +0.000 A 
ATOM      2  N   UNL     1       8.399  13.881  21.335  0.00  0.00    +0.000 NA
ATOM      3  C   UNL     1       7.368  14.263  22.067  0.00  0.00    +0.000 A 
ATOM      4  N   UNL     1       7.325  14.135  23.437  0.00  0.00    +0.000 N 
ATOM      5  N   UNL     1       6.267  14.785  21.564  0.00  0.00    +0.000 NA
ATOM      6  C   UNL     1       6.224  14.973  20.259  0.00  0.00    +0.000 A 
ATOM      7  N   UNL     1       5.051  15.555  19.859  0.00  0.00    +0.000 N 
ATOM      8  N   UNL     1       7.198  14.646  19.431  0.00  0.00    +0.000 NA
ATOM      9  H   UNL     1       6.375  14.335  23.727  0.00  0.00    +0.000 HD
ATOM     10  H   UNL     1       4.393  15.372  20.609  0.00  0.00    +0.000 HD
ENDROOT
BRANCH   1  17
ATOM     11  N   UNL     1      11.231  14.884  16.399  0.00  0.00    +0.000 N 
ATOM     12  C   UNL     1      10.747  13.956  17.311  0.00  0.00    +0.000 A 
ATOM     13  C   UNL     1      11.036  12.608  17.164  0.00  0.00    +0.000 A 
ATOM     14  C   UNL     1      10.486  11.706  18.067  0.00  0.00    +0.000 A 
ATOM     15  C   UNL     1       9.625  12.173  19.055  0.00  0.00    +0.000 A 
ATOM     16  F   UNL     1       9.095  11.278  19.902  0.00  0.00    +0.000 F 
ATOM     17  C   UNL     1       9.321  13.533  19.119  0.00  0.00    +0.000 A 
ATOM     18  N   UNL     1       9.916  14.422  18.258  0.00  0.00    +0.000 NA
ATOM     19  H   UNL     1      12.227  14.802  16.234  0.00  0.00    +0.000 HD
ATOM     20  H   UNL     1      10.966  15.808  16.734  0.00  0.00    +0.000 HD
ENDBRANCH   1  17
BRANCH   4  21
ATOM     21  C   UNL     1       8.071  13.122  24.158  0.00  0.00    +0.000 C 
ATOM     22  C   UNL     1       7.527  11.707  23.912  0.00  0.00    +0.000 C 
ATOM     23  C   UNL     1       6.149  11.463  24.529  0.00  0.00    +0.000 C 
ATOM     24  C   UNL     1       6.109  11.836  26.000  0.00  0.00    +0.000 C 
ATOM     25  F   UNL     1       6.857  10.948  26.705  0.00  0.00    +0.000 F 
ATOM     26  F   UNL     1       4.839  11.720  26.460  0.00  0.00    +0.000 F 
ATOM     27  C   UNL     1       6.621  13.238  26.275  0.00  0.00    +0.000 C 
ATOM     28  C   UNL     1       8.009  13.460  25.664  0.00  0.00    +0.000 C 
ENDBRANCH   4  21
BRANCH   7  29
ATOM     29  C   UNL     1       4.513  15.530  18.511  0.00  0.00    +0.000 C 
ATOM     30  C   UNL     1       3.545  16.697  18.282  0.00  0.00    +0.000 C 
ATOM     31  C   UNL     1       2.414  16.701  19.313  0.00  0.00    +0.000 C 
ATOM     32  C   UNL     1       1.690  15.364  19.377  0.00  0.00    +0.000 C 
ATOM     33  F   UNL     1       0.884  15.260  18.286  0.00  0.00    +0.000 F 
ATOM     34  F   UNL     1       0.867  15.349  20.457  0.00  0.00    +0.000 F 
ATOM     35  C   UNL     1       2.588  14.137  19.417  0.00  0.00    +0.000 C 
ATOM     36  C   UNL     1       3.715  14.214  18.378  0.00  0.00    +0.000 C 
ENDBRANCH   7  29
TORSDOF 3
ENDMDL
MODEL 5
REMARK VINA RESULT:      -7.4      1.320      1.578
REMARK  Name = 
REMARK  3 active torsions:
REMARK  status: ('A' for Active; 'I' for Inactive)
REMARK    1  A    between atoms: C_7  and  C_8
REMARK    2  A    between atoms: N_11  and  C_12
REMARK    3  A    between atoms: N_22  and  C_23
REMARK                            x       y       z     vdW  Elec       q    Type
REMARK                         _______ _______ _______ _____ _____    ______ ____
ROOT
ATOM      1  C   UNL     1       7.235  13.459  23.306  0.00  0.00    +0.000 A 
ATOM      2  N   UNL     1       6.339  14.342  22.833  0.00  0.00    +0.000 NA
ATOM      3  C   UNL     1       6.531  14.726  21.584  0.00  0.00    +0.000 A 
ATOM      4  N   UNL     1       5.717  15.629  20.938  0.00  0.00    +0.000 N 
ATOM      5  N   UNL     1       7.505  14.273  20.821  0.00  0.00    +0.000 NA
ATOM      6  C   UNL     1       8.356  13.422  21.362  0.00  0.00    +0.000 A 
ATOM      7  N   UNL     1       9.344  13.052  20.488  0.00  0.00    +0.000 N 
ATOM      8  N   UNL     1       8.274  12.979  22.602  0.00  0.00    +0.000 NA
ATOM      9  H   UNL     1       5.973  15.615  19.958  0.00  0.00    +0.000 HD
ATOM     10  H   UNL     1       8.972  13.252  19.566  0.00  0.00    +0.000 HD
ENDROOT
BRANCH   1  17
ATOM     11  N   UNL     1       8.386  13.398  27.903  0.00  0.00    +0.000 N 
ATOM     12  C   UNL     1       7.602  12.839  26.902  0.00  0.00    +0.000 A 
ATOM     13  C   UNL     1       6.899  11.667  27.130  0.00  0.00    +0.000 A 
ATOM     14  C   UNL     1       6.171  11.111  26.085  0.00  0.00    +0.000 A 
ATOM     15  C   UNL     1       6.210  11.717  24.832  0.00  0.00    +0.000 A 
ATOM     16  F   UNL     1       5.513  11.150  23.837  0.00  0.00    +0.000 F 
ATOM     17  C   UNL     1       6.985  12.862  24.644  0.00  0.00    +0.000 A 
ATOM     18  N   UNL     1       7.652  13.434  25.698  0.00  0.00    +0.000 NA
ATOM     19  H   UNL     1       7.897  13.502  28.783  0.00  0.00    +0.000 HD
ATOM     20  H   UNL     1       8.748  14.281  27.550  0.00  0.00    +0.000 HD
ENDBRANCH   1  17
BRANCH   4  21
ATOM     21  C   UNL     1       4.323  15.824  21.287  0.00  0.00    +0.000 C 
ATOM     22  C   UNL     1       3.470  14.575  21.019  0.00  0.00    +0.000 C 
ATOM     23  C   UNL     1       3.296  14.258  19.534  0.00  0.00    +0.000 C 
ATOM     24  C   UNL     1       2.800  15.459  18.749  0.00  0.00    +0.000 C 
ATOM     25  F   UNL     1       1.513  15.719  19.101  0.00  0.00    +0.000 F 
ATOM     26  F   UNL     1       2.784  15.158  17.427  0.00  0.00    +0.000 F 
ATOM     27  C   UNL     1       3.634  16.706  18.975  0.00  0.00    +0.000 C 
ATOM     28  C   UNL     1       3.785  17.018  20.468  0.00  0.00    +0.000 C 
ENDBRANCH   4  21
BRANCH   7  29
ATOM     29  C   UNL     1      10.174  11.867  20.605  0.00  0.00    +0.000 C 
ATOM     30  C   UNL     1      11.645  12.195  20.325  0.00  0.00    +0.000 C 
ATOM     31  C   UNL     1      11.826  12.846  18.952  0.00  0.00    +0.000 C 
ATOM     32  C   UNL     1      11.205  12.018  17.837  0.00  0.00    +0.000 C 
ATOM     33  F   UNL     1      12.014  10.951  17.593  0.00  0.00    +0.000 F 
ATOM     34  F   UNL     1      11.186  12.747  16.691  0.00  0.00    +0.000 F 
ATOM     35  C   UNL     1       9.805  11.492  18.116  0.00  0.00    +0.000 C 
ATOM     36  C   UNL     1       9.689  10.879  19.519  0.00  0.00    +0.000 C 
ENDBRANCH   7  29
TORSDOF 3
ENDMDL
MODEL 6
REMARK VINA RESULT:      -7.4      6.739     10.519
REMARK  Name = 
REMARK  3 active torsions:
REMARK  status: ('A' for Active; 'I' for Inactive)
REMARK    1  A    between atoms: C_7  and  C_8
REMARK    2  A    between atoms: N_11  and  C_12
REMARK    3  A    between atoms: N_22  and  C_23
REMARK                            x       y       z     vdW  Elec       q    Type
REMARK                         _______ _______ _______ _____ _____    ______ ____
ROOT
ATOM      1  C   UNL     1       0.241  10.892  19.198  0.00  0.00    +0.000 A 
ATOM      2  N   UNL     1       0.983  12.012  19.155  0.00  0.00    +0.000 NA
ATOM      3  C   UNL     1       0.315  13.120  18.891  0.00  0.00    +0.000 A 
ATOM      4  N   UNL     1       0.911  14.358  18.801  0.00  0.00    +0.000 N 
ATOM      5  N   UNL     1      -0.989  13.162  18.708  0.00  0.00    +0.000 NA
ATOM      6  C   UNL     1      -1.646  12.019  18.747  0.00  0.00    +0.000 A 
ATOM      7  N   UNL     1      -2.985  12.183  18.505  0.00  0.00    +0.000 N 
ATOM      8  N   UNL     1      -1.085  10.849  18.986  0.00  0.00    +0.000 NA
ATOM      9  H   UNL     1       0.168  15.046  18.768  0.00  0.00    +0.000 HD
ATOM     10  H   UNL     1      -3.174  13.159  18.702  0.00  0.00    +0.000 HD
ENDROOT
BRANCH   1  17
ATOM     11  N   UNL     1       2.913   7.162  18.011  0.00  0.00    +0.000 N 
ATOM     12  C   UNL     1       2.196   7.793  19.018  0.00  0.00    +0.000 A 
ATOM     13  C   UNL     1       1.921   7.135  20.206  0.00  0.00    +0.000 A 
ATOM     14  C   UNL     1       1.153   7.783  21.166  0.00  0.00    +0.000 A 
ATOM     15  C   UNL     1       0.642   9.047  20.887  0.00  0.00    +0.000 A 
ATOM     16  F   UNL     1      -0.110   9.642  21.824  0.00  0.00    +0.000 F 
ATOM     17  C   UNL     1       0.900   9.638  19.650  0.00  0.00    +0.000 A 
ATOM     18  N   UNL     1       1.708   9.013  18.733  0.00  0.00    +0.000 NA
ATOM     19  H   UNL     1       3.777   6.745  18.335  0.00  0.00    +0.000 HD
ATOM     20  H   UNL     1       3.063   7.842  17.269  0.00  0.00    +0.000 HD
ENDBRANCH   1  17
BRANCH   4  21
ATOM     21  C   UNL     1       2.137  14.696  19.499  0.00  0.00    +0.000 C 
ATOM     22  C   UNL     1       2.191  16.175  19.909  0.00  0.00    +0.000 C 
ATOM     23  C   UNL     1       2.325  17.134  18.726  0.00  0.00    +0.000 C 
ATOM     24  C   UNL     1       3.479  16.758  17.815  0.00  0.00    +0.000 C 
ATOM     25  F   UNL     1       4.651  16.995  18.461  0.00  0.00    +0.000 F 
ATOM     26  F   UNL     1       3.472  17.563  16.724  0.00  0.00    +0.000 F 
ATOM     27  C   UNL     1       3.444  15.307  17.374  0.00  0.00    +0.000 C 
ATOM     28  C   UNL     1       3.325  14.359  18.572  0.00  0.00    +0.000 C 
ENDBRANCH   4  21
BRANCH   7  29
ATOM     29  C   UNL     1      -4.029  11.240  18.864  0.00  0.00    +0.000 C 
ATOM     30  C   UNL     1      -4.700  10.659  17.614  0.00  0.00    +0.000 C 
ATOM     31  C   UNL     1      -5.256  11.761  16.710  0.00  0.00    +0.000 C 
ATOM     32  C   UNL     1      -6.177  12.711  17.461  0.00  0.00    +0.000 C 
ATOM     33  F   UNL     1      -7.367  12.083  17.665  0.00  0.00    +0.000 F 
ATOM     34  F   UNL     1      -6.447  13.789  16.680  0.00  0.00    +0.000 F 
ATOM     35  C   UNL     1      -5.661  13.190  18.810  0.00  0.00    +0.000 C 
ATOM     36  C   UNL     1      -5.093  12.039  19.651  0.00  0.00    +0.000 C 
ENDBRANCH   7  29
TORSDOF 3
ENDMDL
MODEL 7
REMARK VINA RESULT:      -7.3      4.686      9.348
REMARK  Name = 
REMARK  3 active torsions:
REMARK  status: ('A' for Active; 'I' for Inactive)
REMARK    1  A    between atoms: C_7  and  C_8
REMARK    2  A    between atoms: N_11  and  C_12
REMARK    3  A    between atoms: N_22  and  C_23
REMARK                            x       y       z     vdW  Elec       q    Type
REMARK                         _______ _______ _______ _____ _____    ______ ____
ROOT
ATOM      1  C   UNL     1       0.899  15.372  19.758  0.00  0.00    +0.000 A 
ATOM      2  N   UNL     1       2.175  15.777  19.881  0.00  0.00    +0.000 NA
ATOM      3  C   UNL     1       3.025  14.848  20.278  0.00  0.00    +0.000 A 
ATOM      4  N   UNL     1       4.369  15.084  20.465  0.00  0.00    +0.000 N 
ATOM      5  N   UNL     1       2.684  13.598  20.516  0.00  0.00    +0.000 NA
ATOM      6  C   UNL     1       1.410  13.280  20.391  0.00  0.00    +0.000 A 
ATOM      7  N   UNL     1       1.171  11.967  20.700  0.00  0.00    +0.000 N 
ATOM      8  N   UNL     1       0.469  14.125  20.017  0.00  0.00    +0.000 NA
ATOM      9  H   UNL     1       4.815  14.184  20.595  0.00  0.00    +0.000 HD
ATOM     10  H   UNL     1       2.068  11.504  20.607  0.00  0.00    +0.000 HD
ENDROOT
BRANCH   1  17
ATOM     11  N   UNL     1       0.018  18.530  16.336  0.00  0.00    +0.000 N 
ATOM     12  C   UNL     1      -0.464  17.896  17.473  0.00  0.00    +0.000 A 
ATOM     13  C   UNL     1      -1.616  18.350  18.097  0.00  0.00    +0.000 A 
ATOM     14  C   UNL     1      -2.034  17.722  19.264  0.00  0.00    +0.000 A 
ATOM     15  C   UNL     1      -1.261  16.695  19.798  0.00  0.00    +0.000 A 
ATOM     16  F   UNL     1      -1.678  16.118  20.934  0.00  0.00    +0.000 F 
ATOM     17  C   UNL     1      -0.078  16.319  19.160  0.00  0.00    +0.000 A 
ATOM     18  N   UNL     1       0.294  16.907  17.977  0.00  0.00    +0.000 NA
ATOM     19  H   UNL     1      -0.686  18.658  15.620  0.00  0.00    +0.000 HD
ATOM     20  H   UNL     1       0.819  17.995  16.005  0.00  0.00    +0.000 HD
ENDBRANCH   1  17
BRANCH   4  21
ATOM     21  C   UNL     1       5.093  16.121  19.756  0.00  0.00    +0.000 C 
ATOM     22  C   UNL     1       5.106  15.895  18.237  0.00  0.00    +0.000 C 
ATOM     23  C   UNL     1       5.942  14.690  17.804  0.00  0.00    +0.000 C 
ATOM     24  C   UNL     1       7.345  14.733  18.380  0.00  0.00    +0.000 C 
ATOM     25  F   UNL     1       8.038  15.741  17.790  0.00  0.00    +0.000 F 
ATOM     26  F   UNL     1       7.996  13.585  18.068  0.00  0.00    +0.000 F 
ATOM     27  C   UNL     1       7.367  14.935  19.884  0.00  0.00    +0.000 C 
ATOM     28  C   UNL     1       6.538  16.155  20.299  0.00  0.00    +0.000 C 
ENDBRANCH   4  21
BRANCH   7  29
ATOM     29  C   UNL     1       0.007  11.202  20.292  0.00  0.00    +0.000 C 
ATOM     30  C   UNL     1      -1.125  11.331  21.318  0.00  0.00    +0.000 C 
ATOM     31  C   UNL     1      -0.667  10.911  22.717  0.00  0.00    +0.000 C 
ATOM     32  C   UNL     1      -0.046   9.523  22.726  0.00  0.00    +0.000 C 
ATOM     33  F   UNL     1      -1.047   8.605  22.624  0.00  0.00    +0.000 F 
ATOM     34  F   UNL     1       0.548   9.302  23.927  0.00  0.00    +0.000 F 
ATOM     35  C   UNL     1       0.957   9.249  21.616  0.00  0.00    +0.000 C 
ATOM     36  C   UNL     1       0.445   9.720  20.248  0.00  0.00    +0.000 C 
ENDBRANCH   7  29
TORSDOF 3
ENDMDL
MODEL 8
REMARK VINA RESULT:      -7.2      6.959     10.447
REMARK  Name = 
REMARK  3 active torsions:
REMARK  status: ('A' for Active; 'I' for Inactive)
REMARK    1  A    between atoms: C_7  and  C_8
REMARK    2  A    between atoms: N_11  and  C_12
REMARK    3  A    between atoms: N_22  and  C_23
REMARK                            x       y       z     vdW  Elec       q    Type
REMARK                         _______ _______ _______ _____ _____    ______ ____
ROOT
ATOM      1  C   UNL     1       0.404  10.840  19.009  0.00  0.00    +0.000 A 
ATOM      2  N   UNL     1       1.177  11.929  18.858  0.00  0.00    +0.000 NA
ATOM      3  C   UNL     1       0.528  13.048  18.590  0.00  0.00    +0.000 A 
ATOM      4  N   UNL     1       1.156  14.258  18.396  0.00  0.00    +0.000 N 
ATOM      5  N   UNL     1      -0.784  13.129  18.502  0.00  0.00    +0.000 NA
ATOM      6  C   UNL     1      -1.474  12.014  18.645  0.00  0.00    +0.000 A 
ATOM      7  N   UNL     1      -2.821  12.215  18.495  0.00  0.00    +0.000 N 
ATOM      8  N   UNL     1      -0.935  10.837  18.899  0.00  0.00    +0.000 NA
ATOM      9  H   UNL     1       0.436  14.970  18.384  0.00  0.00    +0.000 HD
ATOM     10  H   UNL     1      -2.962  13.206  18.658  0.00  0.00    +0.000 HD
ENDROOT
BRANCH   1  17
ATOM     11  N   UNL     1       2.997   7.049  17.841  0.00  0.00    +0.000 N 
ATOM     12  C   UNL     1       2.309   7.710  18.849  0.00  0.00    +0.000 A 
ATOM     13  C   UNL     1       2.048   7.078  20.055  0.00  0.00    +0.000 A 
ATOM     14  C   UNL     1       1.308   7.755  21.017  0.00  0.00    +0.000 A 
ATOM     15  C   UNL     1       0.811   9.021  20.725  0.00  0.00    +0.000 A 
ATOM     16  F   UNL     1       0.085   9.645  21.665  0.00  0.00    +0.000 F 
ATOM     17  C   UNL     1       1.052   9.585  19.472  0.00  0.00    +0.000 A 
ATOM     18  N   UNL     1       1.834   8.931  18.552  0.00  0.00    +0.000 NA
ATOM     19  H   UNL     1       3.861   6.626  18.156  0.00  0.00    +0.000 HD
ATOM     20  H   UNL     1       3.142   7.714  17.084  0.00  0.00    +0.000 HD
ENDBRANCH   1  17
BRANCH   4  21
ATOM     21  C   UNL     1       2.441  14.582  18.984  0.00  0.00    +0.000 C 
ATOM     22  C   UNL     1       2.317  15.065  20.437  0.00  0.00    +0.000 C 
ATOM     23  C   UNL     1       1.648  16.433  20.573  0.00  0.00    +0.000 C 
ATOM     24  C   UNL     1       2.300  17.477  19.684  0.00  0.00    +0.000 C 
ATOM     25  F   UNL     1       3.539  17.758  20.162  0.00  0.00    +0.000 F 
ATOM     26  F   UNL     1       1.591  18.631  19.750  0.00  0.00    +0.000 F 
ATOM     27  C   UNL     1       2.418  17.038  18.236  0.00  0.00    +0.000 C 
ATOM     28  C   UNL     1       3.105  15.674  18.117  0.00  0.00    +0.000 C 
ENDBRANCH   4  21
BRANCH   7  29
ATOM     29  C   UNL     1      -3.865  11.329  18.975  0.00  0.00    +0.000 C 
ATOM     30  C   UNL     1      -4.571  10.626  17.810  0.00  0.00    +0.000 C 
ATOM     31  C   UNL     1      -5.137  11.632  16.805  0.00  0.00    +0.000 C 
ATOM     32  C   UNL     1      -6.031  12.668  17.470  0.00  0.00    +0.000 C 
ATOM     33  F   UNL     1      -7.223  12.079  17.766  0.00  0.00    +0.000 F 
ATOM     34  F   UNL     1      -6.309  13.658  16.584  0.00  0.00    +0.000 F 
ATOM     35  C   UNL     1      -5.480  13.282  18.748  0.00  0.00    +0.000 C 
ATOM     36  C   UNL     1      -4.904  12.220  19.695  0.00  0.00    +0.000 C 
ENDBRANCH   7  29
TORSDOF 3
ENDMDL
MODEL 9
REMARK VINA RESULT:      -7.2      6.771      9.743
REMARK  Name = 
REMARK  3 active torsions:
REMARK  status: ('A' for Active; 'I' for Inactive)
REMARK    1  A    between atoms: C_7  and  C_8
REMARK    2  A    between atoms: N_11  and  C_12
REMARK    3  A    between atoms: N_22  and  C_23
REMARK                            x       y       z     vdW  Elec       q    Type
REMARK                         _______ _______ _______ _____ _____    ______ ____
ROOT
ATOM      1  C   UNL     1       0.648  10.698  18.969  0.00  0.00    +0.000 A 
ATOM      2  N   UNL     1       1.389  11.813  19.090  0.00  0.00    +0.000 NA
ATOM      3  C   UNL     1       0.782  12.933  18.741  0.00  0.00    +0.000 A 
ATOM      4  N   UNL     1       1.388  14.169  18.794  0.00  0.00    +0.000 N 
ATOM      5  N   UNL     1      -0.468  12.990  18.329  0.00  0.00    +0.000 NA
ATOM      6  C   UNL     1      -1.125  11.851  18.218  0.00  0.00    +0.000 A 
ATOM      7  N   UNL     1      -2.397  12.032  17.745  0.00  0.00    +0.000 N 
ATOM      8  N   UNL     1      -0.618  10.672  18.522  0.00  0.00    +0.000 NA
ATOM      9  H   UNL     1       0.666  14.863  18.647  0.00  0.00    +0.000 HD
ATOM     10  H   UNL     1      -2.616  13.005  17.932  0.00  0.00    +0.000 HD
ENDROOT
BRANCH   1  17
ATOM     11  N   UNL     1       3.043   6.721  18.018  0.00  0.00    +0.000 N 
ATOM     12  C   UNL     1       2.371   7.460  18.981  0.00  0.00    +0.000 A 
ATOM     13  C   UNL     1       2.045   6.893  20.204  0.00  0.00    +0.000 A 
ATOM     14  C   UNL     1       1.323   7.650  21.119  0.00  0.00    +0.000 A 
ATOM     15  C   UNL     1       0.907   8.930  20.764  0.00  0.00    +0.000 A 
ATOM     16  F   UNL     1       0.197   9.631  21.660  0.00  0.00    +0.000 F 
ATOM     17  C   UNL     1       1.212   9.428  19.497  0.00  0.00    +0.000 A 
ATOM     18  N   UNL     1       1.975   8.694  18.624  0.00  0.00    +0.000 NA
ATOM     19  H   UNL     1       3.873   6.262  18.372  0.00  0.00    +0.000 HD
ATOM     20  H   UNL     1       3.245   7.345  17.239  0.00  0.00    +0.000 HD
ENDBRANCH   1  17
BRANCH   4  21
ATOM     21  C   UNL     1       2.470  14.478  19.709  0.00  0.00    +0.000 C 
ATOM     22  C   UNL     1       1.972  15.123  21.010  0.00  0.00    +0.000 C 
ATOM     23  C   UNL     1       1.417  16.536  20.821  0.00  0.00    +0.000 C 
ATOM     24  C   UNL     1       2.389  17.436  20.080  0.00  0.00    +0.000 C 
ATOM     25  F   UNL     1       3.456  17.693  20.881  0.00  0.00    +0.000 F 
ATOM     26  F   UNL     1       1.797  18.630  19.831  0.00  0.00    +0.000 F 
ATOM     27  C   UNL     1       2.885  16.835  18.778  0.00  0.00    +0.000 C 
ATOM     28  C   UNL     1       3.452  15.427  18.988  0.00  0.00    +0.000 C 
ENDBRANCH   4  21
BRANCH   7  29
ATOM     29  C   UNL     1      -3.492  11.089  17.885  0.00  0.00    +0.000 C 
ATOM     30  C   UNL     1      -3.053   9.673  17.493  0.00  0.00    +0.000 C 
ATOM     31  C   UNL     1      -2.485   9.632  16.073  0.00  0.00    +0.000 C 
ATOM     32  C   UNL     1      -3.441  10.235  15.054  0.00  0.00    +0.000 C 
ATOM     33  F   UNL     1      -4.445   9.343  14.829  0.00  0.00    +0.000 F 
ATOM     34  F   UNL     1      -2.799  10.387  13.868  0.00  0.00    +0.000 F 
ATOM     35  C   UNL     1      -4.071  11.560  15.454  0.00  0.00    +0.000 C 
ATOM     36  C   UNL     1      -4.592  11.538  16.897  0.00  0.00    +0.000 C 
ENDBRANCH   7  29
TORSDOF 3
ENDMDL
