MODEL 1
REMARK VINA RESULT:      -8.1      0.000      0.000
REMARK  Name = 
REMARK  6 active torsions:
REMARK  status: ('A' for Active; 'I' for Inactive)
REMARK    1  A    between atoms: C_1  and  C_2
REMARK    2  A    between atoms: C_6  and  N_7
REMARK    3  A    between atoms: N_7  and  S_8
REMARK    4  A    between atoms: S_8  and  C_11
REMARK    5  A    between atoms: C_14  and  C_15
REMARK    6  A    between atoms: C_18  and  C_19
REMARK                            x       y       z     vdW  Elec       q    Type
REMARK                         _______ _______ _______ _____ _____    ______ ____
ROOT
ATOM      1  C   UNL     1       6.936   6.256  17.840  0.00  0.00    +0.000 A 
ATOM      2  C   UNL     1       6.632   7.422  17.135  0.00  0.00    +0.000 A 
ATOM      3  C   UNL     1       7.332   8.606  17.415  0.00  0.00    +0.000 A 
ATOM      4  C   UNL     1       8.318   8.666  18.420  0.00  0.00    +0.000 A 
ATOM      5  C   UNL     1       8.567   7.482  19.140  0.00  0.00    +0.000 A 
ATOM      6  C   UNL     1       7.886   6.292  18.858  0.00  0.00    +0.000 A 
ENDROOT
BRANCH   4   7
ATOM      7  C   UNL     1       9.061   9.921  18.708  0.00  0.00    +0.000 A 
ATOM      8  C   UNL     1       9.542  10.749  17.676  0.00  0.00    +0.000 A 
ATOM      9  C   UNL     1      10.277  11.911  17.945  0.00  0.00    +0.000 A 
ATOM     10  C   UNL     1      10.532  12.282  19.261  0.00  0.00    +0.000 A 
ATOM     11  C   UNL     1      10.049  11.499  20.307  0.00  0.00    +0.000 A 
ATOM     12  C   UNL     1       9.326  10.332  20.030  0.00  0.00    +0.000 A 
BRANCH  10  13
ATOM     13  C   UNL     1      11.294  13.464  19.542  0.00  0.00    +0.000 C 
ATOM     14  N   UNL     1      11.913  14.417  19.769  0.00  0.00    +0.000 NA
ENDBRANCH  10  13
ENDBRANCH   4   7
BRANCH   1  15
ATOM     15  S   UNL     1       5.991   4.766  17.579  0.00  0.00    +0.000 S 
ATOM     16  O   UNL     1       5.977   4.050  18.839  0.00  0.00    +0.000 OA
ATOM     17  O   UNL     1       6.499   4.130  16.380  0.00  0.00    +0.000 OA
BRANCH  15  18
ATOM     18  N   UNL     1       4.413   5.252  17.305  0.00  0.00    +0.000 N 
ATOM     19  H   UNL     1       4.099   5.101  16.348  0.00  0.00    +0.000 HD
BRANCH  18  25
ATOM     20  C   UNL     1       0.903   2.392  18.750  0.00  0.00    +0.000 C 
ATOM     21  C   UNL     1       1.723   3.630  18.973  0.00  0.00    +0.000 A 
ATOM     22  C   UNL     1       1.443   4.468  20.050  0.00  0.00    +0.000 A 
ATOM     23  C   UNL     1       2.216   5.611  20.228  0.00  0.00    +0.000 A 
ATOM     24  C   UNL     1       3.249   5.878  19.336  0.00  0.00    +0.000 A 
ATOM     25  C   UNL     1       3.448   4.993  18.290  0.00  0.00    +0.000 A 
ATOM     26  N   UNL     1       2.716   3.885  18.081  0.00  0.00    +0.000 NA
ENDBRANCH  18  25
ENDBRANCH  15  18
ENDBRANCH   1  15
TORSDOF 5
ENDMDL
MODEL 2
REMARK VINA RESULT:      -8.1      5.402      6.795
REMARK  Name = 
REMARK  6 active torsions:
REMARK  status: ('A' for Active; 'I' for Inactive)
REMARK    1  A    between atoms: C_1  and  C_2
REMARK    2  A    between atoms: C_6  and  N_7
REMARK    3  A    between atoms: N_7  and  S_8
REMARK    4  A    between atoms: S_8  and  C_11
REMARK    5  A    between atoms: C_14  and  C_15
REMARK    6  A    between atoms: C_18  and  C_19
REMARK                            x       y       z     vdW  Elec       q    Type
REMARK                         _______ _______ _______ _____ _____    ______ ____
ROOT
ATOM      1  C   UNL     1       4.329   5.874  18.429  0.00  0.00    +0.000 A 
ATOM      2  C   UNL     1       4.028   6.789  17.419  0.00  0.00    +0.000 A 
ATOM      3  C   UNL     1       3.045   7.766  17.636  0.00  0.00    +0.000 A 
ATOM      4  C   UNL     1       2.318   7.834  18.841  0.00  0.00    +0.000 A 
ATOM      5  C   UNL     1       2.618   6.868  19.821  0.00  0.00    +0.000 A 
ATOM      6  C   UNL     1       3.608   5.899  19.621  0.00  0.00    +0.000 A 
ENDROOT
BRANCH   4   7
ATOM      7  C   UNL     1       1.282   8.875  19.069  0.00  0.00    +0.000 A 
ATOM      8  C   UNL     1       0.884   9.251  20.365  0.00  0.00    +0.000 A 
ATOM      9  C   UNL     1      -0.121  10.203  20.582  0.00  0.00    +0.000 A 
ATOM     10  C   UNL     1      -0.739  10.818  19.498  0.00  0.00    +0.000 A 
ATOM     11  C   UNL     1      -0.351  10.489  18.202  0.00  0.00    +0.000 A 
ATOM     12  C   UNL     1       0.645   9.526  17.994  0.00  0.00    +0.000 A 
BRANCH  10  13
ATOM     13  C   UNL     1      -1.776  11.786  19.714  0.00  0.00    +0.000 C 
ATOM     14  N   UNL     1      -2.613  12.567  19.893  0.00  0.00    +0.000 NA
ENDBRANCH  10  13
ENDBRANCH   4   7
BRANCH   1  15
ATOM     15  S   UNL     1       5.497   4.557  18.142  0.00  0.00    +0.000 S 
ATOM     16  O   UNL     1       6.257   4.394  19.365  0.00  0.00    +0.000 OA
ATOM     17  O   UNL     1       6.173   4.837  16.890  0.00  0.00    +0.000 OA
BRANCH  15  18
ATOM     18  N   UNL     1       4.596   3.158  17.967  0.00  0.00    +0.000 N 
ATOM     19  H   UNL     1       5.135   2.305  18.099  0.00  0.00    +0.000 HD
BRANCH  18  25
ATOM     20  C   UNL     1       1.915   2.425  21.822  0.00  0.00    +0.000 C 
ATOM     21  C   UNL     1       1.994   2.732  20.354  0.00  0.00    +0.000 A 
ATOM     22  C   UNL     1       0.827   2.878  19.607  0.00  0.00    +0.000 A 
ATOM     23  C   UNL     1       0.932   3.157  18.248  0.00  0.00    +0.000 A 
ATOM     24  C   UNL     1       2.193   3.293  17.679  0.00  0.00    +0.000 A 
ATOM     25  C   UNL     1       3.297   3.123  18.498  0.00  0.00    +0.000 A 
ATOM     26  N   UNL     1       3.234   2.844  19.811  0.00  0.00    +0.000 NA
ENDBRANCH  18  25
ENDBRANCH  15  18
ENDBRANCH   1  15
TORSDOF 5
ENDMDL
MODEL 3
REMARK VINA RESULT:      -8.1      5.288      6.779
REMARK  Name = 
REMARK  6 active torsions:
REMARK  status: ('A' for Active; 'I' for Inactive)
REMARK    1  A    between atoms: C_1  and  C_2
REMARK    2  A    between atoms: C_6  and  N_7
REMARK    3  A    between atoms: N_7  and  S_8
REMARK    4  A    between atoms: S_8  and  C_11
REMARK    5  A    between atoms: C_14  and  C_15
REMARK    6  A    between atoms: C_18  and  C_19
REMARK                            x       y       z     vdW  Elec       q    Type
REMARK                         _______ _______ _______ _____ _____    ______ ____
ROOT
ATOM      1  C   UNL     1       4.479   5.773  18.475  0.00  0.00    +0.000 A 
ATOM      2  C   UNL     1       3.726   5.785  19.651  0.00  0.00    +0.000 A 
ATOM      3  C   UNL     1       2.709   6.738  19.816  0.00  0.00    +0.000 A 
ATOM      4  C   UNL     1       2.444   7.718  18.839  0.00  0.00    +0.000 A 
ATOM      5  C   UNL     1       3.252   7.703  17.686  0.00  0.00    +0.000 A 
ATOM      6  C   UNL     1       4.257   6.746  17.503  0.00  0.00    +0.000 A 
ENDROOT
BRANCH   4   7
ATOM      7  C   UNL     1       1.361   8.722  19.016  0.00  0.00    +0.000 A 
ATOM      8  C   UNL     1       0.761   9.363  17.917  0.00  0.00    +0.000 A 
ATOM      9  C   UNL     1      -0.231  10.339  18.083  0.00  0.00    +0.000 A 
ATOM     10  C   UNL     1      -0.659  10.682  19.362  0.00  0.00    +0.000 A 
ATOM     11  C   UNL     1      -0.105  10.047  20.470  0.00  0.00    +0.000 A 
ATOM     12  C   UNL     1       0.895   9.082  20.296  0.00  0.00    +0.000 A 
BRANCH  10  13
ATOM     13  C   UNL     1      -1.667  11.687  19.538  0.00  0.00    +0.000 C 
ATOM     14  N   UNL     1      -2.482  12.499  19.676  0.00  0.00    +0.000 NA
ENDBRANCH  10  13
ENDBRANCH   4   7
BRANCH   1  15
ATOM     15  S   UNL     1       5.844   4.642  18.284  0.00  0.00    +0.000 S 
ATOM     16  O   UNL     1       6.932   5.153  19.093  0.00  0.00    +0.000 OA
ATOM     17  O   UNL     1       6.029   4.416  16.864  0.00  0.00    +0.000 OA
BRANCH  15  18
ATOM     18  N   UNL     1       5.369   3.206  19.000  0.00  0.00    +0.000 N 
ATOM     19  H   UNL     1       5.865   2.996  19.864  0.00  0.00    +0.000 HD
BRANCH  18  25
ATOM     20  C   UNL     1       1.474   2.543  21.642  0.00  0.00    +0.000 C 
ATOM     21  C   UNL     1       2.126   2.519  20.290  0.00  0.00    +0.000 A 
ATOM     22  C   UNL     1       1.402   2.109  19.173  0.00  0.00    +0.000 A 
ATOM     23  C   UNL     1       2.034   2.091  17.933  0.00  0.00    +0.000 A 
ATOM     24  C   UNL     1       3.362   2.493  17.844  0.00  0.00    +0.000 A 
ATOM     25  C   UNL     1       4.005   2.877  19.009  0.00  0.00    +0.000 A 
ATOM     26  N   UNL     1       3.430   2.896  20.223  0.00  0.00    +0.000 NA
ENDBRANCH  18  25
ENDBRANCH  15  18
ENDBRANCH   1  15
TORSDOF 5
ENDMDL
MODEL 4
REMARK VINA RESULT:      -8.1      1.087      1.748
REMARK  Name = 
REMARK  6 active torsions:
REMARK  status: ('A' for Active; 'I' for Inactive)
REMARK    1  A    between atoms: C_1  and  C_2
REMARK    2  A    between atoms: C_6  and  N_7
REMARK    3  A    between atoms: N_7  and  S_8
REMARK    4  A    between atoms: S_8  and  C_11
REMARK    5  A    between atoms: C_14  and  C_15
REMARK    6  A    between atoms: C_18  and  C_19
REMARK                            x       y       z     vdW  Elec       q    Type
REMARK                         _______ _______ _______ _____ _____    ______ ____
ROOT
ATOM      1  C   UNL     1       7.304   6.436  17.726  0.00  0.00    +0.000 A 
ATOM      2  C   UNL     1       8.128   6.494  18.851  0.00  0.00    +0.000 A 
ATOM      3  C   UNL     1       8.688   7.721  19.241  0.00  0.00    +0.000 A 
ATOM      4  C   UNL     1       8.471   8.903  18.505  0.00  0.00    +0.000 A 
ATOM      5  C   UNL     1       7.671   8.798  17.351  0.00  0.00    +0.000 A 
ATOM      6  C   UNL     1       7.094   7.583  16.963  0.00  0.00    +0.000 A 
ENDROOT
BRANCH   4   7
ATOM      7  C   UNL     1       9.061  10.201  18.925  0.00  0.00    +0.000 A 
ATOM      8  C   UNL     1       9.449  10.441  20.256  0.00  0.00    +0.000 A 
ATOM      9  C   UNL     1       9.967  11.677  20.663  0.00  0.00    +0.000 A 
ATOM     10  C   UNL     1      10.128  12.701  19.735  0.00  0.00    +0.000 A 
ATOM     11  C   UNL     1       9.779  12.489  18.404  0.00  0.00    +0.000 A 
ATOM     12  C   UNL     1       9.249  11.255  18.008  0.00  0.00    +0.000 A 
BRANCH  10  13
ATOM     13  C   UNL     1      10.648  13.973  20.148  0.00  0.00    +0.000 C 
ATOM     14  N   UNL     1      11.073  14.998  20.481  0.00  0.00    +0.000 NA
ENDBRANCH  10  13
ENDBRANCH   4   7
BRANCH   1  15
ATOM     15  S   UNL     1       6.666   4.874  17.149  0.00  0.00    +0.000 S 
ATOM     16  O   UNL     1       7.801   4.100  16.687  0.00  0.00    +0.000 OA
ATOM     17  O   UNL     1       5.559   5.156  16.257  0.00  0.00    +0.000 OA
BRANCH  15  18
ATOM     18  N   UNL     1       6.081   4.077  18.499  0.00  0.00    +0.000 N 
ATOM     19  H   UNL     1       6.738   4.052  19.276  0.00  0.00    +0.000 HD
BRANCH  18  25
ATOM     20  C   UNL     1       1.668   2.313  18.439  0.00  0.00    +0.000 C 
ATOM     21  C   UNL     1       2.596   3.435  18.806  0.00  0.00    +0.000 A 
ATOM     22  C   UNL     1       2.092   4.595  19.390  0.00  0.00    +0.000 A 
ATOM     23  C   UNL     1       2.976   5.620  19.714  0.00  0.00    +0.000 A 
ATOM     24  C   UNL     1       4.332   5.454  19.457  0.00  0.00    +0.000 A 
ATOM     25  C   UNL     1       4.740   4.270  18.866  0.00  0.00    +0.000 A 
ATOM     26  N   UNL     1       3.916   3.263  18.531  0.00  0.00    +0.000 NA
ENDBRANCH  18  25
ENDBRANCH  15  18
ENDBRANCH   1  15
TORSDOF 5
ENDMDL
MODEL 5
REMARK VINA RESULT:      -8.0      0.690      1.643
REMARK  Name = 
REMARK  6 active torsions:
REMARK  status: ('A' for Active; 'I' for Inactive)
REMARK    1  A    between atoms: C_1  and  C_2
REMARK    2  A    between atoms: C_6  and  N_7
REMARK    3  A    between atoms: N_7  and  S_8
REMARK    4  A    between atoms: S_8  and  C_11
REMARK    5  A    between atoms: C_14  and  C_15
REMARK    6  A    between atoms: C_18  and  C_19
REMARK                            x       y       z     vdW  Elec       q    Type
REMARK                         _______ _______ _______ _____ _____    ______ ____
ROOT
ATOM      1  C   UNL     1       7.042   6.337  17.835  0.00  0.00    +0.000 A 
ATOM      2  C   UNL     1       6.745   7.506  17.133  0.00  0.00    +0.000 A 
ATOM      3  C   UNL     1       7.425   8.694  17.440  0.00  0.00    +0.000 A 
ATOM      4  C   UNL     1       8.386   8.755  18.470  0.00  0.00    +0.000 A 
ATOM      5  C   UNL     1       8.628   7.566  19.186  0.00  0.00    +0.000 A 
ATOM      6  C   UNL     1       7.967   6.372  18.876  0.00  0.00    +0.000 A 
ENDROOT
BRANCH   4   7
ATOM      7  C   UNL     1       9.109  10.014  18.788  0.00  0.00    +0.000 A 
ATOM      8  C   UNL     1       9.382  10.395  20.115  0.00  0.00    +0.000 A 
ATOM      9  C   UNL     1      10.027  11.601  20.418  0.00  0.00    +0.000 A 
ATOM     10  C   UNL     1      10.433  12.448  19.392  0.00  0.00    +0.000 A 
ATOM     11  C   UNL     1      10.202  12.089  18.067  0.00  0.00    +0.000 A 
ATOM     12  C   UNL     1       9.545  10.888  17.772  0.00  0.00    +0.000 A 
BRANCH  10  13
ATOM     13  C   UNL     1      11.085  13.689  19.697  0.00  0.00    +0.000 C 
ATOM     14  N   UNL     1      11.612  14.692  19.939  0.00  0.00    +0.000 NA
ENDBRANCH  10  13
ENDBRANCH   4   7
BRANCH   1  15
ATOM     15  S   UNL     1       6.119   4.840  17.537  0.00  0.00    +0.000 S 
ATOM     16  O   UNL     1       6.143   4.078  18.769  0.00  0.00    +0.000 OA
ATOM     17  O   UNL     1       6.614   4.258  16.305  0.00  0.00    +0.000 OA
BRANCH  15  18
ATOM     18  N   UNL     1       4.528   5.306  17.311  0.00  0.00    +0.000 N 
ATOM     19  H   UNL     1       4.356   5.755  16.414  0.00  0.00    +0.000 HD
BRANCH  18  25
ATOM     20  C   UNL     1       1.163   4.486  20.565  0.00  0.00    +0.000 C 
ATOM     21  C   UNL     1       1.901   4.029  19.341  0.00  0.00    +0.000 A 
ATOM     22  C   UNL     1       1.608   2.793  18.770  0.00  0.00    +0.000 A 
ATOM     23  C   UNL     1       2.313   2.393  17.638  0.00  0.00    +0.000 A 
ATOM     24  C   UNL     1       3.277   3.241  17.105  0.00  0.00    +0.000 A 
ATOM     25  C   UNL     1       3.506   4.447  17.745  0.00  0.00    +0.000 A 
ATOM     26  N   UNL     1       2.853   4.862  18.844  0.00  0.00    +0.000 NA
ENDBRANCH  18  25
ENDBRANCH  15  18
ENDBRANCH   1  15
TORSDOF 5
ENDMDL
MODEL 6
REMARK VINA RESULT:      -8.0      4.401      7.400
REMARK  Name = 
REMARK  6 active torsions:
REMARK  status: ('A' for Active; 'I' for Inactive)
REMARK    1  A    between atoms: C_1  and  C_2
REMARK    2  A    between atoms: C_6  and  N_7
REMARK    3  A    between atoms: N_7  and  S_8
REMARK    4  A    between atoms: S_8  and  C_11
REMARK    5  A    between atoms: C_14  and  C_15
REMARK    6  A    between atoms: C_18  and  C_19
REMARK                            x       y       z     vdW  Elec       q    Type
REMARK                         _______ _______ _______ _____ _____    ______ ____
ROOT
ATOM      1  C   UNL     1       2.908   4.878  19.290  0.00  0.00    +0.000 A 
ATOM      2  C   UNL     1       2.955   6.024  18.495  0.00  0.00    +0.000 A 
ATOM      3  C   UNL     1       2.392   7.220  18.966  0.00  0.00    +0.000 A 
ATOM      4  C   UNL     1       1.742   7.294  20.214  0.00  0.00    +0.000 A 
ATOM      5  C   UNL     1       1.675   6.108  20.969  0.00  0.00    +0.000 A 
ATOM      6  C   UNL     1       2.248   4.913  20.516  0.00  0.00    +0.000 A 
ENDROOT
BRANCH   4   7
ATOM      7  C   UNL     1       1.152   8.565  20.711  0.00  0.00    +0.000 A 
ATOM      8  C   UNL     1       0.795   8.736  22.061  0.00  0.00    +0.000 A 
ATOM      9  C   UNL     1       0.202   9.918  22.524  0.00  0.00    +0.000 A 
ATOM     10  C   UNL     1      -0.030  10.969  21.642  0.00  0.00    +0.000 A 
ATOM     11  C   UNL     1       0.335  10.843  20.304  0.00  0.00    +0.000 A 
ATOM     12  C   UNL     1       0.915   9.653  19.847  0.00  0.00    +0.000 A 
BRANCH  10  13
ATOM     13  C   UNL     1      -0.647  12.177  22.108  0.00  0.00    +0.000 C 
ATOM     14  N   UNL     1      -1.141  13.155  22.486  0.00  0.00    +0.000 NA
ENDBRANCH  10  13
ENDBRANCH   4   7
BRANCH   1  15
ATOM     15  S   UNL     1       3.522   3.321  18.673  0.00  0.00    +0.000 S 
ATOM     16  O   UNL     1       3.285   3.311  17.243  0.00  0.00    +0.000 OA
ATOM     17  O   UNL     1       2.979   2.272  19.514  0.00  0.00    +0.000 OA
BRANCH  15  18
ATOM     18  N   UNL     1       5.184   3.361  18.866  0.00  0.00    +0.000 N 
ATOM     19  H   UNL     1       5.621   2.442  18.836  0.00  0.00    +0.000 HD
BRANCH  18  25
ATOM     20  C   UNL     1       6.978   4.994  14.780  0.00  0.00    +0.000 C 
ATOM     21  C   UNL     1       6.813   5.155  16.263  0.00  0.00    +0.000 A 
ATOM     22  C   UNL     1       7.431   6.215  16.924  0.00  0.00    +0.000 A 
ATOM     23  C   UNL     1       7.264   6.336  18.300  0.00  0.00    +0.000 A 
ATOM     24  C   UNL     1       6.479   5.406  18.972  0.00  0.00    +0.000 A 
ATOM     25  C   UNL     1       5.911   4.381  18.235  0.00  0.00    +0.000 A 
ATOM     26  N   UNL     1       6.058   4.227  16.907  0.00  0.00    +0.000 NA
ENDBRANCH  18  25
ENDBRANCH  15  18
ENDBRANCH   1  15
TORSDOF 5
ENDMDL
MODEL 7
REMARK VINA RESULT:      -7.9      4.382      7.116
REMARK  Name = 
REMARK  6 active torsions:
REMARK  status: ('A' for Active; 'I' for Inactive)
REMARK    1  A    between atoms: C_1  and  C_2
REMARK    2  A    between atoms: C_6  and  N_7
REMARK    3  A    between atoms: N_7  and  S_8
REMARK    4  A    between atoms: S_8  and  C_11
REMARK    5  A    between atoms: C_14  and  C_15
REMARK    6  A    between atoms: C_18  and  C_19
REMARK                            x       y       z     vdW  Elec       q    Type
REMARK                         _______ _______ _______ _____ _____    ______ ____
ROOT
ATOM      1  C   UNL     1       3.076   4.962  19.167  0.00  0.00    +0.000 A 
ATOM      2  C   UNL     1       3.059   5.843  18.085  0.00  0.00    +0.000 A 
ATOM      3  C   UNL     1       2.507   7.124  18.239  0.00  0.00    +0.000 A 
ATOM      4  C   UNL     1       1.931   7.543  19.456  0.00  0.00    +0.000 A 
ATOM      5  C   UNL     1       1.927   6.612  20.512  0.00  0.00    +0.000 A 
ATOM      6  C   UNL     1       2.490   5.338  20.374  0.00  0.00    +0.000 A 
ENDROOT
BRANCH   4   7
ATOM      7  C   UNL     1       1.353   8.903  19.617  0.00  0.00    +0.000 A 
ATOM      8  C   UNL     1       0.813   9.336  20.842  0.00  0.00    +0.000 A 
ATOM      9  C   UNL     1       0.231  10.603  20.985  0.00  0.00    +0.000 A 
ATOM     10  C   UNL     1       0.195  11.476  19.902  0.00  0.00    +0.000 A 
ATOM     11  C   UNL     1       0.744  11.089  18.683  0.00  0.00    +0.000 A 
ATOM     12  C   UNL     1       1.312   9.816  18.544  0.00  0.00    +0.000 A 
BRANCH  10  13
ATOM     13  C   UNL     1      -0.409  12.770  20.040  0.00  0.00    +0.000 C 
ATOM     14  N   UNL     1      -0.899  13.814  20.148  0.00  0.00    +0.000 NA
ENDBRANCH  10  13
ENDBRANCH   4   7
BRANCH   1  15
ATOM     15  S   UNL     1       3.675   3.294  18.969  0.00  0.00    +0.000 S 
ATOM     16  O   UNL     1       3.368   2.894  17.610  0.00  0.00    +0.000 OA
ATOM     17  O   UNL     1       3.186   2.517  20.090  0.00  0.00    +0.000 OA
BRANCH  15  18
ATOM     18  N   UNL     1       5.344   3.379  19.060  0.00  0.00    +0.000 N 
ATOM     19  H   UNL     1       5.802   2.472  19.022  0.00  0.00    +0.000 HD
BRANCH  18  25
ATOM     20  C   UNL     1       6.838   4.969  14.838  0.00  0.00    +0.000 C 
ATOM     21  C   UNL     1       6.762   5.157  16.325  0.00  0.00    +0.000 A 
ATOM     22  C   UNL     1       7.393   6.245  16.925  0.00  0.00    +0.000 A 
ATOM     23  C   UNL     1       7.310   6.390  18.306  0.00  0.00    +0.000 A 
ATOM     24  C   UNL     1       6.592   5.457  19.044  0.00  0.00    +0.000 A 
ATOM     25  C   UNL     1       6.005   4.403  18.364  0.00  0.00    +0.000 A 
ATOM     26  N   UNL     1       6.072   4.225  17.034  0.00  0.00    +0.000 NA
ENDBRANCH  18  25
ENDBRANCH  15  18
ENDBRANCH   1  15
TORSDOF 5
ENDMDL
MODEL 8
REMARK VINA RESULT:      -7.9      4.372      6.985
REMARK  Name = 
REMARK  6 active torsions:
REMARK  status: ('A' for Active; 'I' for Inactive)
REMARK    1  A    between atoms: C_1  and  C_2
REMARK    2  A    between atoms: C_6  and  N_7
REMARK    3  A    between atoms: N_7  and  S_8
REMARK    4  A    between atoms: S_8  and  C_11
REMARK    5  A    between atoms: C_14  and  C_15
REMARK    6  A    between atoms: C_18  and  C_19
REMARK                            x       y       z     vdW  Elec       q    Type
REMARK                         _______ _______ _______ _____ _____    ______ ____
ROOT
ATOM      1  C   UNL     1       2.961   4.768  19.097  0.00  0.00    +0.000 A 
ATOM      2  C   UNL     1       2.486   5.168  20.347  0.00  0.00    +0.000 A 
ATOM      3  C   UNL     1       1.984   6.468  20.516  0.00  0.00    +0.000 A 
ATOM      4  C   UNL     1       1.976   7.404  19.463  0.00  0.00    +0.000 A 
ATOM      5  C   UNL     1       2.503   6.979  18.228  0.00  0.00    +0.000 A 
ATOM      6  C   UNL     1       2.991   5.680  18.044  0.00  0.00    +0.000 A 
ENDROOT
BRANCH   4   7
ATOM      7  C   UNL     1       1.438   8.778  19.645  0.00  0.00    +0.000 A 
ATOM      8  C   UNL     1       1.387   9.699  18.583  0.00  0.00    +0.000 A 
ATOM      9  C   UNL     1       0.918  11.007  18.762  0.00  0.00    +0.000 A 
ATOM     10  C   UNL     1       0.467  11.417  20.013  0.00  0.00    +0.000 A 
ATOM     11  C   UNL     1       0.479  10.523  21.080  0.00  0.00    +0.000 A 
ATOM     12  C   UNL     1       0.962   9.221  20.896  0.00  0.00    +0.000 A 
BRANCH  10  13
ATOM     13  C   UNL     1      -0.004  12.758  20.205  0.00  0.00    +0.000 C 
ATOM     14  N   UNL     1      -0.384  13.843  20.355  0.00  0.00    +0.000 NA
ENDBRANCH  10  13
ENDBRANCH   4   7
BRANCH   1  15
ATOM     15  S   UNL     1       3.700   3.159  18.881  0.00  0.00    +0.000 S 
ATOM     16  O   UNL     1       3.515   2.794  17.490  0.00  0.00    +0.000 OA
ATOM     17  O   UNL     1       3.201   2.302  19.937  0.00  0.00    +0.000 OA
BRANCH  15  18
ATOM     18  N   UNL     1       5.348   3.367  19.089  0.00  0.00    +0.000 N 
ATOM     19  H   UNL     1       5.867   2.493  19.138  0.00  0.00    +0.000 HD
BRANCH  18  25
ATOM     20  C   UNL     1       6.876   4.918  14.865  0.00  0.00    +0.000 C 
ATOM     21  C   UNL     1       6.765   5.133  16.347  0.00  0.00    +0.000 A 
ATOM     22  C   UNL     1       7.352   6.251  16.936  0.00  0.00    +0.000 A 
ATOM     23  C   UNL     1       7.237   6.421  18.312  0.00  0.00    +0.000 A 
ATOM     24  C   UNL     1       6.533   5.480  19.055  0.00  0.00    +0.000 A 
ATOM     25  C   UNL     1       5.991   4.397  18.385  0.00  0.00    +0.000 A 
ATOM     26  N   UNL     1       6.090   4.195  17.060  0.00  0.00    +0.000 NA
ENDBRANCH  18  25
ENDBRANCH  15  18
ENDBRANCH   1  15
TORSDOF 5
ENDMDL
MODEL 9
REMARK VINA RESULT:      -7.9      1.068      1.902
REMARK  Name = 
REMARK  6 active torsions:
REMARK  status: ('A' for Active; 'I' for Inactive)
REMARK    1  A    between atoms: C_1  and  C_2
REMARK    2  A    between atoms: C_6  and  N_7
REMARK    3  A    between atoms: N_7  and  S_8
REMARK    4  A    between atoms: S_8  and  C_11
REMARK    5  A    between atoms: C_14  and  C_15
REMARK    6  A    between atoms: C_18  and  C_19
REMARK                            x       y       z     vdW  Elec       q    Type
REMARK                         _______ _______ _______ _____ _____    ______ ____
ROOT
ATOM      1  C   UNL     1       6.938   6.409  17.730  0.00  0.00    +0.000 A 
ATOM      2  C   UNL     1       7.902   6.384  18.738  0.00  0.00    +0.000 A 
ATOM      3  C   UNL     1       8.578   7.565  19.085  0.00  0.00    +0.000 A 
ATOM      4  C   UNL     1       8.336   8.782  18.416  0.00  0.00    +0.000 A 
ATOM      5  C   UNL     1       7.389   8.760  17.375  0.00  0.00    +0.000 A 
ATOM      6  C   UNL     1       6.698   7.592  17.033  0.00  0.00    +0.000 A 
ENDROOT
BRANCH   4   7
ATOM      7  C   UNL     1       9.049  10.031  18.791  0.00  0.00    +0.000 A 
ATOM      8  C   UNL     1       9.514  10.937  17.820  0.00  0.00    +0.000 A 
ATOM      9  C   UNL     1      10.221  12.095  18.169  0.00  0.00    +0.000 A 
ATOM     10  C   UNL     1      10.464  12.382  19.509  0.00  0.00    +0.000 A 
ATOM     11  C   UNL     1       9.996  11.520  20.497  0.00  0.00    +0.000 A 
ATOM     12  C   UNL     1       9.301  10.358  20.139  0.00  0.00    +0.000 A 
BRANCH  10  13
ATOM     13  C   UNL     1      11.197  13.561  19.871  0.00  0.00    +0.000 C 
ATOM     14  N   UNL     1      11.786  14.515  20.162  0.00  0.00    +0.000 NA
ENDBRANCH  10  13
ENDBRANCH   4   7
BRANCH   1  15
ATOM     15  S   UNL     1       6.142   4.905  17.198  0.00  0.00    +0.000 S 
ATOM     16  O   UNL     1       7.163   4.083  16.580  0.00  0.00    +0.000 OA
ATOM     17  O   UNL     1       4.952   5.276  16.458  0.00  0.00    +0.000 OA
BRANCH  15  18
ATOM     18  N   UNL     1       5.680   4.100  18.591  0.00  0.00    +0.000 N 
ATOM     19  H   UNL     1       6.033   4.525  19.445  0.00  0.00    +0.000 HD
BRANCH  18  25
ATOM     20  C   UNL     1       1.428   4.487  20.678  0.00  0.00    +0.000 C 
ATOM     21  C   UNL     1       2.322   3.763  19.714  0.00  0.00    +0.000 A 
ATOM     22  C   UNL     1       1.857   2.633  19.045  0.00  0.00    +0.000 A 
ATOM     23  C   UNL     1       2.710   1.979  18.162  0.00  0.00    +0.000 A 
ATOM     24  C   UNL     1       3.993   2.477  17.963  0.00  0.00    +0.000 A 
ATOM     25  C   UNL     1       4.371   3.601  18.678  0.00  0.00    +0.000 A 
ATOM     26  N   UNL     1       3.578   4.252  19.546  0.00  0.00    +0.000 NA
ENDBRANCH  18  25
ENDBRANCH  15  18
ENDBRANCH   1  15
TORSDOF 5
ENDMDL
