MODEL 1
REMARK VINA RESULT:      -7.3      0.000      0.000
REMARK  Name = 
REMARK  3 active torsions:
REMARK  status: ('A' for Active; 'I' for Inactive)
REMARK    1  A    between atoms: N_1  and  N_2
REMARK    2  A    between atoms: C_3  and  C_5
REMARK    3  A    between atoms: C_5  and  C_6
REMARK                            x       y       z     vdW  Elec       q    Type
REMARK                         _______ _______ _______ _____ _____    ______ ____
ROOT
ATOM      1  C   UNL     1       4.230   4.985  16.883  0.00  0.00    +0.000 A 
ATOM      2  N   UNL     1       4.496   6.251  17.020  0.00  0.00    +0.000 NA
ATOM      3  N   UNL     1       3.801   6.953  17.954  0.00  0.00    +0.000 N 
ATOM      4  C   UNL     1       2.892   6.435  18.841  0.00  0.00    +0.000 A 
ATOM      5  O   UNL     1       2.374   7.110  19.720  0.00  0.00    +0.000 OA
ATOM      6  C   UNL     1       2.550   5.015  18.670  0.00  0.00    +0.000 A 
ATOM      7  C   UNL     1       1.584   4.414  19.487  0.00  0.00    +0.000 A 
ATOM      8  C   UNL     1       1.218   3.088  19.266  0.00  0.00    +0.000 A 
ATOM      9  C   UNL     1       1.804   2.371  18.223  0.00  0.00    +0.000 A 
ATOM     10  C   UNL     1       2.781   2.966  17.417  0.00  0.00    +0.000 A 
ATOM     11  C   UNL     1       3.172   4.288  17.655  0.00  0.00    +0.000 A 
ATOM     12  H   UNL     1       4.038   7.935  18.059  0.00  0.00    +0.000 HD
ENDROOT
BRANCH   1  13
ATOM     13  C   UNL     1       5.061   4.222  15.876  0.00  0.00    +0.000 C 
BRANCH  13  15
ATOM     14  N   UNL     1       6.882   4.119  17.463  0.00  0.00    +0.000 N 
ATOM     15  C   UNL     1       6.534   4.365  16.141  0.00  0.00    +0.000 C 
ATOM     16  O   UNL     1       7.332   4.698  15.267  0.00  0.00    +0.000 OA
ATOM     17  H   UNL     1       6.163   3.854  18.139  0.00  0.00    +0.000 HD
BRANCH  14  18
ATOM     18  N   UNL     1       8.229   4.181  17.858  0.00  0.00    +0.000 NA
ATOM     19  H   UNL     1       8.765   3.497  17.320  0.00  0.00    +0.000 HD
ATOM     20  H   UNL     1       8.278   3.855  18.834  0.00  0.00    +0.000 HD
ENDBRANCH  14  18
ENDBRANCH  13  15
ENDBRANCH   1  13
TORSDOF 3
ENDMDL
MODEL 2
REMARK VINA RESULT:      -7.2      1.493      1.613
REMARK  Name = 
REMARK  3 active torsions:
REMARK  status: ('A' for Active; 'I' for Inactive)
REMARK    1  A    between atoms: N_1  and  N_2
REMARK    2  A    between atoms: C_3  and  C_5
REMARK    3  A    between atoms: C_5  and  C_6
REMARK                            x       y       z     vdW  Elec       q    Type
REMARK                         _______ _______ _______ _____ _____    ______ ____
ROOT
ATOM      1  C   UNL     1       5.289   5.476  17.154  0.00  0.00    +0.000 A 
ATOM      2  N   UNL     1       5.340   6.776  17.192  0.00  0.00    +0.000 NA
ATOM      3  N   UNL     1       4.223   7.450  17.573  0.00  0.00    +0.000 N 
ATOM      4  C   UNL     1       3.053   6.886  18.013  0.00  0.00    +0.000 A 
ATOM      5  O   UNL     1       2.118   7.555  18.432  0.00  0.00    +0.000 OA
ATOM      6  C   UNL     1       2.965   5.420  17.935  0.00  0.00    +0.000 A 
ATOM      7  C   UNL     1       1.786   4.759  18.301  0.00  0.00    +0.000 A 
ATOM      8  C   UNL     1       1.692   3.377  18.154  0.00  0.00    +0.000 A 
ATOM      9  C   UNL     1       2.768   2.660  17.629  0.00  0.00    +0.000 A 
ATOM     10  C   UNL     1       3.952   3.319  17.280  0.00  0.00    +0.000 A 
ATOM     11  C   UNL     1       4.059   4.703  17.454  0.00  0.00    +0.000 A 
ATOM     12  H   UNL     1       4.290   8.462  17.616  0.00  0.00    +0.000 HD
ENDROOT
BRANCH   1  13
ATOM     13  C   UNL     1       6.566   4.758  16.781  0.00  0.00    +0.000 C 
BRANCH  13  15
ATOM     14  N   UNL     1       7.116   5.417  19.042  0.00  0.00    +0.000 N 
ATOM     15  C   UNL     1       7.525   4.680  17.938  0.00  0.00    +0.000 C 
ATOM     16  O   UNL     1       8.577   4.047  17.880  0.00  0.00    +0.000 OA
ATOM     17  H   UNL     1       6.231   5.927  19.017  0.00  0.00    +0.000 HD
BRANCH  14  18
ATOM     18  N   UNL     1       7.892   5.416  20.214  0.00  0.00    +0.000 NA
ATOM     19  H   UNL     1       7.368   4.951  20.958  0.00  0.00    +0.000 HD
ATOM     20  H   UNL     1       7.987   6.393  20.520  0.00  0.00    +0.000 HD
ENDBRANCH  14  18
ENDBRANCH  13  15
ENDBRANCH   1  13
TORSDOF 3
ENDMDL
MODEL 3
REMARK VINA RESULT:      -7.2      2.619      3.319
REMARK  Name = 
REMARK  3 active torsions:
REMARK  status: ('A' for Active; 'I' for Inactive)
REMARK    1  A    between atoms: N_1  and  N_2
REMARK    2  A    between atoms: C_3  and  C_5
REMARK    3  A    between atoms: C_5  and  C_6
REMARK                            x       y       z     vdW  Elec       q    Type
REMARK                         _______ _______ _______ _____ _____    ______ ____
ROOT
ATOM      1  C   UNL     1       4.649   3.960  18.931  0.00  0.00    +0.000 A 
ATOM      2  N   UNL     1       4.894   2.785  19.435  0.00  0.00    +0.000 NA
ATOM      3  N   UNL     1       4.114   2.355  20.463  0.00  0.00    +0.000 N 
ATOM      4  C   UNL     1       3.022   3.009  20.974  0.00  0.00    +0.000 A 
ATOM      5  O   UNL     1       2.308   2.518  21.838  0.00  0.00    +0.000 OA
ATOM      6  C   UNL     1       2.760   4.356  20.444  0.00  0.00    +0.000 A 
ATOM      7  C   UNL     1       1.706   5.125  20.952  0.00  0.00    +0.000 A 
ATOM      8  C   UNL     1       1.515   6.426  20.491  0.00  0.00    +0.000 A 
ATOM      9  C   UNL     1       2.382   6.960  19.539  0.00  0.00    +0.000 A 
ATOM     10  C   UNL     1       3.425   6.185  19.019  0.00  0.00    +0.000 A 
ATOM     11  C   UNL     1       3.602   4.869  19.458  0.00  0.00    +0.000 A 
ATOM     12  H   UNL     1       4.308   1.428  20.828  0.00  0.00    +0.000 HD
ENDROOT
BRANCH   1  13
ATOM     13  C   UNL     1       5.498   4.382  17.753  0.00  0.00    +0.000 C 
BRANCH  13  15
ATOM     14  N   UNL     1       7.027   5.172  19.452  0.00  0.00    +0.000 N 
ATOM     15  C   UNL     1       6.916   4.676  18.160  0.00  0.00    +0.000 C 
ATOM     16  O   UNL     1       7.867   4.515  17.398  0.00  0.00    +0.000 OA
ATOM     17  H   UNL     1       6.191   5.289  20.028  0.00  0.00    +0.000 HD
BRANCH  14  18
ATOM     18  N   UNL     1       8.293   5.463  19.988  0.00  0.00    +0.000 NA
ATOM     19  H   UNL     1       8.775   6.116  19.367  0.00  0.00    +0.000 HD
ATOM     20  H   UNL     1       8.848   4.596  19.952  0.00  0.00    +0.000 HD
ENDBRANCH  14  18
ENDBRANCH  13  15
ENDBRANCH   1  13
TORSDOF 3
ENDMDL
MODEL 4
REMARK VINA RESULT:      -7.2      2.375      3.150
REMARK  Name = 
REMARK  3 active torsions:
REMARK  status: ('A' for Active; 'I' for Inactive)
REMARK    1  A    between atoms: N_1  and  N_2
REMARK    2  A    between atoms: C_3  and  C_5
REMARK    3  A    between atoms: C_5  and  C_6
REMARK                            x       y       z     vdW  Elec       q    Type
REMARK                         _______ _______ _______ _____ _____    ______ ____
ROOT
ATOM      1  C   UNL     1       3.919   4.947  17.782  0.00  0.00    +0.000 A 
ATOM      2  N   UNL     1       4.700   4.121  17.149  0.00  0.00    +0.000 NA
ATOM      3  N   UNL     1       4.611   2.798  17.448  0.00  0.00    +0.000 N 
ATOM      4  C   UNL     1       3.703   2.224  18.302  0.00  0.00    +0.000 A 
ATOM      5  O   UNL     1       3.617   1.013  18.451  0.00  0.00    +0.000 OA
ATOM      6  C   UNL     1       2.843   3.149  19.056  0.00  0.00    +0.000 A 
ATOM      7  C   UNL     1       1.931   2.658  19.999  0.00  0.00    +0.000 A 
ATOM      8  C   UNL     1       1.174   3.549  20.758  0.00  0.00    +0.000 A 
ATOM      9  C   UNL     1       1.339   4.923  20.585  0.00  0.00    +0.000 A 
ATOM     10  C   UNL     1       2.238   5.412  19.631  0.00  0.00    +0.000 A 
ATOM     11  C   UNL     1       2.978   4.520  18.847  0.00  0.00    +0.000 A 
ATOM     12  H   UNL     1       5.215   2.169  16.928  0.00  0.00    +0.000 HD
ENDROOT
BRANCH   1  13
ATOM     13  C   UNL     1       4.005   6.403  17.384  0.00  0.00    +0.000 C 
BRANCH  13  15
ATOM     14  N   UNL     1       6.399   6.732  17.291  0.00  0.00    +0.000 N 
ATOM     15  C   UNL     1       5.225   6.685  16.551  0.00  0.00    +0.000 C 
ATOM     16  O   UNL     1       5.164   6.883  15.339  0.00  0.00    +0.000 OA
ATOM     17  H   UNL     1       6.374   6.565  18.299  0.00  0.00    +0.000 HD
BRANCH  14  18
ATOM     18  N   UNL     1       7.628   6.954  16.647  0.00  0.00    +0.000 NA
ATOM     19  H   UNL     1       7.513   7.702  15.961  0.00  0.00    +0.000 HD
ATOM     20  H   UNL     1       7.842   6.111  16.096  0.00  0.00    +0.000 HD
ENDBRANCH  14  18
ENDBRANCH  13  15
ENDBRANCH   1  13
TORSDOF 3
ENDMDL
MODEL 5
REMARK VINA RESULT:      -7.1      2.025      2.793
REMARK  Name = 
REMARK  3 active torsions:
REMARK  status: ('A' for Active; 'I' for Inactive)
REMARK    1  A    between atoms: N_1  and  N_2
REMARK    2  A    between atoms: C_3  and  C_5
REMARK    3  A    between atoms: C_5  and  C_6
REMARK                            x       y       z     vdW  Elec       q    Type
REMARK                         _______ _______ _______ _____ _____    ______ ____
ROOT
ATOM      1  C   UNL     1       4.253   4.445  17.268  0.00  0.00    +0.000 A 
ATOM      2  N   UNL     1       4.392   3.180  16.997  0.00  0.00    +0.000 NA
ATOM      3  N   UNL     1       3.674   2.286  17.728  0.00  0.00    +0.000 N 
ATOM      4  C   UNL     1       2.737   2.593  18.681  0.00  0.00    +0.000 A 
ATOM      5  O   UNL     1       2.058   1.738  19.234  0.00  0.00    +0.000 OA
ATOM      6  C   UNL     1       2.601   4.016  19.028  0.00  0.00    +0.000 A 
ATOM      7  C   UNL     1       1.716   4.419  20.037  0.00  0.00    +0.000 A 
ATOM      8  C   UNL     1       1.650   5.761  20.404  0.00  0.00    +0.000 A 
ATOM      9  C   UNL     1       2.476   6.694  19.778  0.00  0.00    +0.000 A 
ATOM     10  C   UNL     1       3.348   6.294  18.759  0.00  0.00    +0.000 A 
ATOM     11  C   UNL     1       3.395   4.951  18.367  0.00  0.00    +0.000 A 
ATOM     12  H   UNL     1       3.781   1.306  17.486  0.00  0.00    +0.000 HD
ENDROOT
BRANCH   1  13
ATOM     13  C   UNL     1       5.023   5.414  16.398  0.00  0.00    +0.000 C 
BRANCH  13  15
ATOM     14  N   UNL     1       6.914   4.478  17.581  0.00  0.00    +0.000 N 
ATOM     15  C   UNL     1       6.503   5.147  16.435  0.00  0.00    +0.000 C 
ATOM     16  O   UNL     1       7.262   5.519  15.543  0.00  0.00    +0.000 OA
ATOM     17  H   UNL     1       6.227   4.205  18.287  0.00  0.00    +0.000 HD
BRANCH  14  18
ATOM     18  N   UNL     1       8.264   4.127  17.744  0.00  0.00    +0.000 NA
ATOM     19  H   UNL     1       8.319   3.176  18.114  0.00  0.00    +0.000 HD
ATOM     20  H   UNL     1       8.650   4.729  18.484  0.00  0.00    +0.000 HD
ENDBRANCH  14  18
ENDBRANCH  13  15
ENDBRANCH   1  13
TORSDOF 3
ENDMDL
MODEL 6
REMARK VINA RESULT:      -7.1      1.470      1.492
REMARK  Name = 
REMARK  3 active torsions:
REMARK  status: ('A' for Active; 'I' for Inactive)
REMARK    1  A    between atoms: N_1  and  N_2
REMARK    2  A    between atoms: C_3  and  C_5
REMARK    3  A    between atoms: C_5  and  C_6
REMARK                            x       y       z     vdW  Elec       q    Type
REMARK                         _______ _______ _______ _____ _____    ______ ____
ROOT
ATOM      1  C   UNL     1       4.693   4.827  16.650  0.00  0.00    +0.000 A 
ATOM      2  N   UNL     1       4.977   6.093  16.549  0.00  0.00    +0.000 NA
ATOM      3  N   UNL     1       4.209   6.978  17.239  0.00  0.00    +0.000 N 
ATOM      4  C   UNL     1       3.203   6.660  18.115  0.00  0.00    +0.000 A 
ATOM      5  O   UNL     1       2.616   7.505  18.776  0.00  0.00    +0.000 OA
ATOM      6  C   UNL     1       2.843   5.236  18.207  0.00  0.00    +0.000 A 
ATOM      7  C   UNL     1       1.785   4.823  19.026  0.00  0.00    +0.000 A 
ATOM      8  C   UNL     1       1.409   3.482  19.048  0.00  0.00    +0.000 A 
ATOM      9  C   UNL     1       2.078   2.560  18.243  0.00  0.00    +0.000 A 
ATOM     10  C   UNL     1       3.146   2.970  17.438  0.00  0.00    +0.000 A 
ATOM     11  C   UNL     1       3.545   4.311  17.436  0.00  0.00    +0.000 A 
ATOM     12  H   UNL     1       4.460   7.959  17.163  0.00  0.00    +0.000 HD
ENDROOT
BRANCH   1  13
ATOM     13  C   UNL     1       5.602   3.867  15.915  0.00  0.00    +0.000 C 
BRANCH  13  15
ATOM     14  N   UNL     1       7.030   4.998  14.324  0.00  0.00    +0.000 N 
ATOM     15  C   UNL     1       6.940   4.483  15.611  0.00  0.00    +0.000 C 
ATOM     16  O   UNL     1       7.861   4.492  16.425  0.00  0.00    +0.000 OA
ATOM     17  H   UNL     1       6.225   4.949  13.697  0.00  0.00    +0.000 HD
BRANCH  14  18
ATOM     18  N   UNL     1       8.209   5.636  13.904  0.00  0.00    +0.000 NA
ATOM     19  H   UNL     1       8.212   5.689  12.883  0.00  0.00    +0.000 HD
ATOM     20  H   UNL     1       8.996   5.019  14.146  0.00  0.00    +0.000 HD
ENDBRANCH  14  18
ENDBRANCH  13  15
ENDBRANCH   1  13
TORSDOF 3
ENDMDL
MODEL 7
REMARK VINA RESULT:      -7.1      2.401      2.838
REMARK  Name = 
REMARK  3 active torsions:
REMARK  status: ('A' for Active; 'I' for Inactive)
REMARK    1  A    between atoms: N_1  and  N_2
REMARK    2  A    between atoms: C_3  and  C_5
REMARK    3  A    between atoms: C_5  and  C_6
REMARK                            x       y       z     vdW  Elec       q    Type
REMARK                         _______ _______ _______ _____ _____    ______ ____
ROOT
ATOM      1  C   UNL     1       4.500   4.935  17.891  0.00  0.00    +0.000 A 
ATOM      2  N   UNL     1       5.647   4.693  18.454  0.00  0.00    +0.000 NA
ATOM      3  N   UNL     1       5.723   3.658  19.332  0.00  0.00    +0.000 N 
ATOM      4  C   UNL     1       4.717   2.773  19.624  0.00  0.00    +0.000 A 
ATOM      5  O   UNL     1       4.884   1.806  20.354  0.00  0.00    +0.000 OA
ATOM      6  C   UNL     1       3.403   3.060  19.028  0.00  0.00    +0.000 A 
ATOM      7  C   UNL     1       2.299   2.249  19.321  0.00  0.00    +0.000 A 
ATOM      8  C   UNL     1       1.046   2.575  18.808  0.00  0.00    +0.000 A 
ATOM      9  C   UNL     1       0.893   3.714  18.017  0.00  0.00    +0.000 A 
ATOM     10  C   UNL     1       2.000   4.514  17.711  0.00  0.00    +0.000 A 
ATOM     11  C   UNL     1       3.265   4.173  18.201  0.00  0.00    +0.000 A 
ATOM     12  H   UNL     1       6.633   3.473  19.745  0.00  0.00    +0.000 HD
ENDROOT
BRANCH   1  13
ATOM     13  C   UNL     1       4.465   6.057  16.877  0.00  0.00    +0.000 C 
BRANCH  13  15
ATOM     14  N   UNL     1       6.262   5.389  15.404  0.00  0.00    +0.000 N 
ATOM     15  C   UNL     1       5.828   6.346  16.313  0.00  0.00    +0.000 C 
ATOM     16  O   UNL     1       6.492   7.321  16.657  0.00  0.00    +0.000 OA
ATOM     17  H   UNL     1       5.660   4.597  15.170  0.00  0.00    +0.000 HD
BRANCH  14  18
ATOM     18  N   UNL     1       7.505   5.538  14.765  0.00  0.00    +0.000 NA
ATOM     19  H   UNL     1       8.245   5.524  15.470  0.00  0.00    +0.000 HD
ATOM     20  H   UNL     1       7.532   6.485  14.364  0.00  0.00    +0.000 HD
ENDBRANCH  14  18
ENDBRANCH  13  15
ENDBRANCH   1  13
TORSDOF 3
ENDMDL
MODEL 8
REMARK VINA RESULT:      -7.0      2.341      3.093
REMARK  Name = 
REMARK  3 active torsions:
REMARK  status: ('A' for Active; 'I' for Inactive)
REMARK    1  A    between atoms: N_1  and  N_2
REMARK    2  A    between atoms: C_3  and  C_5
REMARK    3  A    between atoms: C_5  and  C_6
REMARK                            x       y       z     vdW  Elec       q    Type
REMARK                         _______ _______ _______ _____ _____    ______ ____
ROOT
ATOM      1  C   UNL     1       4.575   4.926  17.890  0.00  0.00    +0.000 A 
ATOM      2  N   UNL     1       5.072   3.868  17.317  0.00  0.00    +0.000 NA
ATOM      3  N   UNL     1       4.488   2.667  17.573  0.00  0.00    +0.000 N 
ATOM      4  C   UNL     1       3.355   2.465  18.319  0.00  0.00    +0.000 A 
ATOM      5  O   UNL     1       2.829   1.367  18.429  0.00  0.00    +0.000 OA
ATOM      6  C   UNL     1       2.807   3.645  19.006  0.00  0.00    +0.000 A 
ATOM      7  C   UNL     1       1.690   3.523  19.842  0.00  0.00    +0.000 A 
ATOM      8  C   UNL     1       1.226   4.634  20.543  0.00  0.00    +0.000 A 
ATOM      9  C   UNL     1       1.885   5.857  20.421  0.00  0.00    +0.000 A 
ATOM     10  C   UNL     1       2.991   5.982  19.573  0.00  0.00    +0.000 A 
ATOM     11  C   UNL     1       3.442   4.875  18.845  0.00  0.00    +0.000 A 
ATOM     12  H   UNL     1       4.879   1.858  17.100  0.00  0.00    +0.000 HD
ENDROOT
BRANCH   1  13
ATOM     13  C   UNL     1       5.214   6.251  17.538  0.00  0.00    +0.000 C 
BRANCH  13  15
ATOM     14  N   UNL     1       7.017   5.659  16.040  0.00  0.00    +0.000 N 
ATOM     15  C   UNL     1       5.766   6.254  16.139  0.00  0.00    +0.000 C 
ATOM     16  O   UNL     1       5.167   6.765  15.196  0.00  0.00    +0.000 OA
ATOM     17  H   UNL     1       7.461   5.261  16.870  0.00  0.00    +0.000 HD
BRANCH  14  18
ATOM     18  N   UNL     1       7.649   5.556  14.790  0.00  0.00    +0.000 NA
ATOM     19  H   UNL     1       8.465   4.946  14.879  0.00  0.00    +0.000 HD
ATOM     20  H   UNL     1       8.029   6.484  14.560  0.00  0.00    +0.000 HD
ENDBRANCH  14  18
ENDBRANCH  13  15
ENDBRANCH   1  13
TORSDOF 3
ENDMDL
MODEL 9
REMARK VINA RESULT:      -7.0      2.864      4.899
REMARK  Name = 
REMARK  3 active torsions:
REMARK  status: ('A' for Active; 'I' for Inactive)
REMARK    1  A    between atoms: N_1  and  N_2
REMARK    2  A    between atoms: C_3  and  C_5
REMARK    3  A    between atoms: C_5  and  C_6
REMARK                            x       y       z     vdW  Elec       q    Type
REMARK                         _______ _______ _______ _____ _____    ______ ____
ROOT
ATOM      1  C   UNL     1       5.135   4.095  18.678  0.00  0.00    +0.000 A 
ATOM      2  N   UNL     1       5.710   4.584  19.738  0.00  0.00    +0.000 NA
ATOM      3  N   UNL     1       6.749   5.443  19.564  0.00  0.00    +0.000 N 
ATOM      4  C   UNL     1       7.206   5.922  18.362  0.00  0.00    +0.000 A 
ATOM      5  O   UNL     1       8.085   6.769  18.285  0.00  0.00    +0.000 OA
ATOM      6  C   UNL     1       6.594   5.346  17.155  0.00  0.00    +0.000 A 
ATOM      7  C   UNL     1       7.041   5.726  15.883  0.00  0.00    +0.000 A 
ATOM      8  C   UNL     1       6.503   5.119  14.751  0.00  0.00    +0.000 A 
ATOM      9  C   UNL     1       5.534   4.125  14.890  0.00  0.00    +0.000 A 
ATOM     10  C   UNL     1       5.076   3.758  16.160  0.00  0.00    +0.000 A 
ATOM     11  C   UNL     1       5.593   4.387  17.298  0.00  0.00    +0.000 A 
ATOM     12  H   UNL     1       7.170   5.829  20.403  0.00  0.00    +0.000 HD
ENDROOT
BRANCH   1  13
ATOM     13  C   UNL     1       3.948   3.188  18.908  0.00  0.00    +0.000 C 
BRANCH  13  15
ATOM     14  N   UNL     1       5.192   1.748  20.400  0.00  0.00    +0.000 N 
ATOM     15  C   UNL     1       4.027   2.485  20.236  0.00  0.00    +0.000 C 
ATOM     16  O   UNL     1       3.124   2.545  21.068  0.00  0.00    +0.000 OA
ATOM     17  H   UNL     1       5.898   1.737  19.661  0.00  0.00    +0.000 HD
BRANCH  14  18
ATOM     18  N   UNL     1       5.427   1.062  21.604  0.00  0.00    +0.000 NA
ATOM     19  H   UNL     1       5.741   1.730  22.311  0.00  0.00    +0.000 HD
ATOM     20  H   UNL     1       6.227   0.435  21.449  0.00  0.00    +0.000 HD
ENDBRANCH  14  18
ENDBRANCH  13  15
ENDBRANCH   1  13
TORSDOF 3
ENDMDL
