MODEL 1
REMARK VINA RESULT:      -7.4      0.000      0.000
REMARK  Name = 
REMARK  12 active torsions:
REMARK  status: ('A' for Active; 'I' for Inactive)
REMARK    1  A    between atoms: C_1  and  C_2
REMARK    2  A    between atoms: C_5  and  O_6
REMARK    3  A    between atoms: O_6  and  C_7
REMARK    4  A    between atoms: C_12  and  C_13
REMARK    5  A    between atoms: N_15  and  C_16
REMARK    6  A    between atoms: N_15  and  C_17
REMARK    7  A    between atoms: C_17  and  C_18
REMARK    8  A    between atoms: C_18  and  C_19
REMARK    9  A    between atoms: C_19  and  N_20
REMARK   10  A    between atoms: N_20  and  C_21
REMARK   11  A    between atoms: N_20  and  C_22
REMARK   12  A    between atoms: C_23  and  C_24
REMARK                            x       y       z     vdW  Elec       q    Type
REMARK                         _______ _______ _______ _____ _____    ______ ____
ROOT
ATOM      1  C   UNL     1       3.036   5.976  17.840  0.00  0.00    +0.000 A 
ATOM      2  N   UNL     1       1.977   5.213  18.222  0.00  0.00    +0.000 NA
ATOM      3  C   UNL     1       1.981   3.907  17.874  0.00  0.00    +0.000 A 
ATOM      4  C   UNL     1       3.010   3.316  17.184  0.00  0.00    +0.000 A 
ATOM      5  C   UNL     1       4.126   4.098  16.878  0.00  0.00    +0.000 A 
ATOM      6  C   UNL     1       4.193   5.458  17.245  0.00  0.00    +0.000 A 
ENDROOT
BRANCH   6   7
ATOM      7  C   UNL     1       5.407   6.205  16.843  0.00  0.00    +0.000 C 
ATOM      8  O   UNL     1       5.386   6.693  15.706  0.00  0.00    +0.000 OA
ATOM      9  N   UNL     1       6.547   6.362  17.646  0.00  0.00    +0.000 N 
ATOM     10  C   UNL     1       6.824   5.696  18.903  0.00  0.00    +0.000 C 
BRANCH   9  11
ATOM     11  C   UNL     1       7.624   7.243  17.192  0.00  0.00    +0.000 C 
BRANCH  11  12
ATOM     12  C   UNL     1       8.229   8.130  18.282  0.00  0.00    +0.000 C 
BRANCH  12  13
ATOM     13  C   UNL     1       8.163   9.634  17.985  0.00  0.00    +0.000 C 
BRANCH  13  14
ATOM     14  N   UNL     1       9.311  10.423  18.474  0.00  0.00    +0.000 NA
ATOM     15  C   UNL     1       9.311  11.785  17.939  0.00  0.00    +0.000 C 
ATOM     16  C   UNL     1       9.285  10.468  19.939  0.00  0.00    +0.000 C 
ENDBRANCH  13  14
ENDBRANCH  12  13
ENDBRANCH  11  12
ENDBRANCH   9  11
ENDBRANCH   6   7
BRANCH   1  17
ATOM     17  O   UNL     1       2.941   7.347  18.042  0.00  0.00    +0.000 OA
BRANCH  17  22
ATOM     18  C   UNL     1      -0.353   9.215  22.274  0.00  0.00    +0.000 C 
ATOM     19  C   UNL     1       0.574   8.739  21.191  0.00  0.00    +0.000 A 
ATOM     20  C   UNL     1       1.270   7.543  21.326  0.00  0.00    +0.000 A 
ATOM     21  C   UNL     1       2.079   7.081  20.293  0.00  0.00    +0.000 A 
ATOM     22  C   UNL     1       2.229   7.837  19.123  0.00  0.00    +0.000 A 
ATOM     23  C   UNL     1       1.557   9.059  18.981  0.00  0.00    +0.000 A 
ATOM     24  C   UNL     1       1.657   9.952  17.781  0.00  0.00    +0.000 C 
ATOM     25  C   UNL     1       0.724   9.492  20.023  0.00  0.00    +0.000 A 
ENDBRANCH  17  22
ENDBRANCH   1  17
TORSDOF 7
ENDMDL
MODEL 2
REMARK VINA RESULT:      -7.3      1.326      2.259
REMARK  Name = 
REMARK  12 active torsions:
REMARK  status: ('A' for Active; 'I' for Inactive)
REMARK    1  A    between atoms: C_1  and  C_2
REMARK    2  A    between atoms: C_5  and  O_6
REMARK    3  A    between atoms: O_6  and  C_7
REMARK    4  A    between atoms: C_12  and  C_13
REMARK    5  A    between atoms: N_15  and  C_16
REMARK    6  A    between atoms: N_15  and  C_17
REMARK    7  A    between atoms: C_17  and  C_18
REMARK    8  A    between atoms: C_18  and  C_19
REMARK    9  A    between atoms: C_19  and  N_20
REMARK   10  A    between atoms: N_20  and  C_21
REMARK   11  A    between atoms: N_20  and  C_22
REMARK   12  A    between atoms: C_23  and  C_24
REMARK                            x       y       z     vdW  Elec       q    Type
REMARK                         _______ _______ _______ _____ _____    ______ ____
ROOT
ATOM      1  C   UNL     1       3.000   5.409  18.998  0.00  0.00    +0.000 A 
ATOM      2  N   UNL     1       1.792   4.808  18.821  0.00  0.00    +0.000 NA
ATOM      3  C   UNL     1       1.724   3.771  17.957  0.00  0.00    +0.000 A 
ATOM      4  C   UNL     1       2.813   3.284  17.279  0.00  0.00    +0.000 A 
ATOM      5  C   UNL     1       4.058   3.860  17.542  0.00  0.00    +0.000 A 
ATOM      6  C   UNL     1       4.197   4.922  18.459  0.00  0.00    +0.000 A 
ENDROOT
BRANCH   6   7
ATOM      7  C   UNL     1       5.556   5.483  18.639  0.00  0.00    +0.000 C 
ATOM      8  O   UNL     1       6.133   5.168  19.689  0.00  0.00    +0.000 OA
ATOM      9  N   UNL     1       6.192   6.339  17.727  0.00  0.00    +0.000 N 
ATOM     10  C   UNL     1       5.596   6.966  16.564  0.00  0.00    +0.000 C 
BRANCH   9  11
ATOM     11  C   UNL     1       7.590   6.709  17.950  0.00  0.00    +0.000 C 
BRANCH  11  12
ATOM     12  C   UNL     1       7.895   8.197  17.771  0.00  0.00    +0.000 C 
BRANCH  12  13
ATOM     13  C   UNL     1       8.779   8.801  18.871  0.00  0.00    +0.000 C 
BRANCH  13  14
ATOM     14  N   UNL     1       8.769  10.274  18.949  0.00  0.00    +0.000 NA
ATOM     15  C   UNL     1       9.332  10.764  20.207  0.00  0.00    +0.000 C 
ATOM     16  C   UNL     1       9.524  10.829  17.821  0.00  0.00    +0.000 C 
ENDBRANCH  13  14
ENDBRANCH  12  13
ENDBRANCH  11  12
ENDBRANCH   9  11
ENDBRANCH   6   7
BRANCH   1  17
ATOM     17  O   UNL     1       3.026   6.580  19.744  0.00  0.00    +0.000 OA
BRANCH  17  22
ATOM     18  C   UNL     1       0.196  11.300  18.343  0.00  0.00    +0.000 C 
ATOM     19  C   UNL     1       0.900  10.014  18.675  0.00  0.00    +0.000 A 
ATOM     20  C   UNL     1       1.724   9.393  17.743  0.00  0.00    +0.000 A 
ATOM     21  C   UNL     1       2.420   8.237  18.081  0.00  0.00    +0.000 A 
ATOM     22  C   UNL     1       2.264   7.666  19.351  0.00  0.00    +0.000 A 
ATOM     23  C   UNL     1       1.416   8.263  20.294  0.00  0.00    +0.000 A 
ATOM     24  C   UNL     1       1.166   7.730  21.673  0.00  0.00    +0.000 C 
ATOM     25  C   UNL     1       0.748   9.444  19.943  0.00  0.00    +0.000 A 
ENDBRANCH  17  22
ENDBRANCH   1  17
TORSDOF 7
ENDMDL
MODEL 3
REMARK VINA RESULT:      -7.2      2.902      6.776
REMARK  Name = 
REMARK  12 active torsions:
REMARK  status: ('A' for Active; 'I' for Inactive)
REMARK    1  A    between atoms: C_1  and  C_2
REMARK    2  A    between atoms: C_5  and  O_6
REMARK    3  A    between atoms: O_6  and  C_7
REMARK    4  A    between atoms: C_12  and  C_13
REMARK    5  A    between atoms: N_15  and  C_16
REMARK    6  A    between atoms: N_15  and  C_17
REMARK    7  A    between atoms: C_17  and  C_18
REMARK    8  A    between atoms: C_18  and  C_19
REMARK    9  A    between atoms: C_19  and  N_20
REMARK   10  A    between atoms: N_20  and  C_21
REMARK   11  A    between atoms: N_20  and  C_22
REMARK   12  A    between atoms: C_23  and  C_24
REMARK                            x       y       z     vdW  Elec       q    Type
REMARK                         _______ _______ _______ _____ _____    ______ ____
ROOT
ATOM      1  C   UNL     1       3.682   4.764  19.637  0.00  0.00    +0.000 A 
ATOM      2  N   UNL     1       3.799   3.473  20.051  0.00  0.00    +0.000 NA
ATOM      3  C   UNL     1       2.729   2.903  20.648  0.00  0.00    +0.000 A 
ATOM      4  C   UNL     1       1.534   3.552  20.829  0.00  0.00    +0.000 A 
ATOM      5  C   UNL     1       1.409   4.846  20.318  0.00  0.00    +0.000 A 
ATOM      6  C   UNL     1       2.480   5.480  19.655  0.00  0.00    +0.000 A 
ENDROOT
BRANCH   6   7
ATOM      7  C   UNL     1       2.253   6.866  19.182  0.00  0.00    +0.000 C 
ATOM      8  O   UNL     1       2.489   7.070  17.984  0.00  0.00    +0.000 OA
ATOM      9  N   UNL     1       1.822   7.924  19.997  0.00  0.00    +0.000 N 
ATOM     10  C   UNL     1       1.698   7.915  21.440  0.00  0.00    +0.000 C 
BRANCH   9  11
ATOM     11  C   UNL     1       1.497   9.211  19.381  0.00  0.00    +0.000 C 
BRANCH  11  12
ATOM     12  C   UNL     1       0.314   9.944  20.015  0.00  0.00    +0.000 C 
BRANCH  12  13
ATOM     13  C   UNL     1       0.621  11.381  20.458  0.00  0.00    +0.000 C 
BRANCH  13  14
ATOM     14  N   UNL     1       0.287  11.692  21.862  0.00  0.00    +0.000 NA
ATOM     15  C   UNL     1      -0.364  12.996  21.998  0.00  0.00    +0.000 C 
ATOM     16  C   UNL     1      -0.586  10.645  22.401  0.00  0.00    +0.000 C 
ENDBRANCH  13  14
ENDBRANCH  12  13
ENDBRANCH  11  12
ENDBRANCH   9  11
ENDBRANCH   6   7
BRANCH   1  17
ATOM     17  O   UNL     1       4.835   5.397  19.190  0.00  0.00    +0.000 OA
BRANCH  17  22
ATOM     18  C   UNL     1       6.816   4.290  13.984  0.00  0.00    +0.000 C 
ATOM     19  C   UNL     1       6.253   4.634  15.335  0.00  0.00    +0.000 A 
ATOM     20  C   UNL     1       4.957   4.266  15.680  0.00  0.00    +0.000 A 
ATOM     21  C   UNL     1       4.467   4.535  16.954  0.00  0.00    +0.000 A 
ATOM     22  C   UNL     1       5.262   5.214  17.887  0.00  0.00    +0.000 A 
ATOM     23  C   UNL     1       6.560   5.618  17.546  0.00  0.00    +0.000 A 
ATOM     24  C   UNL     1       7.489   6.361  18.460  0.00  0.00    +0.000 C 
ATOM     25  C   UNL     1       7.045   5.311  16.267  0.00  0.00    +0.000 A 
ENDBRANCH  17  22
ENDBRANCH   1  17
TORSDOF 7
ENDMDL
MODEL 4
REMARK VINA RESULT:      -7.2      1.998      2.995
REMARK  Name = 
REMARK  12 active torsions:
REMARK  status: ('A' for Active; 'I' for Inactive)
REMARK    1  A    between atoms: C_1  and  C_2
REMARK    2  A    between atoms: C_5  and  O_6
REMARK    3  A    between atoms: O_6  and  C_7
REMARK    4  A    between atoms: C_12  and  C_13
REMARK    5  A    between atoms: N_15  and  C_16
REMARK    6  A    between atoms: N_15  and  C_17
REMARK    7  A    between atoms: C_17  and  C_18
REMARK    8  A    between atoms: C_18  and  C_19
REMARK    9  A    between atoms: C_19  and  N_20
REMARK   10  A    between atoms: N_20  and  C_21
REMARK   11  A    between atoms: N_20  and  C_22
REMARK   12  A    between atoms: C_23  and  C_24
REMARK                            x       y       z     vdW  Elec       q    Type
REMARK                         _______ _______ _______ _____ _____    ______ ____
ROOT
ATOM      1  C   UNL     1       2.653   4.947  19.860  0.00  0.00    +0.000 A 
ATOM      2  N   UNL     1       1.431   4.814  20.445  0.00  0.00    +0.000 NA
ATOM      3  C   UNL     1       0.792   3.631  20.310  0.00  0.00    +0.000 A 
ATOM      4  C   UNL     1       1.327   2.560  19.639  0.00  0.00    +0.000 A 
ATOM      5  C   UNL     1       2.617   2.690  19.121  0.00  0.00    +0.000 A 
ATOM      6  C   UNL     1       3.347   3.889  19.261  0.00  0.00    +0.000 A 
ENDROOT
BRANCH   6   7
ATOM      7  C   UNL     1       4.694   3.933  18.645  0.00  0.00    +0.000 C 
ATOM      8  O   UNL     1       5.647   3.885  19.433  0.00  0.00    +0.000 OA
ATOM      9  N   UNL     1       4.935   4.047  17.267  0.00  0.00    +0.000 N 
ATOM     10  C   UNL     1       3.958   4.319  16.233  0.00  0.00    +0.000 C 
BRANCH   9  11
ATOM     11  C   UNL     1       6.308   3.935  16.773  0.00  0.00    +0.000 C 
BRANCH  11  12
ATOM     12  C   UNL     1       6.851   5.197  16.099  0.00  0.00    +0.000 C 
BRANCH  12  13
ATOM     13  C   UNL     1       6.658   6.484  16.913  0.00  0.00    +0.000 C 
BRANCH  13  14
ATOM     14  N   UNL     1       7.870   6.990  17.586  0.00  0.00    +0.000 NA
ATOM     15  C   UNL     1       7.870   8.449  17.697  0.00  0.00    +0.000 C 
ATOM     16  C   UNL     1       7.974   6.394  18.922  0.00  0.00    +0.000 C 
ENDBRANCH  13  14
ENDBRANCH  12  13
ENDBRANCH  11  12
ENDBRANCH   9  11
ENDBRANCH   6   7
BRANCH   1  17
ATOM     17  O   UNL     1       3.220   6.214  19.849  0.00  0.00    +0.000 OA
BRANCH  17  22
ATOM     18  C   UNL     1      -0.409  10.547  19.293  0.00  0.00    +0.000 C 
ATOM     19  C   UNL     1       0.593   9.442  19.478  0.00  0.00    +0.000 A 
ATOM     20  C   UNL     1       0.702   8.777  20.693  0.00  0.00    +0.000 A 
ATOM     21  C   UNL     1       1.590   7.715  20.835  0.00  0.00    +0.000 A 
ATOM     22  C   UNL     1       2.409   7.333  19.764  0.00  0.00    +0.000 A 
ATOM     23  C   UNL     1       2.333   8.011  18.541  0.00  0.00    +0.000 A 
ATOM     24  C   UNL     1       3.171   7.696  17.338  0.00  0.00    +0.000 C 
ATOM     25  C   UNL     1       1.411   9.059  18.410  0.00  0.00    +0.000 A 
ENDBRANCH  17  22
ENDBRANCH   1  17
TORSDOF 7
ENDMDL
MODEL 5
REMARK VINA RESULT:      -7.2      2.265      3.619
REMARK  Name = 
REMARK  12 active torsions:
REMARK  status: ('A' for Active; 'I' for Inactive)
REMARK    1  A    between atoms: C_1  and  C_2
REMARK    2  A    between atoms: C_5  and  O_6
REMARK    3  A    between atoms: O_6  and  C_7
REMARK    4  A    between atoms: C_12  and  C_13
REMARK    5  A    between atoms: N_15  and  C_16
REMARK    6  A    between atoms: N_15  and  C_17
REMARK    7  A    between atoms: C_17  and  C_18
REMARK    8  A    between atoms: C_18  and  C_19
REMARK    9  A    between atoms: C_19  and  N_20
REMARK   10  A    between atoms: N_20  and  C_21
REMARK   11  A    between atoms: N_20  and  C_22
REMARK   12  A    between atoms: C_23  and  C_24
REMARK                            x       y       z     vdW  Elec       q    Type
REMARK                         _______ _______ _______ _____ _____    ______ ____
ROOT
ATOM      1  C   UNL     1       5.277   5.119  17.191  0.00  0.00    +0.000 A 
ATOM      2  N   UNL     1       4.597   4.343  16.304  0.00  0.00    +0.000 NA
ATOM      3  C   UNL     1       5.277   3.851  15.245  0.00  0.00    +0.000 A 
ATOM      4  C   UNL     1       6.615   4.074  15.041  0.00  0.00    +0.000 A 
ATOM      5  C   UNL     1       7.312   4.801  16.010  0.00  0.00    +0.000 A 
ATOM      6  C   UNL     1       6.663   5.311  17.153  0.00  0.00    +0.000 A 
ENDROOT
BRANCH   6   7
ATOM      7  C   UNL     1       7.487   6.096  18.101  0.00  0.00    +0.000 C 
ATOM      8  O   UNL     1       8.025   5.450  19.009  0.00  0.00    +0.000 OA
ATOM      9  N   UNL     1       7.663   7.487  18.038  0.00  0.00    +0.000 N 
ATOM     10  C   UNL     1       6.954   8.416  17.181  0.00  0.00    +0.000 C 
BRANCH   9  11
ATOM     11  C   UNL     1       8.616   8.126  18.946  0.00  0.00    +0.000 C 
BRANCH  11  12
ATOM     12  C   UNL     1       8.911   9.595  18.635  0.00  0.00    +0.000 C 
BRANCH  12  13
ATOM     13  C   UNL     1       9.515  10.383  19.806  0.00  0.00    +0.000 C 
BRANCH  13  14
ATOM     14  N   UNL     1       9.892  11.776  19.499  0.00  0.00    +0.000 NA
ATOM     15  C   UNL     1      11.176  12.145  20.096  0.00  0.00    +0.000 C 
ATOM     16  C   UNL     1       9.954  11.958  18.045  0.00  0.00    +0.000 C 
ENDBRANCH  13  14
ENDBRANCH  12  13
ENDBRANCH  11  12
ENDBRANCH   9  11
ENDBRANCH   6   7
BRANCH   1  17
ATOM     17  O   UNL     1       4.536   5.765  18.172  0.00  0.00    +0.000 OA
BRANCH  17  22
ATOM     18  C   UNL     1       1.453   2.654  21.787  0.00  0.00    +0.000 C 
ATOM     19  C   UNL     1       2.318   3.482  20.879  0.00  0.00    +0.000 A 
ATOM     20  C   UNL     1       3.424   2.924  20.247  0.00  0.00    +0.000 A 
ATOM     21  C   UNL     1       4.183   3.682  19.360  0.00  0.00    +0.000 A 
ATOM     22  C   UNL     1       3.862   5.026  19.128  0.00  0.00    +0.000 A 
ATOM     23  C   UNL     1       2.768   5.613  19.778  0.00  0.00    +0.000 A 
ATOM     24  C   UNL     1       2.346   7.042  19.614  0.00  0.00    +0.000 C 
ATOM     25  C   UNL     1       1.999   4.823  20.645  0.00  0.00    +0.000 A 
ENDBRANCH  17  22
ENDBRANCH   1  17
TORSDOF 7
ENDMDL
MODEL 6
REMARK VINA RESULT:      -7.2      2.856      7.048
REMARK  Name = 
REMARK  12 active torsions:
REMARK  status: ('A' for Active; 'I' for Inactive)
REMARK    1  A    between atoms: C_1  and  C_2
REMARK    2  A    between atoms: C_5  and  O_6
REMARK    3  A    between atoms: O_6  and  C_7
REMARK    4  A    between atoms: C_12  and  C_13
REMARK    5  A    between atoms: N_15  and  C_16
REMARK    6  A    between atoms: N_15  and  C_17
REMARK    7  A    between atoms: C_17  and  C_18
REMARK    8  A    between atoms: C_18  and  C_19
REMARK    9  A    between atoms: C_19  and  N_20
REMARK   10  A    between atoms: N_20  and  C_21
REMARK   11  A    between atoms: N_20  and  C_22
REMARK   12  A    between atoms: C_23  and  C_24
REMARK                            x       y       z     vdW  Elec       q    Type
REMARK                         _______ _______ _______ _____ _____    ______ ____
ROOT
ATOM      1  C   UNL     1       3.781   4.866  19.621  0.00  0.00    +0.000 A 
ATOM      2  N   UNL     1       3.887   3.599  20.106  0.00  0.00    +0.000 NA
ATOM      3  C   UNL     1       2.817   3.077  20.745  0.00  0.00    +0.000 A 
ATOM      4  C   UNL     1       1.632   3.751  20.901  0.00  0.00    +0.000 A 
ATOM      5  C   UNL     1       1.517   5.016  20.319  0.00  0.00    +0.000 A 
ATOM      6  C   UNL     1       2.588   5.598  19.610  0.00  0.00    +0.000 A 
ENDROOT
BRANCH   6   7
ATOM      7  C   UNL     1       2.373   6.957  19.062  0.00  0.00    +0.000 C 
ATOM      8  O   UNL     1       2.779   7.141  17.907  0.00  0.00    +0.000 OA
ATOM      9  N   UNL     1       1.776   8.014  19.767  0.00  0.00    +0.000 N 
ATOM     10  C   UNL     1       1.435   8.037  21.175  0.00  0.00    +0.000 C 
BRANCH   9  11
ATOM     11  C   UNL     1       1.490   9.266  19.066  0.00  0.00    +0.000 C 
BRANCH  11  12
ATOM     12  C   UNL     1       0.525  10.203  19.796  0.00  0.00    +0.000 C 
BRANCH  12  13
ATOM     13  C   UNL     1      -0.316  11.093  18.871  0.00  0.00    +0.000 C 
BRANCH  13  14
ATOM     14  N   UNL     1      -1.709  10.651  18.667  0.00  0.00    +0.000 NA
ATOM     15  C   UNL     1      -2.663  11.751  18.811  0.00  0.00    +0.000 C 
ATOM     16  C   UNL     1      -1.843  10.053  17.335  0.00  0.00    +0.000 C 
ENDBRANCH  13  14
ENDBRANCH  12  13
ENDBRANCH  11  12
ENDBRANCH   9  11
ENDBRANCH   6   7
BRANCH   1  17
ATOM     17  O   UNL     1       4.937   5.458  19.128  0.00  0.00    +0.000 OA
BRANCH  17  22
ATOM     18  C   UNL     1       6.774   4.210  13.901  0.00  0.00    +0.000 C 
ATOM     19  C   UNL     1       6.245   4.587  15.256  0.00  0.00    +0.000 A 
ATOM     20  C   UNL     1       4.993   4.154  15.676  0.00  0.00    +0.000 A 
ATOM     21  C   UNL     1       4.537   4.457  16.956  0.00  0.00    +0.000 A 
ATOM     22  C   UNL     1       5.322   5.235  17.817  0.00  0.00    +0.000 A 
ATOM     23  C   UNL     1       6.575   5.705  17.400  0.00  0.00    +0.000 A 
ATOM     24  C   UNL     1       7.487   6.554  18.233  0.00  0.00    +0.000 C 
ATOM     25  C   UNL     1       7.027   5.363  16.117  0.00  0.00    +0.000 A 
ENDBRANCH  17  22
ENDBRANCH   1  17
TORSDOF 7
ENDMDL
MODEL 7
REMARK VINA RESULT:      -7.1      2.440      4.059
REMARK  Name = 
REMARK  12 active torsions:
REMARK  status: ('A' for Active; 'I' for Inactive)
REMARK    1  A    between atoms: C_1  and  C_2
REMARK    2  A    between atoms: C_5  and  O_6
REMARK    3  A    between atoms: O_6  and  C_7
REMARK    4  A    between atoms: C_12  and  C_13
REMARK    5  A    between atoms: N_15  and  C_16
REMARK    6  A    between atoms: N_15  and  C_17
REMARK    7  A    between atoms: C_17  and  C_18
REMARK    8  A    between atoms: C_18  and  C_19
REMARK    9  A    between atoms: C_19  and  N_20
REMARK   10  A    between atoms: N_20  and  C_21
REMARK   11  A    between atoms: N_20  and  C_22
REMARK   12  A    between atoms: C_23  and  C_24
REMARK                            x       y       z     vdW  Elec       q    Type
REMARK                         _______ _______ _______ _____ _____    ______ ____
ROOT
ATOM      1  C   UNL     1       2.251   6.154  19.838  0.00  0.00    +0.000 A 
ATOM      2  N   UNL     1       1.307   5.506  20.574  0.00  0.00    +0.000 NA
ATOM      3  C   UNL     1       0.971   4.251  20.203  0.00  0.00    +0.000 A 
ATOM      4  C   UNL     1       1.552   3.598  19.145  0.00  0.00    +0.000 A 
ATOM      5  C   UNL     1       2.580   4.250  18.459  0.00  0.00    +0.000 A 
ATOM      6  C   UNL     1       2.997   5.547  18.822  0.00  0.00    +0.000 A 
ENDROOT
BRANCH   6   7
ATOM      7  C   UNL     1       4.072   6.161  18.008  0.00  0.00    +0.000 C 
ATOM      8  O   UNL     1       3.698   6.791  17.011  0.00  0.00    +0.000 OA
ATOM      9  N   UNL     1       5.443   6.048  18.285  0.00  0.00    +0.000 N 
ATOM     10  C   UNL     1       6.062   5.191  19.276  0.00  0.00    +0.000 C 
BRANCH   9  11
ATOM     11  C   UNL     1       6.397   6.820  17.488  0.00  0.00    +0.000 C 
BRANCH  11  12
ATOM     12  C   UNL     1       7.202   5.997  16.480  0.00  0.00    +0.000 C 
BRANCH  12  13
ATOM     13  C   UNL     1       6.389   5.490  15.281  0.00  0.00    +0.000 C 
BRANCH  13  14
ATOM     14  N   UNL     1       6.394   4.026  15.091  0.00  0.00    +0.000 NA
ATOM     15  C   UNL     1       5.366   3.362  15.892  0.00  0.00    +0.000 C 
ATOM     16  C   UNL     1       6.191   3.716  13.673  0.00  0.00    +0.000 C 
ENDBRANCH  13  14
ENDBRANCH  12  13
ENDBRANCH  11  12
ENDBRANCH   9  11
ENDBRANCH   6   7
BRANCH   1  17
ATOM     17  O   UNL     1       2.460   7.500  20.113  0.00  0.00    +0.000 OA
BRANCH  17  22
ATOM     18  C   UNL     1      -1.027  11.682  18.500  0.00  0.00    +0.000 C 
ATOM     19  C   UNL     1      -0.151  10.529  18.904  0.00  0.00    +0.000 A 
ATOM     20  C   UNL     1       0.567   9.815  17.952  0.00  0.00    +0.000 A 
ATOM     21  C   UNL     1       1.422   8.789  18.341  0.00  0.00    +0.000 A 
ATOM     22  C   UNL     1       1.537   8.442  19.694  0.00  0.00    +0.000 A 
ATOM     23  C   UNL     1       0.799   9.133  20.665  0.00  0.00    +0.000 A 
ATOM     24  C   UNL     1       0.836   8.836  22.134  0.00  0.00    +0.000 C 
ATOM     25  C   UNL     1      -0.034  10.183  20.253  0.00  0.00    +0.000 A 
ENDBRANCH  17  22
ENDBRANCH   1  17
TORSDOF 7
ENDMDL
MODEL 8
REMARK VINA RESULT:      -7.1      0.905      1.903
REMARK  Name = 
REMARK  12 active torsions:
REMARK  status: ('A' for Active; 'I' for Inactive)
REMARK    1  A    between atoms: C_1  and  C_2
REMARK    2  A    between atoms: C_5  and  O_6
REMARK    3  A    between atoms: O_6  and  C_7
REMARK    4  A    between atoms: C_12  and  C_13
REMARK    5  A    between atoms: N_15  and  C_16
REMARK    6  A    between atoms: N_15  and  C_17
REMARK    7  A    between atoms: C_17  and  C_18
REMARK    8  A    between atoms: C_18  and  C_19
REMARK    9  A    between atoms: C_19  and  N_20
REMARK   10  A    between atoms: N_20  and  C_21
REMARK   11  A    between atoms: N_20  and  C_22
REMARK   12  A    between atoms: C_23  and  C_24
REMARK                            x       y       z     vdW  Elec       q    Type
REMARK                         _______ _______ _______ _____ _____    ______ ____
ROOT
ATOM      1  C   UNL     1       3.060   5.677  18.691  0.00  0.00    +0.000 A 
ATOM      2  N   UNL     1       2.028   4.928  19.167  0.00  0.00    +0.000 NA
ATOM      3  C   UNL     1       1.757   3.760  18.544  0.00  0.00    +0.000 A 
ATOM      4  C   UNL     1       2.486   3.288  17.482  0.00  0.00    +0.000 A 
ATOM      5  C   UNL     1       3.594   4.030  17.066  0.00  0.00    +0.000 A 
ATOM      6  C   UNL     1       3.946   5.240  17.700  0.00  0.00    +0.000 A 
ENDROOT
BRANCH   6   7
ATOM      7  C   UNL     1       5.118   5.967  17.159  0.00  0.00    +0.000 C 
ATOM      8  O   UNL     1       4.997   6.401  16.007  0.00  0.00    +0.000 OA
ATOM      9  N   UNL     1       6.323   6.160  17.853  0.00  0.00    +0.000 N 
ATOM     10  C   UNL     1       6.709   5.554  19.111  0.00  0.00    +0.000 C 
BRANCH   9  11
ATOM     11  C   UNL     1       7.353   7.018  17.266  0.00  0.00    +0.000 C 
BRANCH  11  12
ATOM     12  C   UNL     1       7.971   8.030  18.233  0.00  0.00    +0.000 C 
BRANCH  12  13
ATOM     13  C   UNL     1       8.180   9.430  17.640  0.00  0.00    +0.000 C 
BRANCH  13  14
ATOM     14  N   UNL     1       8.494  10.488  18.619  0.00  0.00    +0.000 NA
ATOM     15  C   UNL     1       9.510  10.065  19.582  0.00  0.00    +0.000 C 
ATOM     16  C   UNL     1       8.953  11.688  17.913  0.00  0.00    +0.000 C 
ENDBRANCH  13  14
ENDBRANCH  12  13
ENDBRANCH  11  12
ENDBRANCH   9  11
ENDBRANCH   6   7
BRANCH   1  17
ATOM     17  O   UNL     1       3.217   6.953  19.219  0.00  0.00    +0.000 OA
BRANCH  17  22
ATOM     18  C   UNL     1      -0.514  11.182  18.551  0.00  0.00    +0.000 C 
ATOM     19  C   UNL     1       0.428  10.019  18.697  0.00  0.00    +0.000 A 
ATOM     20  C   UNL     1       1.141   9.540  17.604  0.00  0.00    +0.000 A 
ATOM     21  C   UNL     1       2.056   8.504  17.762  0.00  0.00    +0.000 A 
ATOM     22  C   UNL     1       2.238   7.909  19.017  0.00  0.00    +0.000 A 
ATOM     23  C   UNL     1       1.507   8.360  20.124  0.00  0.00    +0.000 A 
ATOM     24  C   UNL     1       1.613   7.788  21.506  0.00  0.00    +0.000 C 
ATOM     25  C   UNL     1       0.612   9.425  19.949  0.00  0.00    +0.000 A 
ENDBRANCH  17  22
ENDBRANCH   1  17
TORSDOF 7
ENDMDL
MODEL 9
REMARK VINA RESULT:      -7.1      3.184      7.028
REMARK  Name = 
REMARK  12 active torsions:
REMARK  status: ('A' for Active; 'I' for Inactive)
REMARK    1  A    between atoms: C_1  and  C_2
REMARK    2  A    between atoms: C_5  and  O_6
REMARK    3  A    between atoms: O_6  and  C_7
REMARK    4  A    between atoms: C_12  and  C_13
REMARK    5  A    between atoms: N_15  and  C_16
REMARK    6  A    between atoms: N_15  and  C_17
REMARK    7  A    between atoms: C_17  and  C_18
REMARK    8  A    between atoms: C_18  and  C_19
REMARK    9  A    between atoms: C_19  and  N_20
REMARK   10  A    between atoms: N_20  and  C_21
REMARK   11  A    between atoms: N_20  and  C_22
REMARK   12  A    between atoms: C_23  and  C_24
REMARK                            x       y       z     vdW  Elec       q    Type
REMARK                         _______ _______ _______ _____ _____    ______ ____
ROOT
ATOM      1  C   UNL     1       3.459   5.208  19.670  0.00  0.00    +0.000 A 
ATOM      2  N   UNL     1       3.662   3.865  19.588  0.00  0.00    +0.000 NA
ATOM      3  C   UNL     1       2.696   3.051  20.067  0.00  0.00    +0.000 A 
ATOM      4  C   UNL     1       1.520   3.513  20.601  0.00  0.00    +0.000 A 
ATOM      5  C   UNL     1       1.295   4.891  20.595  0.00  0.00    +0.000 A 
ATOM      6  C   UNL     1       2.252   5.788  20.077  0.00  0.00    +0.000 A 
ENDROOT
BRANCH   6   7
ATOM      7  C   UNL     1       1.928   7.232  20.149  0.00  0.00    +0.000 C 
ATOM      8  O   UNL     1       1.669   7.670  21.278  0.00  0.00    +0.000 OA
ATOM      9  N   UNL     1       1.880   8.093  19.041  0.00  0.00    +0.000 N 
ATOM     10  C   UNL     1       1.951   7.716  17.644  0.00  0.00    +0.000 C 
BRANCH   9  11
ATOM     11  C   UNL     1       1.690   9.527  19.261  0.00  0.00    +0.000 C 
BRANCH  11  12
ATOM     12  C   UNL     1       0.516  10.142  18.497  0.00  0.00    +0.000 C 
BRANCH  12  13
ATOM     13  C   UNL     1      -0.789  10.229  19.302  0.00  0.00    +0.000 C 
BRANCH  13  14
ATOM     14  N   UNL     1      -1.932  10.826  18.585  0.00  0.00    +0.000 NA
ATOM     15  C   UNL     1      -1.583  12.099  17.954  0.00  0.00    +0.000 C 
ATOM     16  C   UNL     1      -2.416   9.887  17.567  0.00  0.00    +0.000 C 
ENDBRANCH  13  14
ENDBRANCH  12  13
ENDBRANCH  11  12
ENDBRANCH   9  11
ENDBRANCH   6   7
BRANCH   1  17
ATOM     17  O   UNL     1       4.525   6.036  19.343  0.00  0.00    +0.000 OA
BRANCH  17  22
ATOM     18  C   UNL     1       7.264   4.865  14.508  0.00  0.00    +0.000 C 
ATOM     19  C   UNL     1       6.538   5.242  15.769  0.00  0.00    +0.000 A 
ATOM     20  C   UNL     1       5.179   5.534  15.746  0.00  0.00    +0.000 A 
ATOM     21  C   UNL     1       4.503   5.822  16.928  0.00  0.00    +0.000 A 
ATOM     22  C   UNL     1       5.196   5.858  18.146  0.00  0.00    +0.000 A 
ATOM     23  C   UNL     1       6.571   5.593  18.183  0.00  0.00    +0.000 A 
ATOM     24  C   UNL     1       7.410   5.618  19.425  0.00  0.00    +0.000 C 
ATOM     25  C   UNL     1       7.227   5.276  16.985  0.00  0.00    +0.000 A 
ENDBRANCH  17  22
ENDBRANCH   1  17
TORSDOF 7
ENDMDL
