MODEL 1
REMARK VINA RESULT:      -8.9      0.000      0.000
REMARK  Name = 
REMARK  6 active torsions:
REMARK  status: ('A' for Active; 'I' for Inactive)
REMARK    1  A    between atoms: C_1  and  C_2
REMARK    2  A    between atoms: C_5  and  C_6
REMARK    3  A    between atoms: C_11  and  N_12
REMARK    4  A    between atoms: C_13  and  C_15
REMARK    5  A    between atoms: C_18  and  C_19
REMARK    6  A    between atoms: C_19  and  O_21
REMARK                            x       y       z     vdW  Elec       q    Type
REMARK                         _______ _______ _______ _____ _____    ______ ____
ROOT
ATOM      1  C   UNL     1       4.735   3.857  16.777  0.00  0.00    +0.000 C 
ATOM      2  C   UNL     1       3.823   3.636  17.985  0.00  0.00    +0.000 C 
ATOM      3  C   UNL     1       4.609   2.948  19.135  0.00  0.00    +0.000 C 
ATOM      4  C   UNL     1       3.696   2.691  20.353  0.00  0.00    +0.000 C 
ATOM      5  C   UNL     1       2.256   3.195  20.080  0.00  0.00    +0.000 C 
ATOM      6  C   UNL     1       1.357   2.912  21.287  0.00  0.00    +0.000 C 
ATOM      7  C   UNL     1       1.725   2.453  18.826  0.00  0.00    +0.000 C 
ATOM      8  C   UNL     1       2.637   2.710  17.607  0.00  0.00    +0.000 C 
ATOM      9  C   UNL     1       2.381   4.668  19.691  0.00  0.00    +0.000 A 
ATOM     10  C   UNL     1       1.765   5.735  20.346  0.00  0.00    +0.000 A 
ATOM     11  C   UNL     1       1.968   7.048  19.915  0.00  0.00    +0.000 A 
ATOM     12  C   UNL     1       2.768   7.275  18.785  0.00  0.00    +0.000 A 
ATOM     13  C   UNL     1       3.394   6.212  18.120  0.00  0.00    +0.000 A 
ATOM     14  C   UNL     1       3.210   4.907  18.574  0.00  0.00    +0.000 A 
ENDROOT
BRANCH  11  15
ATOM     15  N   UNL     1       1.407   8.169  20.577  0.00  0.00    +0.000 N 
ATOM     16  C   UNL     1       1.007   9.343  19.960  0.00  0.00    +0.000 C 
ATOM     17  O   UNL     1       1.039   9.579  18.755  0.00  0.00    +0.000 OA
ATOM     18  H   UNL     1       1.155   8.030  21.546  0.00  0.00    +0.000 HD
BRANCH  16  19
ATOM     19  C   UNL     1       0.406  10.392  20.831  0.00  0.00    +0.000 A 
ATOM     20  C   UNL     1       0.505  11.760  20.558  0.00  0.00    +0.000 A 
ATOM     21  C   UNL     1      -0.114  12.682  21.412  0.00  0.00    +0.000 A 
ATOM     22  C   UNL     1      -0.830  12.246  22.538  0.00  0.00    +0.000 A 
ATOM     23  C   UNL     1      -0.967  10.877  22.784  0.00  0.00    +0.000 A 
ATOM     24  C   UNL     1      -0.344   9.959  21.937  0.00  0.00    +0.000 A 
BRANCH  22  25
ATOM     25  C   UNL     1      -1.465  13.268  23.409  0.00  0.00    +0.000 C 
ATOM     26  O   UNL     1      -2.619  13.175  23.795  0.00  0.00    +0.000 OA
BRANCH  25  27
ATOM     27  O   UNL     1      -0.675  14.322  23.693  0.00  0.00    +0.000 OA
ATOM     28  H   UNL     1      -0.169  14.688  22.944  0.00  0.00    +0.000 HD
ENDBRANCH  25  27
ENDBRANCH  22  25
ENDBRANCH  16  19
ENDBRANCH  11  15
TORSDOF 4
ENDMDL
MODEL 2
REMARK VINA RESULT:      -8.6      1.045      1.454
REMARK  Name = 
REMARK  6 active torsions:
REMARK  status: ('A' for Active; 'I' for Inactive)
REMARK    1  A    between atoms: C_1  and  C_2
REMARK    2  A    between atoms: C_5  and  C_6
REMARK    3  A    between atoms: C_11  and  N_12
REMARK    4  A    between atoms: C_13  and  C_15
REMARK    5  A    between atoms: C_18  and  C_19
REMARK    6  A    between atoms: C_19  and  O_21
REMARK                            x       y       z     vdW  Elec       q    Type
REMARK                         _______ _______ _______ _____ _____    ______ ____
ROOT
ATOM      1  C   UNL     1       5.449   5.319  15.902  0.00  0.00    +0.000 C 
ATOM      2  C   UNL     1       4.671   4.822  17.121  0.00  0.00    +0.000 C 
ATOM      3  C   UNL     1       5.649   4.273  18.197  0.00  0.00    +0.000 C 
ATOM      4  C   UNL     1       4.879   3.739  19.423  0.00  0.00    +0.000 C 
ATOM      5  C   UNL     1       3.350   3.905  19.231  0.00  0.00    +0.000 C 
ATOM      6  C   UNL     1       2.599   3.349  20.444  0.00  0.00    +0.000 C 
ATOM      7  C   UNL     1       2.949   3.132  17.948  0.00  0.00    +0.000 C 
ATOM      8  C   UNL     1       3.717   3.665  16.721  0.00  0.00    +0.000 C 
ATOM      9  C   UNL     1       3.110   5.386  18.937  0.00  0.00    +0.000 A 
ATOM     10  C   UNL     1       2.293   6.238  19.681  0.00  0.00    +0.000 A 
ATOM     11  C   UNL     1       2.165   7.585  19.332  0.00  0.00    +0.000 A 
ATOM     12  C   UNL     1       2.836   8.058  18.194  0.00  0.00    +0.000 A 
ATOM     13  C   UNL     1       3.660   7.212  17.440  0.00  0.00    +0.000 A 
ATOM     14  C   UNL     1       3.807   5.877  17.813  0.00  0.00    +0.000 A 
ENDROOT
BRANCH  11  15
ATOM     15  N   UNL     1       1.390   8.503  20.085  0.00  0.00    +0.000 N 
ATOM     16  C   UNL     1       0.581   9.491  19.550  0.00  0.00    +0.000 C 
ATOM     17  O   UNL     1       0.380   9.701  18.357  0.00  0.00    +0.000 OA
ATOM     18  H   UNL     1       1.322   8.316  21.076  0.00  0.00    +0.000 HD
BRANCH  16  19
ATOM     19  C   UNL     1      -0.183  10.333  20.513  0.00  0.00    +0.000 A 
ATOM     20  C   UNL     1      -0.976  11.416  20.121  0.00  0.00    +0.000 A 
ATOM     21  C   UNL     1      -1.686  12.140  21.088  0.00  0.00    +0.000 A 
ATOM     22  C   UNL     1      -1.608  11.790  22.445  0.00  0.00    +0.000 A 
ATOM     23  C   UNL     1      -0.852  10.678  22.831  0.00  0.00    +0.000 A 
ATOM     24  C   UNL     1      -0.139   9.962  21.867  0.00  0.00    +0.000 A 
BRANCH  22  25
ATOM     25  C   UNL     1      -2.382  12.592  23.425  0.00  0.00    +0.000 C 
ATOM     26  O   UNL     1      -2.011  13.687  23.816  0.00  0.00    +0.000 OA
BRANCH  25  27
ATOM     27  O   UNL     1      -3.499  11.986  23.879  0.00  0.00    +0.000 OA
ATOM     28  H   UNL     1      -3.359  11.266  24.522  0.00  0.00    +0.000 HD
ENDBRANCH  25  27
ENDBRANCH  22  25
ENDBRANCH  16  19
ENDBRANCH  11  15
TORSDOF 4
ENDMDL
MODEL 3
REMARK VINA RESULT:      -8.4      1.380      1.879
REMARK  Name = 
REMARK  6 active torsions:
REMARK  status: ('A' for Active; 'I' for Inactive)
REMARK    1  A    between atoms: C_1  and  C_2
REMARK    2  A    between atoms: C_5  and  C_6
REMARK    3  A    between atoms: C_11  and  N_12
REMARK    4  A    between atoms: C_13  and  C_15
REMARK    5  A    between atoms: C_18  and  C_19
REMARK    6  A    between atoms: C_19  and  O_21
REMARK                            x       y       z     vdW  Elec       q    Type
REMARK                         _______ _______ _______ _____ _____    ______ ____
ROOT
ATOM      1  C   UNL     1       5.807   5.672  15.813  0.00  0.00    +0.000 C 
ATOM      2  C   UNL     1       4.992   5.180  17.009  0.00  0.00    +0.000 C 
ATOM      3  C   UNL     1       5.937   4.770  18.172  0.00  0.00    +0.000 C 
ATOM      4  C   UNL     1       5.132   4.242  19.379  0.00  0.00    +0.000 C 
ATOM      5  C   UNL     1       3.611   4.275  19.086  0.00  0.00    +0.000 C 
ATOM      6  C   UNL     1       2.827   3.727  20.281  0.00  0.00    +0.000 C 
ATOM      7  C   UNL     1       3.353   3.405  17.828  0.00  0.00    +0.000 C 
ATOM      8  C   UNL     1       4.157   3.932  16.620  0.00  0.00    +0.000 C 
ATOM      9  C   UNL     1       3.278   5.714  18.692  0.00  0.00    +0.000 A 
ATOM     10  C   UNL     1       2.353   6.537  19.334  0.00  0.00    +0.000 A 
ATOM     11  C   UNL     1       2.145   7.849  18.901  0.00  0.00    +0.000 A 
ATOM     12  C   UNL     1       2.850   8.313  17.780  0.00  0.00    +0.000 A 
ATOM     13  C   UNL     1       3.784   7.496  17.128  0.00  0.00    +0.000 A 
ATOM     14  C   UNL     1       4.008   6.198  17.585  0.00  0.00    +0.000 A 
ENDROOT
BRANCH  11  15
ATOM     15  N   UNL     1       1.255   8.741  19.551  0.00  0.00    +0.000 N 
ATOM     16  C   UNL     1       1.091   8.846  20.922  0.00  0.00    +0.000 C 
ATOM     17  O   UNL     1       1.708   8.220  21.779  0.00  0.00    +0.000 OA
ATOM     18  H   UNL     1       0.824   9.442  18.964  0.00  0.00    +0.000 HD
BRANCH  16  19
ATOM     19  C   UNL     1       0.128   9.874  21.409  0.00  0.00    +0.000 A 
ATOM     20  C   UNL     1      -0.414  10.865  20.585  0.00  0.00    +0.000 A 
ATOM     21  C   UNL     1      -1.336  11.777  21.114  0.00  0.00    +0.000 A 
ATOM     22  C   UNL     1      -1.720  11.706  22.463  0.00  0.00    +0.000 A 
ATOM     23  C   UNL     1      -1.213  10.687  23.274  0.00  0.00    +0.000 A 
ATOM     24  C   UNL     1      -0.288   9.782  22.748  0.00  0.00    +0.000 A 
BRANCH  22  25
ATOM     25  C   UNL     1      -2.701  12.699  22.970  0.00  0.00    +0.000 C 
ATOM     26  O   UNL     1      -2.560  13.900  22.811  0.00  0.00    +0.000 OA
BRANCH  25  27
ATOM     27  O   UNL     1      -3.728  12.160  23.658  0.00  0.00    +0.000 OA
ATOM     28  H   UNL     1      -3.858  11.201  23.545  0.00  0.00    +0.000 HD
ENDBRANCH  25  27
ENDBRANCH  22  25
ENDBRANCH  16  19
ENDBRANCH  11  15
TORSDOF 4
ENDMDL
MODEL 4
REMARK VINA RESULT:      -8.4      0.811      1.373
REMARK  Name = 
REMARK  6 active torsions:
REMARK  status: ('A' for Active; 'I' for Inactive)
REMARK    1  A    between atoms: C_1  and  C_2
REMARK    2  A    between atoms: C_5  and  C_6
REMARK    3  A    between atoms: C_11  and  N_12
REMARK    4  A    between atoms: C_13  and  C_15
REMARK    5  A    between atoms: C_18  and  C_19
REMARK    6  A    between atoms: C_19  and  O_21
REMARK                            x       y       z     vdW  Elec       q    Type
REMARK                         _______ _______ _______ _____ _____    ______ ____
ROOT
ATOM      1  C   UNL     1       4.813   4.899  16.204  0.00  0.00    +0.000 C 
ATOM      2  C   UNL     1       3.992   4.555  17.448  0.00  0.00    +0.000 C 
ATOM      3  C   UNL     1       4.898   3.895  18.525  0.00  0.00    +0.000 C 
ATOM      4  C   UNL     1       4.081   3.513  19.777  0.00  0.00    +0.000 C 
ATOM      5  C   UNL     1       2.590   3.899  19.603  0.00  0.00    +0.000 C 
ATOM      6  C   UNL     1       1.788   3.493  20.842  0.00  0.00    +0.000 C 
ATOM      7  C   UNL     1       2.055   3.161  18.349  0.00  0.00    +0.000 C 
ATOM      8  C   UNL     1       2.871   3.542  17.095  0.00  0.00    +0.000 C 
ATOM      9  C   UNL     1       2.566   5.391  19.270  0.00  0.00    +0.000 A 
ATOM     10  C   UNL     1       1.899   6.374  20.001  0.00  0.00    +0.000 A 
ATOM     11  C   UNL     1       1.965   7.716  19.616  0.00  0.00    +0.000 A 
ATOM     12  C   UNL     1       2.677   8.054  18.455  0.00  0.00    +0.000 A 
ATOM     13  C   UNL     1       3.353   7.076  17.714  0.00  0.00    +0.000 A 
ATOM     14  C   UNL     1       3.308   5.744  18.122  0.00  0.00    +0.000 A 
ENDROOT
BRANCH  11  15
ATOM     15  N   UNL     1       1.348   8.758  20.354  0.00  0.00    +0.000 N 
ATOM     16  C   UNL     1       0.570   9.767  19.811  0.00  0.00    +0.000 C 
ATOM     17  O   UNL     1       0.265   9.895  18.629  0.00  0.00    +0.000 OA
ATOM     18  H   UNL     1       1.368   8.659  21.359  0.00  0.00    +0.000 HD
BRANCH  16  19
ATOM     19  C   UNL     1      -0.020  10.750  20.763  0.00  0.00    +0.000 A 
ATOM     20  C   UNL     1      -0.430  10.410  22.056  0.00  0.00    +0.000 A 
ATOM     21  C   UNL     1      -0.949  11.400  22.901  0.00  0.00    +0.000 A 
ATOM     22  C   UNL     1      -1.061  12.729  22.462  0.00  0.00    +0.000 A 
ATOM     23  C   UNL     1      -0.607  13.077  21.186  0.00  0.00    +0.000 A 
ATOM     24  C   UNL     1      -0.098  12.088  20.342  0.00  0.00    +0.000 A 
BRANCH  22  25
ATOM     25  C   UNL     1      -1.617  13.737  23.399  0.00  0.00    +0.000 C 
ATOM     26  O   UNL     1      -0.946  14.260  24.274  0.00  0.00    +0.000 OA
BRANCH  25  27
ATOM     27  O   UNL     1      -2.931  13.986  23.229  0.00  0.00    +0.000 OA
ATOM     28  H   UNL     1      -3.528  13.228  23.369  0.00  0.00    +0.000 HD
ENDBRANCH  25  27
ENDBRANCH  22  25
ENDBRANCH  16  19
ENDBRANCH  11  15
TORSDOF 4
ENDMDL
MODEL 5
REMARK VINA RESULT:      -8.4      0.883      1.098
REMARK  Name = 
REMARK  6 active torsions:
REMARK  status: ('A' for Active; 'I' for Inactive)
REMARK    1  A    between atoms: C_1  and  C_2
REMARK    2  A    between atoms: C_5  and  C_6
REMARK    3  A    between atoms: C_11  and  N_12
REMARK    4  A    between atoms: C_13  and  C_15
REMARK    5  A    between atoms: C_18  and  C_19
REMARK    6  A    between atoms: C_19  and  O_21
REMARK                            x       y       z     vdW  Elec       q    Type
REMARK                         _______ _______ _______ _____ _____    ______ ____
ROOT
ATOM      1  C   UNL     1       4.490   3.656  16.709  0.00  0.00    +0.000 C 
ATOM      2  C   UNL     1       3.671   3.585  17.999  0.00  0.00    +0.000 C 
ATOM      3  C   UNL     1       4.541   3.029  19.160  0.00  0.00    +0.000 C 
ATOM      4  C   UNL     1       3.722   2.922  20.464  0.00  0.00    +0.000 C 
ATOM      5  C   UNL     1       2.266   3.402  20.242  0.00  0.00    +0.000 C 
ATOM      6  C   UNL     1       1.459   3.269  21.536  0.00  0.00    +0.000 C 
ATOM      7  C   UNL     1       1.643   2.524  19.126  0.00  0.00    +0.000 C 
ATOM      8  C   UNL     1       2.461   2.630  17.821  0.00  0.00    +0.000 C 
ATOM      9  C   UNL     1       2.359   4.820  19.675  0.00  0.00    +0.000 A 
ATOM     10  C   UNL     1       1.793   5.959  20.245  0.00  0.00    +0.000 A 
ATOM     11  C   UNL     1       1.962   7.213  19.650  0.00  0.00    +0.000 A 
ATOM     12  C   UNL     1       2.675   7.300  18.445  0.00  0.00    +0.000 A 
ATOM     13  C   UNL     1       3.251   6.162  17.864  0.00  0.00    +0.000 A 
ATOM     14  C   UNL     1       3.103   4.920  18.480  0.00  0.00    +0.000 A 
ENDROOT
BRANCH  11  15
ATOM     15  N   UNL     1       1.451   8.407  20.217  0.00  0.00    +0.000 N 
ATOM     16  C   UNL     1       0.369   8.483  21.078  0.00  0.00    +0.000 C 
ATOM     17  O   UNL     1      -0.286   7.538  21.509  0.00  0.00    +0.000 OA
ATOM     18  H   UNL     1       2.017   9.235  20.089  0.00  0.00    +0.000 HD
BRANCH  16  19
ATOM     19  C   UNL     1       0.010   9.834  21.593  0.00  0.00    +0.000 A 
ATOM     20  C   UNL     1       0.379  11.020  20.951  0.00  0.00    +0.000 A 
ATOM     21  C   UNL     1      -0.023  12.251  21.486  0.00  0.00    +0.000 A 
ATOM     22  C   UNL     1      -0.791  12.305  22.659  0.00  0.00    +0.000 A 
ATOM     23  C   UNL     1      -1.199  11.117  23.275  0.00  0.00    +0.000 A 
ATOM     24  C   UNL     1      -0.791   9.891  22.746  0.00  0.00    +0.000 A 
BRANCH  22  25
ATOM     25  C   UNL     1      -1.189  13.636  23.181  0.00  0.00    +0.000 C 
ATOM     26  O   UNL     1      -0.377  14.509  23.442  0.00  0.00    +0.000 OA
BRANCH  25  27
ATOM     27  O   UNL     1      -2.515  13.778  23.384  0.00  0.00    +0.000 OA
ATOM     28  H   UNL     1      -2.771  14.276  24.183  0.00  0.00    +0.000 HD
ENDBRANCH  25  27
ENDBRANCH  22  25
ENDBRANCH  16  19
ENDBRANCH  11  15
TORSDOF 4
ENDMDL
MODEL 6
REMARK VINA RESULT:      -8.3      1.158      1.497
REMARK  Name = 
REMARK  6 active torsions:
REMARK  status: ('A' for Active; 'I' for Inactive)
REMARK    1  A    between atoms: C_1  and  C_2
REMARK    2  A    between atoms: C_5  and  C_6
REMARK    3  A    between atoms: C_11  and  N_12
REMARK    4  A    between atoms: C_13  and  C_15
REMARK    5  A    between atoms: C_18  and  C_19
REMARK    6  A    between atoms: C_19  and  O_21
REMARK                            x       y       z     vdW  Elec       q    Type
REMARK                         _______ _______ _______ _____ _____    ______ ____
ROOT
ATOM      1  C   UNL     1       5.115   4.475  16.413  0.00  0.00    +0.000 C 
ATOM      2  C   UNL     1       4.087   4.296  17.531  0.00  0.00    +0.000 C 
ATOM      3  C   UNL     1       4.753   3.644  18.775  0.00  0.00    +0.000 C 
ATOM      4  C   UNL     1       3.723   3.429  19.904  0.00  0.00    +0.000 C 
ATOM      5  C   UNL     1       2.320   3.927  19.475  0.00  0.00    +0.000 C 
ATOM      6  C   UNL     1       1.304   3.685  20.595  0.00  0.00    +0.000 C 
ATOM      7  C   UNL     1       1.911   3.145  18.200  0.00  0.00    +0.000 C 
ATOM      8  C   UNL     1       2.939   3.360  17.069  0.00  0.00    +0.000 C 
ATOM      9  C   UNL     1       2.490   5.387  19.052  0.00  0.00    +0.000 A 
ATOM     10  C   UNL     1       1.817   6.475  19.608  0.00  0.00    +0.000 A 
ATOM     11  C   UNL     1       2.069   7.773  19.157  0.00  0.00    +0.000 A 
ATOM     12  C   UNL     1       2.978   7.961  18.104  0.00  0.00    +0.000 A 
ATOM     13  C   UNL     1       3.660   6.876  17.539  0.00  0.00    +0.000 A 
ATOM     14  C   UNL     1       3.426   5.587  18.015  0.00  0.00    +0.000 A 
ENDROOT
BRANCH  11  15
ATOM     15  N   UNL     1       1.452   8.916  19.723  0.00  0.00    +0.000 N 
ATOM     16  C   UNL     1       1.007   9.017  21.031  0.00  0.00    +0.000 C 
ATOM     17  O   UNL     1       1.110   8.159  21.903  0.00  0.00    +0.000 OA
ATOM     18  H   UNL     1       1.477   9.757  19.162  0.00  0.00    +0.000 HD
BRANCH  16  19
ATOM     19  C   UNL     1       0.415  10.321  21.444  0.00  0.00    +0.000 A 
ATOM     20  C   UNL     1      -0.514  10.445  22.482  0.00  0.00    +0.000 A 
ATOM     21  C   UNL     1      -1.000  11.712  22.828  0.00  0.00    +0.000 A 
ATOM     22  C   UNL     1      -0.566  12.858  22.142  0.00  0.00    +0.000 A 
ATOM     23  C   UNL     1       0.397  12.738  21.135  0.00  0.00    +0.000 A 
ATOM     24  C   UNL     1       0.876  11.474  20.786  0.00  0.00    +0.000 A 
BRANCH  22  25
ATOM     25  C   UNL     1      -1.115  14.175  22.551  0.00  0.00    +0.000 C 
ATOM     26  O   UNL     1      -2.170  14.609  22.118  0.00  0.00    +0.000 OA
BRANCH  25  27
ATOM     27  O   UNL     1      -0.326  14.865  23.400  0.00  0.00    +0.000 OA
ATOM     28  H   UNL     1       0.456  15.290  23.002  0.00  0.00    +0.000 HD
ENDBRANCH  25  27
ENDBRANCH  22  25
ENDBRANCH  16  19
ENDBRANCH  11  15
TORSDOF 4
ENDMDL
MODEL 7
REMARK VINA RESULT:      -8.2      2.522      3.628
REMARK  Name = 
REMARK  6 active torsions:
REMARK  status: ('A' for Active; 'I' for Inactive)
REMARK    1  A    between atoms: C_1  and  C_2
REMARK    2  A    between atoms: C_5  and  C_6
REMARK    3  A    between atoms: C_11  and  N_12
REMARK    4  A    between atoms: C_13  and  C_15
REMARK    5  A    between atoms: C_18  and  C_19
REMARK    6  A    between atoms: C_19  and  O_21
REMARK                            x       y       z     vdW  Elec       q    Type
REMARK                         _______ _______ _______ _____ _____    ______ ____
ROOT
ATOM      1  C   UNL     1       1.881   2.502  20.954  0.00  0.00    +0.000 C 
ATOM      2  C   UNL     1       2.560   3.292  19.833  0.00  0.00    +0.000 C 
ATOM      3  C   UNL     1       2.077   2.781  18.447  0.00  0.00    +0.000 C 
ATOM      4  C   UNL     1       2.774   3.546  17.302  0.00  0.00    +0.000 C 
ATOM      5  C   UNL     1       3.754   4.607  17.863  0.00  0.00    +0.000 C 
ATOM      6  C   UNL     1       4.455   5.342  16.717  0.00  0.00    +0.000 C 
ATOM      7  C   UNL     1       4.794   3.870  18.746  0.00  0.00    +0.000 C 
ATOM      8  C   UNL     1       4.099   3.104  19.892  0.00  0.00    +0.000 C 
ATOM      9  C   UNL     1       2.939   5.494  18.805  0.00  0.00    +0.000 A 
ATOM     10  C   UNL     1       2.784   6.875  18.685  0.00  0.00    +0.000 A 
ATOM     11  C   UNL     1       1.993   7.584  19.594  0.00  0.00    +0.000 A 
ATOM     12  C   UNL     1       1.392   6.891  20.656  0.00  0.00    +0.000 A 
ATOM     13  C   UNL     1       1.539   5.503  20.784  0.00  0.00    +0.000 A 
ATOM     14  C   UNL     1       2.305   4.799  19.856  0.00  0.00    +0.000 A 
ENDROOT
BRANCH  11  15
ATOM     15  N   UNL     1       1.762   8.979  19.486  0.00  0.00    +0.000 N 
ATOM     16  C   UNL     1       1.102   9.600  18.439  0.00  0.00    +0.000 C 
ATOM     17  O   UNL     1       0.587   9.045  17.472  0.00  0.00    +0.000 OA
ATOM     18  H   UNL     1       1.972   9.527  20.309  0.00  0.00    +0.000 HD
BRANCH  16  19
ATOM     19  C   UNL     1       0.930  11.077  18.531  0.00  0.00    +0.000 A 
ATOM     20  C   UNL     1      -0.313  11.692  18.712  0.00  0.00    +0.000 A 
ATOM     21  C   UNL     1      -0.386  13.087  18.818  0.00  0.00    +0.000 A 
ATOM     22  C   UNL     1       0.776  13.872  18.742  0.00  0.00    +0.000 A 
ATOM     23  C   UNL     1       2.022  13.254  18.607  0.00  0.00    +0.000 A 
ATOM     24  C   UNL     1       2.093  11.864  18.494  0.00  0.00    +0.000 A 
BRANCH  22  25
ATOM     25  C   UNL     1       0.639  15.346  18.861  0.00  0.00    +0.000 C 
ATOM     26  O   UNL     1       1.578  16.071  19.148  0.00  0.00    +0.000 OA
BRANCH  25  27
ATOM     27  O   UNL     1      -0.615  15.803  18.670  0.00  0.00    +0.000 OA
ATOM     28  H   UNL     1      -0.955  16.408  19.356  0.00  0.00    +0.000 HD
ENDBRANCH  25  27
ENDBRANCH  22  25
ENDBRANCH  16  19
ENDBRANCH  11  15
TORSDOF 4
ENDMDL
MODEL 8
REMARK VINA RESULT:      -8.1      2.427      3.496
REMARK  Name = 
REMARK  6 active torsions:
REMARK  status: ('A' for Active; 'I' for Inactive)
REMARK    1  A    between atoms: C_1  and  C_2
REMARK    2  A    between atoms: C_5  and  C_6
REMARK    3  A    between atoms: C_11  and  N_12
REMARK    4  A    between atoms: C_13  and  C_15
REMARK    5  A    between atoms: C_18  and  C_19
REMARK    6  A    between atoms: C_19  and  O_21
REMARK                            x       y       z     vdW  Elec       q    Type
REMARK                         _______ _______ _______ _____ _____    ______ ____
ROOT
ATOM      1  C   UNL     1       2.169   2.466  20.675  0.00  0.00    +0.000 C 
ATOM      2  C   UNL     1       2.825   3.328  19.594  0.00  0.00    +0.000 C 
ATOM      3  C   UNL     1       2.382   2.851  18.184  0.00  0.00    +0.000 C 
ATOM      4  C   UNL     1       3.057   3.691  17.078  0.00  0.00    +0.000 C 
ATOM      5  C   UNL     1       3.982   4.771  17.693  0.00  0.00    +0.000 C 
ATOM      6  C   UNL     1       4.663   5.581  16.585  0.00  0.00    +0.000 C 
ATOM      7  C   UNL     1       5.043   4.047  18.560  0.00  0.00    +0.000 C 
ATOM      8  C   UNL     1       4.370   3.207  19.667  0.00  0.00    +0.000 C 
ATOM      9  C   UNL     1       3.117   5.584  18.657  0.00  0.00    +0.000 A 
ATOM     10  C   UNL     1       2.901   6.960  18.589  0.00  0.00    +0.000 A 
ATOM     11  C   UNL     1       2.069   7.597  19.513  0.00  0.00    +0.000 A 
ATOM     12  C   UNL     1       1.488   6.837  20.539  0.00  0.00    +0.000 A 
ATOM     13  C   UNL     1       1.695   5.454  20.616  0.00  0.00    +0.000 A 
ATOM     14  C   UNL     1       2.502   4.820  19.672  0.00  0.00    +0.000 A 
ENDROOT
BRANCH  11  15
ATOM     15  N   UNL     1       1.777   8.984  19.456  0.00  0.00    +0.000 N 
ATOM     16  C   UNL     1       1.099   9.614  18.426  0.00  0.00    +0.000 C 
ATOM     17  O   UNL     1       0.617   9.075  17.434  0.00  0.00    +0.000 OA
ATOM     18  H   UNL     1       1.957   9.508  20.301  0.00  0.00    +0.000 HD
BRANCH  16  19
ATOM     19  C   UNL     1       0.861  11.078  18.573  0.00  0.00    +0.000 A 
ATOM     20  C   UNL     1       1.894  12.017  18.646  0.00  0.00    +0.000 A 
ATOM     21  C   UNL     1       1.585  13.379  18.754  0.00  0.00    +0.000 A 
ATOM     22  C   UNL     1       0.250  13.810  18.790  0.00  0.00    +0.000 A 
ATOM     23  C   UNL     1      -0.783  12.874  18.671  0.00  0.00    +0.000 A 
ATOM     24  C   UNL     1      -0.474  11.516  18.570  0.00  0.00    +0.000 A 
BRANCH  22  25
ATOM     25  C   UNL     1      -0.019  15.265  18.906  0.00  0.00    +0.000 C 
ATOM     26  O   UNL     1       0.809  16.111  18.608  0.00  0.00    +0.000 OA
BRANCH  25  27
ATOM     27  O   UNL     1      -1.233  15.566  19.409  0.00  0.00    +0.000 OA
ATOM     28  H   UNL     1      -1.245  16.243  20.111  0.00  0.00    +0.000 HD
ENDBRANCH  25  27
ENDBRANCH  22  25
ENDBRANCH  16  19
ENDBRANCH  11  15
TORSDOF 4
ENDMDL
MODEL 9
REMARK VINA RESULT:      -8.1      2.802      9.273
REMARK  Name = 
REMARK  6 active torsions:
REMARK  status: ('A' for Active; 'I' for Inactive)
REMARK    1  A    between atoms: C_1  and  C_2
REMARK    2  A    between atoms: C_5  and  C_6
REMARK    3  A    between atoms: C_11  and  N_12
REMARK    4  A    between atoms: C_13  and  C_15
REMARK    5  A    between atoms: C_18  and  C_19
REMARK    6  A    between atoms: C_19  and  O_21
REMARK                            x       y       z     vdW  Elec       q    Type
REMARK                         _______ _______ _______ _____ _____    ______ ____
ROOT
ATOM      1  C   UNL     1      -1.731  13.433  23.472  0.00  0.00    +0.000 C 
ATOM      2  C   UNL     1      -1.591  12.913  22.040  0.00  0.00    +0.000 C 
ATOM      3  C   UNL     1      -0.707  13.877  21.201  0.00  0.00    +0.000 C 
ATOM      4  C   UNL     1      -0.578  13.383  19.744  0.00  0.00    +0.000 C 
ATOM      5  C   UNL     1      -1.366  12.065  19.537  0.00  0.00    +0.000 C 
ATOM      6  C   UNL     1      -1.250  11.599  18.082  0.00  0.00    +0.000 C 
ATOM      7  C   UNL     1      -2.849  12.339  19.897  0.00  0.00    +0.000 C 
ATOM      8  C   UNL     1      -2.980  12.832  21.354  0.00  0.00    +0.000 C 
ATOM      9  C   UNL     1      -0.842  11.079  20.581  0.00  0.00    +0.000 A 
ATOM     10  C   UNL     1      -0.272   9.835  20.307  0.00  0.00    +0.000 A 
ATOM     11  C   UNL     1       0.195   9.023  21.344  0.00  0.00    +0.000 A 
ATOM     12  C   UNL     1       0.042   9.458  22.669  0.00  0.00    +0.000 A 
ATOM     13  C   UNL     1      -0.527  10.706  22.956  0.00  0.00    +0.000 A 
ATOM     14  C   UNL     1      -0.963  11.524  21.914  0.00  0.00    +0.000 A 
ENDROOT
BRANCH  11  15
ATOM     15  N   UNL     1       0.829   7.775  21.116  0.00  0.00    +0.000 N 
ATOM     16  C   UNL     1       1.716   7.507  20.086  0.00  0.00    +0.000 C 
ATOM     17  O   UNL     1       2.116   8.306  19.244  0.00  0.00    +0.000 OA
ATOM     18  H   UNL     1       0.727   7.087  21.849  0.00  0.00    +0.000 HD
BRANCH  16  19
ATOM     19  C   UNL     1       2.302   6.138  20.040  0.00  0.00    +0.000 A 
ATOM     20  C   UNL     1       1.659   5.013  20.565  0.00  0.00    +0.000 A 
ATOM     21  C   UNL     1       2.266   3.755  20.456  0.00  0.00    +0.000 A 
ATOM     22  C   UNL     1       3.512   3.614  19.827  0.00  0.00    +0.000 A 
ATOM     23  C   UNL     1       4.133   4.732  19.262  0.00  0.00    +0.000 A 
ATOM     24  C   UNL     1       3.531   5.986  19.377  0.00  0.00    +0.000 A 
BRANCH  22  25
ATOM     25  C   UNL     1       4.108   2.257  19.740  0.00  0.00    +0.000 C 
ATOM     26  O   UNL     1       5.036   1.901  20.448  0.00  0.00    +0.000 OA
BRANCH  25  27
ATOM     27  O   UNL     1       3.568   1.475  18.783  0.00  0.00    +0.000 OA
ATOM     28  H   UNL     1       4.138   1.292  18.013  0.00  0.00    +0.000 HD
ENDBRANCH  25  27
ENDBRANCH  22  25
ENDBRANCH  16  19
ENDBRANCH  11  15
TORSDOF 4
ENDMDL
