MODEL 1
REMARK VINA RESULT:      -6.0      0.000      0.000
REMARK  Name = 
REMARK  8 active torsions:
REMARK  status: ('A' for Active; 'I' for Inactive)
REMARK    1  A    between atoms: C_1  and  O_2
REMARK    2  A    between atoms: O_2  and  C_3
REMARK    3  A    between atoms: C_3  and  C_4
REMARK    4  A    between atoms: C_4  and  N_5
REMARK    5  A    between atoms: C_7  and  O_8
REMARK    6  A    between atoms: O_8  and  C_9
REMARK    7  A    between atoms: N_12  and  S_13
REMARK    8  A    between atoms: S_13  and  C_16
REMARK                            x       y       z     vdW  Elec       q    Type
REMARK                         _______ _______ _______ _____ _____    ______ ____
ROOT
ATOM      1  N   UNL     1       1.722   7.016  20.480  0.00  0.00    +0.000 N 
ATOM      2  N   UNL     1       0.948   7.479  21.495  0.00  0.00    +0.000 NA
ATOM      3  C   UNL     1       0.602   8.699  21.074  0.00  0.00    +0.000 A 
ATOM      4  C   UNL     1       1.161   9.038  19.837  0.00  0.00    +0.000 A 
ATOM      5  C   UNL     1       1.188  10.115  18.964  0.00  0.00    +0.000 A 
ATOM      6  N   UNL     1       0.536  11.337  19.216  0.00  0.00    +0.000 N 
ATOM      7  N   UNL     1       1.865  10.036  17.804  0.00  0.00    +0.000 NA
ATOM      8  C   UNL     1       2.542   8.893  17.567  0.00  0.00    +0.000 A 
ATOM      9  N   UNL     1       2.606   7.787  18.337  0.00  0.00    +0.000 NA
ATOM     10  C   UNL     1       1.879   7.922  19.460  0.00  0.00    +0.000 A 
ATOM     11  H   UNL     1       0.657  11.725  20.150  0.00  0.00    +0.000 HD
ENDROOT
BRANCH   6  12
ATOM     12  S   UNL     1      -1.077  11.428  18.763  0.00  0.00    +0.000 S 
ATOM     13  O   UNL     1      -1.201  12.351  17.653  0.00  0.00    +0.000 OA
ATOM     14  O   UNL     1      -1.562  10.070  18.636  0.00  0.00    +0.000 OA
BRANCH  12  15
ATOM     15  C   UNL     1      -1.875  12.142  20.170  0.00  0.00    +0.000 A 
ATOM     16  C   UNL     1      -1.062  12.519  21.252  0.00  0.00    +0.000 A 
ATOM     17  C   UNL     1      -1.626  13.090  22.388  0.00  0.00    +0.000 A 
ATOM     18  C   UNL     1      -3.003  13.284  22.448  0.00  0.00    +0.000 A 
ATOM     19  C   UNL     1      -3.816  12.920  21.366  0.00  0.00    +0.000 A 
ATOM     20 CL   UNL     1      -5.514  13.211  21.542  0.00  0.00    +0.000 Cl
ATOM     21  C   UNL     1      -3.260  12.349  20.208  0.00  0.00    +0.000 A 
ATOM     22 CL   UNL     1      -4.300  11.937  18.881  0.00  0.00    +0.000 Cl
ENDBRANCH  12  15
ENDBRANCH   6  12
BRANCH   3  23
ATOM     23  O   UNL     1      -0.179   9.513  21.819  0.00  0.00    +0.000 OA
ATOM     24  C   UNL     1       0.100   9.491  23.212  0.00  0.00    +0.000 C 
ENDBRANCH   3  23
BRANCH   1  25
ATOM     25  C   UNL     1       2.282   5.684  20.538  0.00  0.00    +0.000 C 
BRANCH  25  26
ATOM     26  C   UNL     1       1.448   4.664  19.774  0.00  0.00    +0.000 C 
BRANCH  26  28
ATOM     27  C   UNL     1       1.857   3.124  21.512  0.00  0.00    +0.000 C 
ATOM     28  O   UNL     1       0.865   3.742  20.700  0.00  0.00    +0.000 OA
ENDBRANCH  26  28
ENDBRANCH  25  26
ENDBRANCH   1  25
TORSDOF 6
ENDMDL
MODEL 2
REMARK VINA RESULT:      -5.8      4.897      6.931
REMARK  Name = 
REMARK  8 active torsions:
REMARK  status: ('A' for Active; 'I' for Inactive)
REMARK    1  A    between atoms: C_1  and  O_2
REMARK    2  A    between atoms: O_2  and  C_3
REMARK    3  A    between atoms: C_3  and  C_4
REMARK    4  A    between atoms: C_4  and  N_5
REMARK    5  A    between atoms: C_7  and  O_8
REMARK    6  A    between atoms: O_8  and  C_9
REMARK    7  A    between atoms: N_12  and  S_13
REMARK    8  A    between atoms: S_13  and  C_16
REMARK                            x       y       z     vdW  Elec       q    Type
REMARK                         _______ _______ _______ _____ _____    ______ ____
ROOT
ATOM      1  N   UNL     1       5.801   4.071  15.695  0.00  0.00    +0.000 N 
ATOM      2  N   UNL     1       5.256   3.004  16.333  0.00  0.00    +0.000 NA
ATOM      3  C   UNL     1       4.676   3.558  17.402  0.00  0.00    +0.000 A 
ATOM      4  C   UNL     1       4.865   4.943  17.480  0.00  0.00    +0.000 A 
ATOM      5  C   UNL     1       4.549   5.994  18.327  0.00  0.00    +0.000 A 
ATOM      6  N   UNL     1       3.843   5.833  19.535  0.00  0.00    +0.000 N 
ATOM      7  N   UNL     1       4.918   7.250  18.023  0.00  0.00    +0.000 NA
ATOM      8  C   UNL     1       5.643   7.420  16.897  0.00  0.00    +0.000 A 
ATOM      9  N   UNL     1       6.025   6.485  16.003  0.00  0.00    +0.000 NA
ATOM     10  C   UNL     1       5.591   5.261  16.350  0.00  0.00    +0.000 A 
ATOM     11  H   UNL     1       4.147   5.068  20.133  0.00  0.00    +0.000 HD
ENDROOT
BRANCH   6  12
ATOM     12  S   UNL     1       2.169   5.844  19.425  0.00  0.00    +0.000 S 
ATOM     13  O   UNL     1       1.788   5.739  18.031  0.00  0.00    +0.000 OA
ATOM     14  O   UNL     1       1.671   4.884  20.387  0.00  0.00    +0.000 OA
BRANCH  12  15
ATOM     15  C   UNL     1       1.714   7.452  20.005  0.00  0.00    +0.000 A 
ATOM     16  C   UNL     1       1.421   7.587  21.373  0.00  0.00    +0.000 A 
ATOM     17  C   UNL     1       1.060   8.825  21.893  0.00  0.00    +0.000 A 
ATOM     18  C   UNL     1       0.990   9.931  21.051  0.00  0.00    +0.000 A 
ATOM     19  C   UNL     1       1.294   9.804  19.689  0.00  0.00    +0.000 A 
ATOM     20 CL   UNL     1       1.181  11.243  18.732  0.00  0.00    +0.000 Cl
ATOM     21  C   UNL     1       1.667   8.560  19.149  0.00  0.00    +0.000 A 
ATOM     22 CL   UNL     1       2.059   8.451  17.462  0.00  0.00    +0.000 Cl
ENDBRANCH  12  15
ENDBRANCH   6  12
BRANCH   3  23
ATOM     23  O   UNL     1       4.017   2.816  18.320  0.00  0.00    +0.000 OA
ATOM     24  C   UNL     1       2.769   2.298  17.877  0.00  0.00    +0.000 C 
ENDBRANCH   3  23
BRANCH   1  25
ATOM     25  C   UNL     1       6.508   3.893  14.447  0.00  0.00    +0.000 C 
BRANCH  25  26
ATOM     26  C   UNL     1       5.578   3.891  13.241  0.00  0.00    +0.000 C 
BRANCH  26  28
ATOM     27  C   UNL     1       5.555   2.239  11.560  0.00  0.00    +0.000 C 
ATOM     28  O   UNL     1       6.266   3.340  12.114  0.00  0.00    +0.000 OA
ENDBRANCH  26  28
ENDBRANCH  25  26
ENDBRANCH   1  25
TORSDOF 6
ENDMDL
MODEL 3
REMARK VINA RESULT:      -5.6      2.786      4.162
REMARK  Name = 
REMARK  8 active torsions:
REMARK  status: ('A' for Active; 'I' for Inactive)
REMARK    1  A    between atoms: C_1  and  O_2
REMARK    2  A    between atoms: O_2  and  C_3
REMARK    3  A    between atoms: C_3  and  C_4
REMARK    4  A    between atoms: C_4  and  N_5
REMARK    5  A    between atoms: C_7  and  O_8
REMARK    6  A    between atoms: O_8  and  C_9
REMARK    7  A    between atoms: N_12  and  S_13
REMARK    8  A    between atoms: S_13  and  C_16
REMARK                            x       y       z     vdW  Elec       q    Type
REMARK                         _______ _______ _______ _____ _____    ______ ____
ROOT
ATOM      1  N   UNL     1       1.107   9.215  19.676  0.00  0.00    +0.000 N 
ATOM      2  N   UNL     1       0.601  10.018  18.706  0.00  0.00    +0.000 NA
ATOM      3  C   UNL     1      -0.155  10.878  19.393  0.00  0.00    +0.000 A 
ATOM      4  C   UNL     1      -0.171  10.625  20.770  0.00  0.00    +0.000 A 
ATOM      5  C   UNL     1      -0.766  11.128  21.917  0.00  0.00    +0.000 A 
ATOM      6  N   UNL     1      -1.671  12.206  21.915  0.00  0.00    +0.000 N 
ATOM      7  N   UNL     1      -0.496  10.586  23.118  0.00  0.00    +0.000 NA
ATOM      8  C   UNL     1       0.327   9.517  23.137  0.00  0.00    +0.000 A 
ATOM      9  N   UNL     1       0.953   8.928  22.097  0.00  0.00    +0.000 NA
ATOM     10  C   UNL     1       0.669   9.542  20.936  0.00  0.00    +0.000 A 
ATOM     11  H   UNL     1      -2.402  12.176  21.206  0.00  0.00    +0.000 HD
ENDROOT
BRANCH   6  12
ATOM     12  S   UNL     1      -1.000  13.742  21.981  0.00  0.00    +0.000 S 
ATOM     13  O   UNL     1       0.372  13.636  22.434  0.00  0.00    +0.000 OA
ATOM     14  O   UNL     1      -1.300  14.394  20.725  0.00  0.00    +0.000 OA
BRANCH  12  15
ATOM     15  C   UNL     1      -1.937  14.563  23.237  0.00  0.00    +0.000 A 
ATOM     16  C   UNL     1      -1.253  14.958  24.399  0.00  0.00    +0.000 A 
ATOM     17  C   UNL     1      -1.930  15.611  25.423  0.00  0.00    +0.000 A 
ATOM     18  C   UNL     1      -3.292  15.870  25.291  0.00  0.00    +0.000 A 
ATOM     19  C   UNL     1      -3.975  15.488  24.129  0.00  0.00    +0.000 A 
ATOM     20 CL   UNL     1      -5.664  15.864  24.065  0.00  0.00    +0.000 Cl
ATOM     21  C   UNL     1      -3.303  14.833  23.082  0.00  0.00    +0.000 A 
ATOM     22 CL   UNL     1      -4.181  14.401  21.648  0.00  0.00    +0.000 Cl
ENDBRANCH  12  15
ENDBRANCH   6  12
BRANCH   3  23
ATOM     23  O   UNL     1      -0.855  11.859  18.781  0.00  0.00    +0.000 OA
ATOM     24  C   UNL     1      -1.993  11.410  18.056  0.00  0.00    +0.000 C 
ENDBRANCH   3  23
BRANCH   1  25
ATOM     25  C   UNL     1       2.021   8.147  19.337  0.00  0.00    +0.000 C 
BRANCH  25  26
ATOM     26  C   UNL     1       2.407   8.149  17.864  0.00  0.00    +0.000 C 
BRANCH  26  28
ATOM     27  C   UNL     1       3.506   6.064  17.866  0.00  0.00    +0.000 C 
ATOM     28  O   UNL     1       3.655   7.470  17.701  0.00  0.00    +0.000 OA
ENDBRANCH  26  28
ENDBRANCH  25  26
ENDBRANCH   1  25
TORSDOF 6
ENDMDL
MODEL 4
REMARK VINA RESULT:      -5.6      4.995      8.713
REMARK  Name = 
REMARK  8 active torsions:
REMARK  status: ('A' for Active; 'I' for Inactive)
REMARK    1  A    between atoms: C_1  and  O_2
REMARK    2  A    between atoms: O_2  and  C_3
REMARK    3  A    between atoms: C_3  and  C_4
REMARK    4  A    between atoms: C_4  and  N_5
REMARK    5  A    between atoms: C_7  and  O_8
REMARK    6  A    between atoms: O_8  and  C_9
REMARK    7  A    between atoms: N_12  and  S_13
REMARK    8  A    between atoms: S_13  and  C_16
REMARK                            x       y       z     vdW  Elec       q    Type
REMARK                         _______ _______ _______ _____ _____    ______ ____
ROOT
ATOM      1  N   UNL     1       1.598   7.377  20.819  0.00  0.00    +0.000 N 
ATOM      2  N   UNL     1       1.283   6.183  21.381  0.00  0.00    +0.000 NA
ATOM      3  C   UNL     1       1.646   5.305  20.441  0.00  0.00    +0.000 A 
ATOM      4  C   UNL     1       2.151   5.909  19.284  0.00  0.00    +0.000 A 
ATOM      5  C   UNL     1       2.627   5.538  18.035  0.00  0.00    +0.000 A 
ATOM      6  N   UNL     1       2.689   4.203  17.592  0.00  0.00    +0.000 N 
ATOM      7  N   UNL     1       3.058   6.469  17.166  0.00  0.00    +0.000 NA
ATOM      8  C   UNL     1       2.956   7.759  17.549  0.00  0.00    +0.000 A 
ATOM      9  N   UNL     1       2.502   8.247  18.722  0.00  0.00    +0.000 NA
ATOM     10  C   UNL     1       2.123   7.262  19.555  0.00  0.00    +0.000 A 
ATOM     11  H   UNL     1       1.861   3.636  17.761  0.00  0.00    +0.000 HD
ENDROOT
BRANCH   6  12
ATOM     12  S   UNL     1       4.067   3.343  18.013  0.00  0.00    +0.000 S 
ATOM     13  O   UNL     1       4.287   3.477  19.438  0.00  0.00    +0.000 OA
ATOM     14  O   UNL     1       3.950   2.030  17.417  0.00  0.00    +0.000 OA
BRANCH  12  15
ATOM     15  C   UNL     1       5.371   4.189  17.168  0.00  0.00    +0.000 A 
ATOM     16  C   UNL     1       5.633   3.810  15.840  0.00  0.00    +0.000 A 
ATOM     17  C   UNL     1       6.643   4.438  15.118  0.00  0.00    +0.000 A 
ATOM     18  C   UNL     1       7.394   5.443  15.720  0.00  0.00    +0.000 A 
ATOM     19  C   UNL     1       7.129   5.832  17.039  0.00  0.00    +0.000 A 
ATOM     20 CL   UNL     1       8.118   7.097  17.688  0.00  0.00    +0.000 Cl
ATOM     21  C   UNL     1       6.107   5.212  17.780  0.00  0.00    +0.000 A 
ATOM     22 CL   UNL     1       5.793   5.741  19.403  0.00  0.00    +0.000 Cl
ENDBRANCH  12  15
ENDBRANCH   6  12
BRANCH   3  23
ATOM     23  O   UNL     1       1.486   3.973  20.611  0.00  0.00    +0.000 OA
ATOM     24  C   UNL     1       2.089   3.449  21.786  0.00  0.00    +0.000 C 
ENDBRANCH   3  23
BRANCH   1  25
ATOM     25  C   UNL     1       1.382   8.607  21.548  0.00  0.00    +0.000 C 
BRANCH  25  26
ATOM     26  C   UNL     1      -0.095   8.947  21.701  0.00  0.00    +0.000 C 
BRANCH  26  28
ATOM     27  C   UNL     1      -0.983  10.670  23.042  0.00  0.00    +0.000 C 
ATOM     28  O   UNL     1      -0.239  10.360  21.869  0.00  0.00    +0.000 OA
ENDBRANCH  26  28
ENDBRANCH  25  26
ENDBRANCH   1  25
TORSDOF 6
ENDMDL
MODEL 5
REMARK VINA RESULT:      -5.6      2.935      4.205
REMARK  Name = 
REMARK  8 active torsions:
REMARK  status: ('A' for Active; 'I' for Inactive)
REMARK    1  A    between atoms: C_1  and  O_2
REMARK    2  A    between atoms: O_2  and  C_3
REMARK    3  A    between atoms: C_3  and  C_4
REMARK    4  A    between atoms: C_4  and  N_5
REMARK    5  A    between atoms: C_7  and  O_8
REMARK    6  A    between atoms: O_8  and  C_9
REMARK    7  A    between atoms: N_12  and  S_13
REMARK    8  A    between atoms: S_13  and  C_16
REMARK                            x       y       z     vdW  Elec       q    Type
REMARK                         _______ _______ _______ _____ _____    ______ ____
ROOT
ATOM      1  N   UNL     1       1.042  10.324  18.354  0.00  0.00    +0.000 N 
ATOM      2  N   UNL     1       1.680  11.308  19.035  0.00  0.00    +0.000 NA
ATOM      3  C   UNL     1       0.678  12.102  19.424  0.00  0.00    +0.000 A 
ATOM      4  C   UNL     1      -0.577  11.667  18.981  0.00  0.00    +0.000 A 
ATOM      5  C   UNL     1      -1.902  12.072  19.038  0.00  0.00    +0.000 A 
ATOM      6  N   UNL     1      -2.327  13.255  19.671  0.00  0.00    +0.000 N 
ATOM      7  N   UNL     1      -2.867  11.328  18.470  0.00  0.00    +0.000 NA
ATOM      8  C   UNL     1      -2.476  10.217  17.811  0.00  0.00    +0.000 A 
ATOM      9  N   UNL     1      -1.227   9.726  17.672  0.00  0.00    +0.000 NA
ATOM     10  C   UNL     1      -0.319  10.498  18.295  0.00  0.00    +0.000 A 
ATOM     11  H   UNL     1      -1.783  14.092  19.468  0.00  0.00    +0.000 HD
ENDROOT
BRANCH   6  12
ATOM     12  S   UNL     1      -2.626  13.153  21.319  0.00  0.00    +0.000 S 
ATOM     13  O   UNL     1      -2.132  11.881  21.807  0.00  0.00    +0.000 OA
ATOM     14  O   UNL     1      -2.165  14.388  21.915  0.00  0.00    +0.000 OA
BRANCH  12  15
ATOM     15  C   UNL     1      -4.391  13.143  21.431  0.00  0.00    +0.000 A 
ATOM     16  C   UNL     1      -5.116  13.278  20.235  0.00  0.00    +0.000 A 
ATOM     17  C   UNL     1      -6.507  13.275  20.253  0.00  0.00    +0.000 A 
ATOM     18  C   UNL     1      -7.177  13.138  21.465  0.00  0.00    +0.000 A 
ATOM     19  C   UNL     1      -6.459  12.990  22.658  0.00  0.00    +0.000 A 
ATOM     20 CL   UNL     1      -7.392  12.821  24.107  0.00  0.00    +0.000 Cl
ATOM     21  C   UNL     1      -5.053  12.985  22.656  0.00  0.00    +0.000 A 
ATOM     22 CL   UNL     1      -4.202  12.774  24.153  0.00  0.00    +0.000 Cl
ENDBRANCH  12  15
ENDBRANCH   6  12
BRANCH   3  23
ATOM     23  O   UNL     1       0.897  13.228  20.139  0.00  0.00    +0.000 OA
ATOM     24  C   UNL     1       2.252  13.438  20.514  0.00  0.00    +0.000 C 
ENDBRANCH   3  23
BRANCH   1  25
ATOM     25  C   UNL     1       1.791   9.225  17.785  0.00  0.00    +0.000 C 
BRANCH  25  26
ATOM     26  C   UNL     1       2.119   8.146  18.808  0.00  0.00    +0.000 C 
BRANCH  26  28
ATOM     27  C   UNL     1       3.220   6.069  18.984  0.00  0.00    +0.000 C 
ATOM     28  O   UNL     1       2.501   6.949  18.126  0.00  0.00    +0.000 OA
ENDBRANCH  26  28
ENDBRANCH  25  26
ENDBRANCH   1  25
TORSDOF 6
ENDMDL
MODEL 6
REMARK VINA RESULT:      -5.6      3.292      4.515
REMARK  Name = 
REMARK  8 active torsions:
REMARK  status: ('A' for Active; 'I' for Inactive)
REMARK    1  A    between atoms: C_1  and  O_2
REMARK    2  A    between atoms: O_2  and  C_3
REMARK    3  A    between atoms: C_3  and  C_4
REMARK    4  A    between atoms: C_4  and  N_5
REMARK    5  A    between atoms: C_7  and  O_8
REMARK    6  A    between atoms: O_8  and  C_9
REMARK    7  A    between atoms: N_12  and  S_13
REMARK    8  A    between atoms: S_13  and  C_16
REMARK                            x       y       z     vdW  Elec       q    Type
REMARK                         _______ _______ _______ _____ _____    ______ ____
ROOT
ATOM      1  N   UNL     1       1.251   8.939  19.822  0.00  0.00    +0.000 N 
ATOM      2  N   UNL     1       0.939   9.737  18.770  0.00  0.00    +0.000 NA
ATOM      3  C   UNL     1       0.242  10.724  19.339  0.00  0.00    +0.000 A 
ATOM      4  C   UNL     1       0.073  10.560  20.719  0.00  0.00    +0.000 A 
ATOM      5  C   UNL     1      -0.551  11.202  21.778  0.00  0.00    +0.000 A 
ATOM      6  N   UNL     1      -1.308  12.380  21.636  0.00  0.00    +0.000 N 
ATOM      7  N   UNL     1      -0.459  10.706  23.025  0.00  0.00    +0.000 NA
ATOM      8  C   UNL     1       0.216   9.548  23.175  0.00  0.00    +0.000 A 
ATOM      9  N   UNL     1       0.850   8.824  22.230  0.00  0.00    +0.000 NA
ATOM     10  C   UNL     1       0.750   9.395  21.017  0.00  0.00    +0.000 A 
ATOM     11  H   UNL     1      -1.972  12.397  20.863  0.00  0.00    +0.000 HD
ENDROOT
BRANCH   6  12
ATOM     12  S   UNL     1      -0.455  13.824  21.687  0.00  0.00    +0.000 S 
ATOM     13  O   UNL     1       0.948  13.533  21.904  0.00  0.00    +0.000 OA
ATOM     14  O   UNL     1      -0.865  14.605  20.540  0.00  0.00    +0.000 OA
BRANCH  12  15
ATOM     15  C   UNL     1      -1.081  14.637  23.128  0.00  0.00    +0.000 A 
ATOM     16  C   UNL     1      -2.149  14.024  23.804  0.00  0.00    +0.000 A 
ATOM     17  C   UNL     1      -2.686  14.609  24.945  0.00  0.00    +0.000 A 
ATOM     18  C   UNL     1      -2.159  15.809  25.414  0.00  0.00    +0.000 A 
ATOM     19  C   UNL     1      -1.086  16.418  24.751  0.00  0.00    +0.000 A 
ATOM     20 CL   UNL     1      -0.503  17.904  25.423  0.00  0.00    +0.000 Cl
ATOM     21  C   UNL     1      -0.528  15.835  23.600  0.00  0.00    +0.000 A 
ATOM     22 CL   UNL     1       0.818  16.608  22.823  0.00  0.00    +0.000 Cl
ENDBRANCH  12  15
ENDBRANCH   6  12
BRANCH   3  23
ATOM     23  O   UNL     1      -0.271  11.743  18.614  0.00  0.00    +0.000 OA
ATOM     24  C   UNL     1      -1.581  11.512  18.110  0.00  0.00    +0.000 C 
ENDBRANCH   3  23
BRANCH   1  25
ATOM     25  C   UNL     1       2.048   7.749  19.626  0.00  0.00    +0.000 C 
BRANCH  25  26
ATOM     26  C   UNL     1       2.492   7.571  18.180  0.00  0.00    +0.000 C 
BRANCH  26  28
ATOM     27  C   UNL     1       2.302   5.225  18.060  0.00  0.00    +0.000 C 
ATOM     28  O   UNL     1       3.196   6.333  18.050  0.00  0.00    +0.000 OA
ENDBRANCH  26  28
ENDBRANCH  25  26
ENDBRANCH   1  25
TORSDOF 6
ENDMDL
MODEL 7
REMARK VINA RESULT:      -5.6      3.319      4.451
REMARK  Name = 
REMARK  8 active torsions:
REMARK  status: ('A' for Active; 'I' for Inactive)
REMARK    1  A    between atoms: C_1  and  O_2
REMARK    2  A    between atoms: O_2  and  C_3
REMARK    3  A    between atoms: C_3  and  C_4
REMARK    4  A    between atoms: C_4  and  N_5
REMARK    5  A    between atoms: C_7  and  O_8
REMARK    6  A    between atoms: O_8  and  C_9
REMARK    7  A    between atoms: N_12  and  S_13
REMARK    8  A    between atoms: S_13  and  C_16
REMARK                            x       y       z     vdW  Elec       q    Type
REMARK                         _______ _______ _______ _____ _____    ______ ____
ROOT
ATOM      1  N   UNL     1       1.221   9.217  19.928  0.00  0.00    +0.000 N 
ATOM      2  N   UNL     1       1.162  10.122  18.919  0.00  0.00    +0.000 NA
ATOM      3  C   UNL     1       0.560  11.169  19.491  0.00  0.00    +0.000 A 
ATOM      4  C   UNL     1       0.204  10.943  20.826  0.00  0.00    +0.000 A 
ATOM      5  C   UNL     1      -0.436  11.605  21.862  0.00  0.00    +0.000 A 
ATOM      6  N   UNL     1      -0.982  12.897  21.740  0.00  0.00    +0.000 N 
ATOM      7  N   UNL     1      -0.570  11.020  23.066  0.00  0.00    +0.000 NA
ATOM      8  C   UNL     1      -0.102   9.760  23.190  0.00  0.00    +0.000 A 
ATOM      9  N   UNL     1       0.523   9.008  22.261  0.00  0.00    +0.000 NA
ATOM     10  C   UNL     1       0.656   9.667  21.096  0.00  0.00    +0.000 A 
ATOM     11  H   UNL     1      -1.539  13.071  20.905  0.00  0.00    +0.000 HD
ENDROOT
BRANCH   6  12
ATOM     12  S   UNL     1       0.069  14.178  22.004  0.00  0.00    +0.000 S 
ATOM     13  O   UNL     1      -0.248  14.789  23.279  0.00  0.00    +0.000 OA
ATOM     14  O   UNL     1       1.407  13.693  21.745  0.00  0.00    +0.000 OA
BRANCH  12  15
ATOM     15  C   UNL     1      -0.332  15.329  20.723  0.00  0.00    +0.000 A 
ATOM     16  C   UNL     1       0.623  15.527  19.711  0.00  0.00    +0.000 A 
ATOM     17  C   UNL     1       0.370  16.416  18.672  0.00  0.00    +0.000 A 
ATOM     18  C   UNL     1      -0.836  17.110  18.640  0.00  0.00    +0.000 A 
ATOM     19  C   UNL     1      -1.797  16.906  19.640  0.00  0.00    +0.000 A 
ATOM     20 CL   UNL     1      -3.264  17.815  19.501  0.00  0.00    +0.000 Cl
ATOM     21  C   UNL     1      -1.558  16.006  20.693  0.00  0.00    +0.000 A 
ATOM     22 CL   UNL     1      -2.784  15.763  21.897  0.00  0.00    +0.000 Cl
ENDBRANCH  12  15
ENDBRANCH   6  12
BRANCH   3  23
ATOM     23  O   UNL     1       0.298  12.303  18.804  0.00  0.00    +0.000 OA
ATOM     24  C   UNL     1      -1.004  12.365  18.237  0.00  0.00    +0.000 C 
ENDBRANCH   3  23
BRANCH   1  25
ATOM     25  C   UNL     1       1.845   7.929  19.719  0.00  0.00    +0.000 C 
BRANCH  25  26
ATOM     26  C   UNL     1       2.383   7.761  18.304  0.00  0.00    +0.000 C 
BRANCH  26  28
ATOM     27  C   UNL     1       2.939   5.639  19.167  0.00  0.00    +0.000 C 
ATOM     28  O   UNL     1       2.526   6.367  18.016  0.00  0.00    +0.000 OA
ENDBRANCH  26  28
ENDBRANCH  25  26
ENDBRANCH   1  25
TORSDOF 6
ENDMDL
MODEL 8
REMARK VINA RESULT:      -5.5      5.501      6.777
REMARK  Name = 
REMARK  8 active torsions:
REMARK  status: ('A' for Active; 'I' for Inactive)
REMARK    1  A    between atoms: C_1  and  O_2
REMARK    2  A    between atoms: O_2  and  C_3
REMARK    3  A    between atoms: C_3  and  C_4
REMARK    4  A    between atoms: C_4  and  N_5
REMARK    5  A    between atoms: C_7  and  O_8
REMARK    6  A    between atoms: O_8  and  C_9
REMARK    7  A    between atoms: N_12  and  S_13
REMARK    8  A    between atoms: S_13  and  C_16
REMARK                            x       y       z     vdW  Elec       q    Type
REMARK                         _______ _______ _______ _____ _____    ______ ____
ROOT
ATOM      1  N   UNL     1      -3.538  11.340  16.875  0.00  0.00    +0.000 N 
ATOM      2  N   UNL     1      -4.871  11.164  17.059  0.00  0.00    +0.000 NA
ATOM      3  C   UNL     1      -5.054  11.559  18.322  0.00  0.00    +0.000 A 
ATOM      4  C   UNL     1      -3.870  11.949  18.958  0.00  0.00    +0.000 A 
ATOM      5  C   UNL     1      -3.451  12.395  20.203  0.00  0.00    +0.000 A 
ATOM      6  N   UNL     1      -4.316  12.557  21.301  0.00  0.00    +0.000 N 
ATOM      7  N   UNL     1      -2.159  12.696  20.419  0.00  0.00    +0.000 NA
ATOM      8  C   UNL     1      -1.303  12.496  19.395  0.00  0.00    +0.000 A 
ATOM      9  N   UNL     1      -1.581  12.057  18.150  0.00  0.00    +0.000 NA
ATOM     10  C   UNL     1      -2.893  11.811  17.993  0.00  0.00    +0.000 A 
ATOM     11  H   UNL     1      -4.966  11.793  21.478  0.00  0.00    +0.000 HD
ENDROOT
BRANCH   6  12
ATOM     12  S   UNL     1      -5.119  14.027  21.406  0.00  0.00    +0.000 S 
ATOM     13  O   UNL     1      -4.716  14.862  20.293  0.00  0.00    +0.000 OA
ATOM     14  O   UNL     1      -6.519  13.735  21.625  0.00  0.00    +0.000 OA
BRANCH  12  15
ATOM     15  C   UNL     1      -4.494  14.748  22.896  0.00  0.00    +0.000 A 
ATOM     16  C   UNL     1      -3.409  14.107  23.519  0.00  0.00    +0.000 A 
ATOM     17  C   UNL     1      -2.868  14.624  24.691  0.00  0.00    +0.000 A 
ATOM     18  C   UNL     1      -3.408  15.781  25.245  0.00  0.00    +0.000 A 
ATOM     19  C   UNL     1      -4.481  16.431  24.620  0.00  0.00    +0.000 A 
ATOM     20 CL   UNL     1      -5.072  17.865  25.390  0.00  0.00    +0.000 Cl
ATOM     21  C   UNL     1      -5.035  15.924  23.431  0.00  0.00    +0.000 A 
ATOM     22 CL   UNL     1      -6.347  16.773  22.677  0.00  0.00    +0.000 Cl
ENDBRANCH  12  15
ENDBRANCH   6  12
BRANCH   3  23
ATOM     23  O   UNL     1      -6.272  11.529  18.908  0.00  0.00    +0.000 OA
ATOM     24  C   UNL     1      -6.784  10.224  19.146  0.00  0.00    +0.000 C 
ENDBRANCH   3  23
BRANCH   1  25
ATOM     25  C   UNL     1      -2.932  11.048  15.595  0.00  0.00    +0.000 C 
BRANCH  25  26
ATOM     26  C   UNL     1      -3.766  10.088  14.756  0.00  0.00    +0.000 C 
BRANCH  26  28
ATOM     27  C   UNL     1      -4.207   9.804  12.458  0.00  0.00    +0.000 C 
ATOM     28  O   UNL     1      -3.199   9.992  13.446  0.00  0.00    +0.000 OA
ENDBRANCH  26  28
ENDBRANCH  25  26
ENDBRANCH   1  25
TORSDOF 6
ENDMDL
MODEL 9
REMARK VINA RESULT:      -5.5      4.966      6.537
REMARK  Name = 
REMARK  8 active torsions:
REMARK  status: ('A' for Active; 'I' for Inactive)
REMARK    1  A    between atoms: C_1  and  O_2
REMARK    2  A    between atoms: O_2  and  C_3
REMARK    3  A    between atoms: C_3  and  C_4
REMARK    4  A    between atoms: C_4  and  N_5
REMARK    5  A    between atoms: C_7  and  O_8
REMARK    6  A    between atoms: O_8  and  C_9
REMARK    7  A    between atoms: N_12  and  S_13
REMARK    8  A    between atoms: S_13  and  C_16
REMARK                            x       y       z     vdW  Elec       q    Type
REMARK                         _______ _______ _______ _____ _____    ______ ____
ROOT
ATOM      1  N   UNL     1      -2.719  10.902  17.554  0.00  0.00    +0.000 N 
ATOM      2  N   UNL     1      -1.534  11.366  18.022  0.00  0.00    +0.000 NA
ATOM      3  C   UNL     1      -1.896  12.109  19.072  0.00  0.00    +0.000 A 
ATOM      4  C   UNL     1      -3.282  12.157  19.265  0.00  0.00    +0.000 A 
ATOM      5  C   UNL     1      -4.197  12.757  20.116  0.00  0.00    +0.000 A 
ATOM      6  N   UNL     1      -3.833  13.630  21.159  0.00  0.00    +0.000 N 
ATOM      7  N   UNL     1      -5.514  12.525  19.974  0.00  0.00    +0.000 NA
ATOM      8  C   UNL     1      -5.889  11.733  18.947  0.00  0.00    +0.000 A 
ATOM      9  N   UNL     1      -5.104  11.107  18.047  0.00  0.00    +0.000 NA
ATOM     10  C   UNL     1      -3.801  11.352  18.271  0.00  0.00    +0.000 A 
ATOM     11  H   UNL     1      -3.151  14.349  20.924  0.00  0.00    +0.000 HD
ENDROOT
BRANCH   6  12
ATOM     12  S   UNL     1      -3.430  12.915  22.622  0.00  0.00    +0.000 S 
ATOM     13  O   UNL     1      -4.597  12.237  23.150  0.00  0.00    +0.000 OA
ATOM     14  O   UNL     1      -2.197  12.186  22.417  0.00  0.00    +0.000 OA
BRANCH  12  15
ATOM     15  C   UNL     1      -3.061  14.286  23.678  0.00  0.00    +0.000 A 
ATOM     16  C   UNL     1      -1.737  14.413  24.133  0.00  0.00    +0.000 A 
ATOM     17  C   UNL     1      -1.380  15.469  24.963  0.00  0.00    +0.000 A 
ATOM     18  C   UNL     1      -2.341  16.401  25.342  0.00  0.00    +0.000 A 
ATOM     19  C   UNL     1      -3.659  16.286  24.881  0.00  0.00    +0.000 A 
ATOM     20 CL   UNL     1      -4.774  17.502  25.408  0.00  0.00    +0.000 Cl
ATOM     21  C   UNL     1      -4.035  15.227  24.036  0.00  0.00    +0.000 A 
ATOM     22 CL   UNL     1      -5.672  15.135  23.466  0.00  0.00    +0.000 Cl
ENDBRANCH  12  15
ENDBRANCH   6  12
BRANCH   3  23
ATOM     23  O   UNL     1      -0.988  12.769  19.825  0.00  0.00    +0.000 OA
ATOM     24  C   UNL     1      -0.526  13.990  19.261  0.00  0.00    +0.000 C 
ENDBRANCH   3  23
BRANCH   1  25
ATOM     25  C   UNL     1      -2.757  10.013  16.414  0.00  0.00    +0.000 C 
BRANCH  25  26
ATOM     26  C   UNL     1      -3.249  10.703  15.148  0.00  0.00    +0.000 C 
BRANCH  26  28
ATOM     27  C   UNL     1      -3.694   9.842  13.000  0.00  0.00    +0.000 C 
ATOM     28  O   UNL     1      -2.706  10.036  14.005  0.00  0.00    +0.000 OA
ENDBRANCH  26  28
ENDBRANCH  25  26
ENDBRANCH   1  25
TORSDOF 6
ENDMDL
