MODEL 1
REMARK VINA RESULT:      -7.1      0.000      0.000
REMARK  Name = 
REMARK  5 active torsions:
REMARK  status: ('A' for Active; 'I' for Inactive)
REMARK    1  A    between atoms: C_1  and  C_2
REMARK    2  A    between atoms: C_14  and  C_15
REMARK    3  A    between atoms: C_14  and  C_16
REMARK    4  A    between atoms: C_17  and  O_18
REMARK    5  A    between atoms: C_19  and  O_20
REMARK                            x       y       z     vdW  Elec       q    Type
REMARK                         _______ _______ _______ _____ _____    ______ ____
ROOT
ATOM      1  C   UNL     1       7.746   7.281  17.762  0.00  0.00    +0.000 C 
ATOM      2  C   UNL     1       7.075   6.092  17.096  0.00  0.00    +0.000 A 
ATOM      3  C   UNL     1       7.396   5.787  15.828  0.00  0.00    +0.000 A 
ATOM      4  C   UNL     1       6.777   4.750  14.983  0.00  0.00    +0.000 A 
ATOM      5  O   UNL     1       7.053   4.698  13.790  0.00  0.00    +0.000 OA
ATOM      6  S   UNL     1       5.702   3.583  15.716  0.00  0.00    +0.000 S 
ATOM      7  C   UNL     1       5.223   4.321  17.271  0.00  0.00    +0.000 A 
ATOM      8  C   UNL     1       4.040   3.894  17.939  0.00  0.00    +0.000 A 
ATOM      9  C   UNL     1       3.609   4.696  18.991  0.00  0.00    +0.000 A 
ATOM     10  C   UNL     1       4.399   5.643  19.597  0.00  0.00    +0.000 A 
ATOM     11  C   UNL     1       5.628   5.922  19.065  0.00  0.00    +0.000 A 
ATOM     12  C   UNL     1       5.988   5.397  17.819  0.00  0.00    +0.000 A 
ATOM     13  O   UNL     1       2.335   4.652  19.441  0.00  0.00    +0.000 OA
ATOM     14  C   UNL     1       1.959   3.343  19.859  0.00  0.00    +0.000 C 
ATOM     15  C   UNL     1       2.817   2.899  21.071  0.00  0.00    +0.000 C 
ATOM     16  C   UNL     1       0.526   3.610  20.346  0.00  0.00    +0.000 C 
ATOM     17  C   UNL     1       2.009   2.373  18.637  0.00  0.00    +0.000 C 
ATOM     18  C   UNL     1       3.148   2.715  17.574  0.00  0.00    +0.000 C 
ENDROOT
BRANCH  17  19
ATOM     19  O   UNL     1       2.032   1.005  19.073  0.00  0.00    +0.000 OA
ATOM     20  H   UNL     1       1.137   0.757  19.358  0.00  0.00    +0.000 HD
ENDBRANCH  17  19
BRANCH  18  21
ATOM     21  O   UNL     1       3.921   1.543  17.307  0.00  0.00    +0.000 OA
ATOM     22  H   UNL     1       4.258   1.214  18.158  0.00  0.00    +0.000 HD
ENDBRANCH  18  21
TORSDOF 2
ENDMDL
MODEL 2
REMARK VINA RESULT:      -7.1      1.867      3.259
REMARK  Name = 
REMARK  5 active torsions:
REMARK  status: ('A' for Active; 'I' for Inactive)
REMARK    1  A    between atoms: C_1  and  C_2
REMARK    2  A    between atoms: C_14  and  C_15
REMARK    3  A    between atoms: C_14  and  C_16
REMARK    4  A    between atoms: C_17  and  O_18
REMARK    5  A    between atoms: C_19  and  O_20
REMARK                            x       y       z     vdW  Elec       q    Type
REMARK                         _______ _______ _______ _____ _____    ______ ____
ROOT
ATOM      1  C   UNL     1       6.256   3.640  14.560  0.00  0.00    +0.000 C 
ATOM      2  C   UNL     1       6.010   4.683  15.637  0.00  0.00    +0.000 A 
ATOM      3  C   UNL     1       6.835   5.739  15.722  0.00  0.00    +0.000 A 
ATOM      4  C   UNL     1       6.825   6.788  16.758  0.00  0.00    +0.000 A 
ATOM      5  O   UNL     1       7.744   7.596  16.809  0.00  0.00    +0.000 OA
ATOM      6  S   UNL     1       5.471   6.885  17.860  0.00  0.00    +0.000 S 
ATOM      7  C   UNL     1       4.681   5.287  17.749  0.00  0.00    +0.000 A 
ATOM      8  C   UNL     1       3.828   4.828  18.794  0.00  0.00    +0.000 A 
ATOM      9  C   UNL     1       3.473   3.484  18.748  0.00  0.00    +0.000 A 
ATOM     10  C   UNL     1       3.625   2.696  17.632  0.00  0.00    +0.000 A 
ATOM     11  C   UNL     1       4.281   3.204  16.545  0.00  0.00    +0.000 A 
ATOM     12  C   UNL     1       4.955   4.427  16.641  0.00  0.00    +0.000 A 
ATOM     13  O   UNL     1       3.025   2.830  19.843  0.00  0.00    +0.000 OA
ATOM     14  C   UNL     1       1.869   3.450  20.400  0.00  0.00    +0.000 C 
ATOM     15  C   UNL     1       0.689   3.386  19.396  0.00  0.00    +0.000 C 
ATOM     16  C   UNL     1       1.574   2.488  21.561  0.00  0.00    +0.000 C 
ATOM     17  C   UNL     1       2.232   4.887  20.886  0.00  0.00    +0.000 C 
ATOM     18  C   UNL     1       3.339   5.618  20.000  0.00  0.00    +0.000 C 
ENDROOT
BRANCH  17  19
ATOM     19  O   UNL     1       1.048   5.676  21.078  0.00  0.00    +0.000 OA
ATOM     20  H   UNL     1       1.276   6.448  21.619  0.00  0.00    +0.000 HD
ENDBRANCH  17  19
BRANCH  18  21
ATOM     21  O   UNL     1       2.868   6.912  19.617  0.00  0.00    +0.000 OA
ATOM     22  H   UNL     1       2.596   6.860  18.684  0.00  0.00    +0.000 HD
ENDBRANCH  18  21
TORSDOF 2
ENDMDL
MODEL 3
REMARK VINA RESULT:      -7.0      3.412      5.151
REMARK  Name = 
REMARK  5 active torsions:
REMARK  status: ('A' for Active; 'I' for Inactive)
REMARK    1  A    between atoms: C_1  and  C_2
REMARK    2  A    between atoms: C_14  and  C_15
REMARK    3  A    between atoms: C_14  and  C_16
REMARK    4  A    between atoms: C_17  and  O_18
REMARK    5  A    between atoms: C_19  and  O_20
REMARK                            x       y       z     vdW  Elec       q    Type
REMARK                         _______ _______ _______ _____ _____    ______ ____
ROOT
ATOM      1  C   UNL     1       0.264   8.547  21.636  0.00  0.00    +0.000 C 
ATOM      2  C   UNL     1       1.107   8.479  20.374  0.00  0.00    +0.000 A 
ATOM      3  C   UNL     1       1.095   9.519  19.524  0.00  0.00    +0.000 A 
ATOM      4  C   UNL     1       1.753   9.594  18.207  0.00  0.00    +0.000 A 
ATOM      5  O   UNL     1       1.515  10.539  17.465  0.00  0.00    +0.000 OA
ATOM      6  S   UNL     1       2.902   8.355  17.757  0.00  0.00    +0.000 S 
ATOM      7  C   UNL     1       2.558   6.994  18.862  0.00  0.00    +0.000 A 
ATOM      8  C   UNL     1       2.970   5.672  18.529  0.00  0.00    +0.000 A 
ATOM      9  C   UNL     1       2.435   4.651  19.308  0.00  0.00    +0.000 A 
ATOM     10  C   UNL     1       1.821   4.861  20.519  0.00  0.00    +0.000 A 
ATOM     11  C   UNL     1       1.594   6.145  20.935  0.00  0.00    +0.000 A 
ATOM     12  C   UNL     1       1.802   7.213  20.056  0.00  0.00    +0.000 A 
ATOM     13  O   UNL     1       2.408   3.370  18.877  0.00  0.00    +0.000 OA
ATOM     14  C   UNL     1       3.710   2.885  18.560  0.00  0.00    +0.000 C 
ATOM     15  C   UNL     1       4.595   2.852  19.832  0.00  0.00    +0.000 C 
ATOM     16  C   UNL     1       3.375   1.439  18.161  0.00  0.00    +0.000 C 
ATOM     17  C   UNL     1       4.300   3.714  17.378  0.00  0.00    +0.000 C 
ATOM     18  C   UNL     1       3.854   5.246  17.365  0.00  0.00    +0.000 C 
ENDROOT
BRANCH  17  19
ATOM     19  O   UNL     1       5.723   3.538  17.292  0.00  0.00    +0.000 OA
ATOM     20  H   UNL     1       6.154   4.282  17.743  0.00  0.00    +0.000 HD
ENDBRANCH  17  19
BRANCH  18  21
ATOM     21  O   UNL     1       5.009   6.081  17.258  0.00  0.00    +0.000 OA
ATOM     22  H   UNL     1       4.762   6.965  17.582  0.00  0.00    +0.000 HD
ENDBRANCH  18  21
TORSDOF 2
ENDMDL
MODEL 4
REMARK VINA RESULT:      -6.6      4.295      6.290
REMARK  Name = 
REMARK  5 active torsions:
REMARK  status: ('A' for Active; 'I' for Inactive)
REMARK    1  A    between atoms: C_1  and  C_2
REMARK    2  A    between atoms: C_14  and  C_15
REMARK    3  A    between atoms: C_14  and  C_16
REMARK    4  A    between atoms: C_17  and  O_18
REMARK    5  A    between atoms: C_19  and  O_20
REMARK                            x       y       z     vdW  Elec       q    Type
REMARK                         _______ _______ _______ _____ _____    ______ ____
ROOT
ATOM      1  C   UNL     1       1.219  11.409  18.406  0.00  0.00    +0.000 C 
ATOM      2  C   UNL     1       1.112  10.313  19.453  0.00  0.00    +0.000 A 
ATOM      3  C   UNL     1       0.685  10.630  20.687  0.00  0.00    +0.000 A 
ATOM      4  C   UNL     1       0.621   9.737  21.857  0.00  0.00    +0.000 A 
ATOM      5  O   UNL     1       0.374  10.204  22.962  0.00  0.00    +0.000 OA
ATOM      6  S   UNL     1       0.850   8.018  21.631  0.00  0.00    +0.000 S 
ATOM      7  C   UNL     1       1.649   7.872  20.040  0.00  0.00    +0.000 A 
ATOM      8  C   UNL     1       2.383   6.698  19.706  0.00  0.00    +0.000 A 
ATOM      9  C   UNL     1       3.181   6.780  18.569  0.00  0.00    +0.000 A 
ATOM     10  C   UNL     1       3.056   7.766  17.622  0.00  0.00    +0.000 A 
ATOM     11  C   UNL     1       2.200   8.808  17.856  0.00  0.00    +0.000 A 
ATOM     12  C   UNL     1       1.616   8.964  19.119  0.00  0.00    +0.000 A 
ATOM     13  O   UNL     1       4.208   5.925  18.360  0.00  0.00    +0.000 OA
ATOM     14  C   UNL     1       3.780   4.566  18.357  0.00  0.00    +0.000 C 
ATOM     15  C   UNL     1       2.812   4.310  17.174  0.00  0.00    +0.000 C 
ATOM     16  C   UNL     1       5.112   3.859  18.059  0.00  0.00    +0.000 C 
ATOM     17  C   UNL     1       3.205   4.198  19.760  0.00  0.00    +0.000 C 
ATOM     18  C   UNL     1       2.462   5.401  20.499  0.00  0.00    +0.000 C 
ENDROOT
BRANCH  17  19
ATOM     19  O   UNL     1       2.414   3.002  19.689  0.00  0.00    +0.000 OA
ATOM     20  H   UNL     1       3.011   2.242  19.599  0.00  0.00    +0.000 HD
ENDBRANCH  17  19
BRANCH  18  21
ATOM     21  O   UNL     1       1.166   4.974  20.926  0.00  0.00    +0.000 OA
ATOM     22  H   UNL     1       0.973   4.133  20.476  0.00  0.00    +0.000 HD
ENDBRANCH  18  21
TORSDOF 2
ENDMDL
MODEL 5
REMARK VINA RESULT:      -6.5      3.647      5.892
REMARK  Name = 
REMARK  5 active torsions:
REMARK  status: ('A' for Active; 'I' for Inactive)
REMARK    1  A    between atoms: C_1  and  C_2
REMARK    2  A    between atoms: C_14  and  C_15
REMARK    3  A    between atoms: C_14  and  C_16
REMARK    4  A    between atoms: C_17  and  O_18
REMARK    5  A    between atoms: C_19  and  O_20
REMARK                            x       y       z     vdW  Elec       q    Type
REMARK                         _______ _______ _______ _____ _____    ______ ____
ROOT
ATOM      1  C   UNL     1       1.103  10.438  18.037  0.00  0.00    +0.000 C 
ATOM      2  C   UNL     1       1.273   9.269  18.992  0.00  0.00    +0.000 A 
ATOM      3  C   UNL     1       0.723   9.342  20.216  0.00  0.00    +0.000 A 
ATOM      4  C   UNL     1       0.871   8.368  21.312  0.00  0.00    +0.000 A 
ATOM      5  O   UNL     1       0.456   8.647  22.430  0.00  0.00    +0.000 OA
ATOM      6  S   UNL     1       1.592   6.810  20.976  0.00  0.00    +0.000 S 
ATOM      7  C   UNL     1       2.463   7.037  19.433  0.00  0.00    +0.000 A 
ATOM      8  C   UNL     1       3.515   6.152  19.061  0.00  0.00    +0.000 A 
ATOM      9  C   UNL     1       4.302   6.556  17.986  0.00  0.00    +0.000 A 
ATOM     10  C   UNL     1       3.937   7.546  17.107  0.00  0.00    +0.000 A 
ATOM     11  C   UNL     1       2.809   8.279  17.363  0.00  0.00    +0.000 A 
ATOM     12  C   UNL     1       2.155   8.152  18.593  0.00  0.00    +0.000 A 
ATOM     13  O   UNL     1       5.538   6.048  17.782  0.00  0.00    +0.000 OA
ATOM     14  C   UNL     1       5.518   4.629  17.652  0.00  0.00    +0.000 C 
ATOM     15  C   UNL     1       4.712   4.216  16.394  0.00  0.00    +0.000 C 
ATOM     16  C   UNL     1       7.008   4.356  17.389  0.00  0.00    +0.000 C 
ATOM     17  C   UNL     1       5.016   3.992  18.984  0.00  0.00    +0.000 C 
ATOM     18  C   UNL     1       3.931   4.866  19.761  0.00  0.00    +0.000 C 
ENDROOT
BRANCH  17  19
ATOM     19  O   UNL     1       4.605   2.632  18.776  0.00  0.00    +0.000 OA
ATOM     20  H   UNL     1       4.647   2.439  17.825  0.00  0.00    +0.000 HD
ENDBRANCH  17  19
BRANCH  18  21
ATOM     21  O   UNL     1       2.796   4.054  20.072  0.00  0.00    +0.000 OA
ATOM     22  H   UNL     1       2.643   4.121  21.031  0.00  0.00    +0.000 HD
ENDBRANCH  18  21
TORSDOF 2
ENDMDL
MODEL 6
REMARK VINA RESULT:      -6.4      4.725      6.591
REMARK  Name = 
REMARK  5 active torsions:
REMARK  status: ('A' for Active; 'I' for Inactive)
REMARK    1  A    between atoms: C_1  and  C_2
REMARK    2  A    between atoms: C_14  and  C_15
REMARK    3  A    between atoms: C_14  and  C_16
REMARK    4  A    between atoms: C_17  and  O_18
REMARK    5  A    between atoms: C_19  and  O_20
REMARK                            x       y       z     vdW  Elec       q    Type
REMARK                         _______ _______ _______ _____ _____    ______ ____
ROOT
ATOM      1  C   UNL     1       4.453   5.428  16.751  0.00  0.00    +0.000 C 
ATOM      2  C   UNL     1       3.743   5.528  18.090  0.00  0.00    +0.000 A 
ATOM      3  C   UNL     1       3.606   4.422  18.840  0.00  0.00    +0.000 A 
ATOM      4  C   UNL     1       2.858   4.296  20.104  0.00  0.00    +0.000 A 
ATOM      5  O   UNL     1       2.675   3.188  20.591  0.00  0.00    +0.000 OA
ATOM      6  S   UNL     1       2.294   5.744  20.907  0.00  0.00    +0.000 S 
ATOM      7  C   UNL     1       2.335   7.008  19.646  0.00  0.00    +0.000 A 
ATOM      8  C   UNL     1       1.552   8.189  19.782  0.00  0.00    +0.000 A 
ATOM      9  C   UNL     1       1.443   8.985  18.646  0.00  0.00    +0.000 A 
ATOM     10  C   UNL     1       2.270   8.869  17.555  0.00  0.00    +0.000 A 
ATOM     11  C   UNL     1       3.166   7.836  17.508  0.00  0.00    +0.000 A 
ATOM     12  C   UNL     1       3.102   6.809  18.456  0.00  0.00    +0.000 A 
ATOM     13  O   UNL     1       0.444   9.885  18.503  0.00  0.00    +0.000 OA
ATOM     14  C   UNL     1       0.424  10.835  19.564  0.00  0.00    +0.000 C 
ATOM     15  C   UNL     1       1.721  11.684  19.550  0.00  0.00    +0.000 C 
ATOM     16  C   UNL     1      -0.747  11.724  19.116  0.00  0.00    +0.000 C 
ATOM     17  C   UNL     1       0.142  10.103  20.913  0.00  0.00    +0.000 C 
ATOM     18  C   UNL     1       0.749   8.631  20.999  0.00  0.00    +0.000 C 
ENDROOT
BRANCH  17  19
ATOM     19  O   UNL     1       0.503  10.931  22.029  0.00  0.00    +0.000 OA
ATOM     20  H   UNL     1       1.465  10.885  22.149  0.00  0.00    +0.000 HD
ENDBRANCH  17  19
BRANCH  18  21
ATOM     21  O   UNL     1       1.513   8.497  22.200  0.00  0.00    +0.000 OA
ATOM     22  H   UNL     1       1.249   7.661  22.622  0.00  0.00    +0.000 HD
ENDBRANCH  18  21
TORSDOF 2
ENDMDL
MODEL 7
REMARK VINA RESULT:      -6.1      2.527      6.082
REMARK  Name = 
REMARK  5 active torsions:
REMARK  status: ('A' for Active; 'I' for Inactive)
REMARK    1  A    between atoms: C_1  and  C_2
REMARK    2  A    between atoms: C_14  and  C_15
REMARK    3  A    between atoms: C_14  and  C_16
REMARK    4  A    between atoms: C_17  and  O_18
REMARK    5  A    between atoms: C_19  and  O_20
REMARK                            x       y       z     vdW  Elec       q    Type
REMARK                         _______ _______ _______ _____ _____    ______ ____
ROOT
ATOM      1  C   UNL     1       1.456   2.881  21.025  0.00  0.00    +0.000 C 
ATOM      2  C   UNL     1       1.941   4.216  20.484  0.00  0.00    +0.000 A 
ATOM      3  C   UNL     1       1.393   5.348  20.955  0.00  0.00    +0.000 A 
ATOM      4  C   UNL     1       1.649   6.719  20.479  0.00  0.00    +0.000 A 
ATOM      5  O   UNL     1       0.951   7.641  20.885  0.00  0.00    +0.000 OA
ATOM      6  S   UNL     1       2.981   7.006  19.384  0.00  0.00    +0.000 S 
ATOM      7  C   UNL     1       3.365   5.399  18.705  0.00  0.00    +0.000 A 
ATOM      8  C   UNL     1       4.077   5.285  17.477  0.00  0.00    +0.000 A 
ATOM      9  C   UNL     1       4.099   4.020  16.899  0.00  0.00    +0.000 A 
ATOM     10  C   UNL     1       3.768   2.870  17.574  0.00  0.00    +0.000 A 
ATOM     11  C   UNL     1       3.258   2.967  18.840  0.00  0.00    +0.000 A 
ATOM     12  C   UNL     1       2.897   4.216  19.357  0.00  0.00    +0.000 A 
ATOM     13  O   UNL     1       4.372   3.844  15.586  0.00  0.00    +0.000 OA
ATOM     14  C   UNL     1       5.640   4.385  15.226  0.00  0.00    +0.000 C 
ATOM     15  C   UNL     1       6.774   3.631  15.966  0.00  0.00    +0.000 C 
ATOM     16  C   UNL     1       5.689   4.003  13.738  0.00  0.00    +0.000 C 
ATOM     17  C   UNL     1       5.630   5.928  15.452  0.00  0.00    +0.000 C 
ATOM     18  C   UNL     1       4.736   6.405  16.684  0.00  0.00    +0.000 C 
ENDROOT
BRANCH  17  19
ATOM     19  O   UNL     1       6.968   6.447  15.489  0.00  0.00    +0.000 OA
ATOM     20  H   UNL     1       7.387   6.284  14.628  0.00  0.00    +0.000 HD
ENDBRANCH  17  19
BRANCH  18  21
ATOM     21  O   UNL     1       5.506   7.259  17.533  0.00  0.00    +0.000 OA
ATOM     22  H   UNL     1       6.304   7.519  17.040  0.00  0.00    +0.000 HD
ENDBRANCH  18  21
TORSDOF 2
ENDMDL
MODEL 8
REMARK VINA RESULT:      -6.0      8.462     10.126
REMARK  Name = 
REMARK  5 active torsions:
REMARK  status: ('A' for Active; 'I' for Inactive)
REMARK    1  A    between atoms: C_1  and  C_2
REMARK    2  A    between atoms: C_14  and  C_15
REMARK    3  A    between atoms: C_14  and  C_16
REMARK    4  A    between atoms: C_17  and  O_18
REMARK    5  A    between atoms: C_19  and  O_20
REMARK                            x       y       z     vdW  Elec       q    Type
REMARK                         _______ _______ _______ _____ _____    ______ ____
ROOT
ATOM      1  C   UNL     1       1.291   7.393  21.255  0.00  0.00    +0.000 C 
ATOM      2  C   UNL     1       0.950   8.631  20.442  0.00  0.00    +0.000 A 
ATOM      3  C   UNL     1       1.548   8.815  19.253  0.00  0.00    +0.000 A 
ATOM      4  C   UNL     1       1.433   9.995  18.378  0.00  0.00    +0.000 A 
ATOM      5  O   UNL     1       2.169  10.100  17.405  0.00  0.00    +0.000 OA
ATOM      6  S   UNL     1       0.209  11.195  18.723  0.00  0.00    +0.000 S 
ATOM      7  C   UNL     1      -0.248  10.902  20.424  0.00  0.00    +0.000 A 
ATOM      8  C   UNL     1      -0.876  11.925  21.190  0.00  0.00    +0.000 A 
ATOM      9  C   UNL     1      -0.954  11.702  22.561  0.00  0.00    +0.000 A 
ATOM     10  C   UNL     1      -0.762  10.472  23.143  0.00  0.00    +0.000 A 
ATOM     11  C   UNL     1      -0.338   9.429  22.366  0.00  0.00    +0.000 A 
ATOM     12  C   UNL     1       0.079   9.659  21.050  0.00  0.00    +0.000 A 
ATOM     13  O   UNL     1      -1.145  12.716  23.435  0.00  0.00    +0.000 OA
ATOM     14  C   UNL     1      -2.339  13.443  23.159  0.00  0.00    +0.000 C 
ATOM     15  C   UNL     1      -3.578  12.531  23.342  0.00  0.00    +0.000 C 
ATOM     16  C   UNL     1      -2.310  14.464  24.307  0.00  0.00    +0.000 C 
ATOM     17  C   UNL     1      -2.226  14.113  21.755  0.00  0.00    +0.000 C 
ATOM     18  C   UNL     1      -1.388  13.270  20.691  0.00  0.00    +0.000 C 
ENDROOT
BRANCH  17  19
ATOM     19  O   UNL     1      -3.520  14.508  21.273  0.00  0.00    +0.000 OA
ATOM     20  H   UNL     1      -4.194  13.981  21.732  0.00  0.00    +0.000 HD
ENDBRANCH  17  19
BRANCH  18  21
ATOM     21  O   UNL     1      -2.149  13.122  19.490  0.00  0.00    +0.000 OA
ATOM     22  H   UNL     1      -2.591  12.256  19.529  0.00  0.00    +0.000 HD
ENDBRANCH  18  21
TORSDOF 2
ENDMDL
MODEL 9
REMARK VINA RESULT:      -6.0      6.678      8.350
REMARK  Name = 
REMARK  5 active torsions:
REMARK  status: ('A' for Active; 'I' for Inactive)
REMARK    1  A    between atoms: C_1  and  C_2
REMARK    2  A    between atoms: C_14  and  C_15
REMARK    3  A    between atoms: C_14  and  C_16
REMARK    4  A    between atoms: C_17  and  O_18
REMARK    5  A    between atoms: C_19  and  O_20
REMARK                            x       y       z     vdW  Elec       q    Type
REMARK                         _______ _______ _______ _____ _____    ______ ____
ROOT
ATOM      1  C   UNL     1       1.817   5.855  21.045  0.00  0.00    +0.000 C 
ATOM      2  C   UNL     1       1.871   6.978  20.023  0.00  0.00    +0.000 A 
ATOM      3  C   UNL     1       2.646   6.833  18.936  0.00  0.00    +0.000 A 
ATOM      4  C   UNL     1       2.914   7.846  17.899  0.00  0.00    +0.000 A 
ATOM      5  O   UNL     1       3.776   7.635  17.055  0.00  0.00    +0.000 OA
ATOM      6  S   UNL     1       1.954   9.308  17.867  0.00  0.00    +0.000 S 
ATOM      7  C   UNL     1       1.223   9.406  19.494  0.00  0.00    +0.000 A 
ATOM      8  C   UNL     1       0.744  10.649  19.996  0.00  0.00    +0.000 A 
ATOM      9  C   UNL     1       0.439  10.683  21.354  0.00  0.00    +0.000 A 
ATOM     10  C   UNL     1       0.273   9.558  22.123  0.00  0.00    +0.000 A 
ATOM     11  C   UNL     1       0.552   8.334  21.579  0.00  0.00    +0.000 A 
ATOM     12  C   UNL     1       1.180   8.248  20.331  0.00  0.00    +0.000 A 
ATOM     13  O   UNL     1       0.366  11.848  22.035  0.00  0.00    +0.000 OA
ATOM     14  C   UNL     1      -0.589  12.742  21.468  0.00  0.00    +0.000 C 
ATOM     15  C   UNL     1      -2.013  12.140  21.569  0.00  0.00    +0.000 C 
ATOM     16  C   UNL     1      -0.484  13.917  22.453  0.00  0.00    +0.000 C 
ATOM     17  C   UNL     1      -0.145  13.126  20.023  0.00  0.00    +0.000 C 
ATOM     18  C   UNL     1       0.615  11.964  19.239  0.00  0.00    +0.000 C 
ENDROOT
BRANCH  17  19
ATOM     19  O   UNL     1      -1.244  13.683  19.284  0.00  0.00    +0.000 OA
ATOM     20  H   UNL     1      -2.007  13.763  19.879  0.00  0.00    +0.000 HD
ENDBRANCH  17  19
BRANCH  18  21
ATOM     21  O   UNL     1       0.005  11.768  17.961  0.00  0.00    +0.000 OA
ATOM     22  H   UNL     1      -0.957  11.855  18.080  0.00  0.00    +0.000 HD
ENDBRANCH  18  21
TORSDOF 2
ENDMDL
