MODEL 1
REMARK VINA RESULT:      -7.3      0.000      0.000
REMARK  Name = 
REMARK  7 active torsions:
REMARK  status: ('A' for Active; 'I' for Inactive)
REMARK    1  A    between atoms: C_1  and  C_2
REMARK    2  A    between atoms: C_2  and  C_3
REMARK    3  A    between atoms: P_6  and  C_8
REMARK    4  A    between atoms: C_8  and  O_9
REMARK    5  A    between atoms: O_9  and  C_10
REMARK    6  A    between atoms: C_10  and  C_11
REMARK    7  A    between atoms: C_11  and  N_12
REMARK                            x       y       z     vdW  Elec       q    Type
REMARK                         _______ _______ _______ _____ _____    ______ ____
ROOT
ATOM      1  C   UNL     1       7.563   8.981  17.576  0.00  0.00    +0.000 C 
ENDROOT
BRANCH   1   2
ATOM      2  O   UNL     1       7.691   7.602  17.253  0.00  0.00    +0.000 OA
BRANCH   2   3
ATOM      3  C   UNL     1       7.875   6.766  18.404  0.00  0.00    +0.000 C 
BRANCH   3   9
ATOM      4  C   UNL     1       2.882   4.102  17.419  0.00  0.00    +0.000 C 
ATOM      5  C   UNL     1       4.196   4.823  17.761  0.00  0.00    +0.000 C 
ATOM      6  C   UNL     1       3.844   6.180  18.409  0.00  0.00    +0.000 C 
ATOM      7  C   UNL     1       5.016   3.957  18.742  0.00  0.00    +0.000 C 
ATOM      8  N   UNL     1       6.232   4.650  19.143  0.00  0.00    +0.000 NA
ATOM      9  P   UNL     1       7.264   5.111  17.952  0.00  0.00    +0.000 P 
ATOM     10  O   UNL     1       8.373   4.123  17.744  0.00  0.00    +0.000 OA
ATOM     11  N   UNL     1       6.356   5.442  16.643  0.00  0.00    +0.000 NA
ATOM     12  C   UNL     1       4.996   5.006  16.451  0.00  0.00    +0.000 C 
ATOM     13  H   UNL     1       6.723   4.071  19.819  0.00  0.00    +0.000 HD
ATOM     14  H   UNL     1       6.881   5.474  15.776  0.00  0.00    +0.000 HD
ENDBRANCH   3   9
ENDBRANCH   2   3
ENDBRANCH   1   2
BRANCH   1  15
ATOM     15  C   UNL     1       8.730   9.465  18.425  0.00  0.00    +0.000 C 
BRANCH  15  16
ATOM     16  N   UNL     1       8.964  10.876  18.247  0.00  0.00    +0.000 N 
ATOM     17  C   UNL     1       8.168  11.750  17.561  0.00  0.00    +0.000 A 
ATOM     18  N   UNL     1       8.606  12.986  17.670  0.00  0.00    +0.000 NA
ATOM     19  C   UNL     1       9.737  12.892  18.460  0.00  0.00    +0.000 A 
ATOM     20  C   UNL     1      10.633  13.855  18.956  0.00  0.00    +0.000 A 
ATOM     21  N   UNL     1      10.484  15.213  18.731  0.00  0.00    +0.000 N 
ATOM     22  N   UNL     1      11.690  13.434  19.691  0.00  0.00    +0.000 NA
ATOM     23  C   UNL     1      11.811  12.109  19.943  0.00  0.00    +0.000 A 
ATOM     24  N   UNL     1      11.006  11.105  19.550  0.00  0.00    +0.000 NA
ATOM     25  C   UNL     1       9.991  11.577  18.807  0.00  0.00    +0.000 A 
ATOM     26  H   UNL     1       9.893  15.426  17.934  0.00  0.00    +0.000 HD
ATOM     27  H   UNL     1      11.356  15.715  18.823  0.00  0.00    +0.000 HD
ENDBRANCH  15  16
ENDBRANCH   1  15
TORSDOF 5
ENDMDL
MODEL 2
REMARK VINA RESULT:      -7.2      5.726      7.246
REMARK  Name = 
REMARK  7 active torsions:
REMARK  status: ('A' for Active; 'I' for Inactive)
REMARK    1  A    between atoms: C_1  and  C_2
REMARK    2  A    between atoms: C_2  and  C_3
REMARK    3  A    between atoms: P_6  and  C_8
REMARK    4  A    between atoms: C_8  and  O_9
REMARK    5  A    between atoms: O_9  and  C_10
REMARK    6  A    between atoms: C_10  and  C_11
REMARK    7  A    between atoms: C_11  and  N_12
REMARK                            x       y       z     vdW  Elec       q    Type
REMARK                         _______ _______ _______ _____ _____    ______ ____
ROOT
ATOM      1  C   UNL     1       4.516   3.672  19.582  0.00  0.00    +0.000 C 
ENDROOT
BRANCH   1   2
ATOM      2  O   UNL     1       5.824   4.025  19.150  0.00  0.00    +0.000 OA
BRANCH   2   3
ATOM      3  C   UNL     1       6.124   5.416  19.330  0.00  0.00    +0.000 C 
BRANCH   3   9
ATOM      4  C   UNL     1       5.843   4.370  13.688  0.00  0.00    +0.000 C 
ATOM      5  C   UNL     1       5.950   4.575  15.208  0.00  0.00    +0.000 C 
ATOM      6  C   UNL     1       5.180   3.428  15.901  0.00  0.00    +0.000 C 
ATOM      7  C   UNL     1       7.435   4.553  15.626  0.00  0.00    +0.000 C 
ATOM      8  N   UNL     1       7.562   4.669  17.071  0.00  0.00    +0.000 NA
ATOM      9  P   UNL     1       6.896   5.990  17.784  0.00  0.00    +0.000 P 
ATOM     10  O   UNL     1       7.899   7.081  18.010  0.00  0.00    +0.000 OA
ATOM     11  N   UNL     1       5.595   6.397  16.897  0.00  0.00    +0.000 NA
ATOM     12  C   UNL     1       5.345   5.957  15.548  0.00  0.00    +0.000 C 
ATOM     13  H   UNL     1       8.548   4.607  17.313  0.00  0.00    +0.000 HD
ATOM     14  H   UNL     1       5.259   7.339  17.067  0.00  0.00    +0.000 HD
ENDBRANCH   3   9
ENDBRANCH   2   3
ENDBRANCH   1   2
BRANCH   1  15
ATOM     15  C   UNL     1       3.448   4.299  18.696  0.00  0.00    +0.000 C 
BRANCH  15  16
ATOM     16  N   UNL     1       2.676   5.282  19.412  0.00  0.00    +0.000 N 
ATOM     17  C   UNL     1       2.090   5.118  20.637  0.00  0.00    +0.000 A 
ATOM     18  N   UNL     1       1.542   6.236  21.061  0.00  0.00    +0.000 NA
ATOM     19  C   UNL     1       1.787   7.154  20.055  0.00  0.00    +0.000 A 
ATOM     20  C   UNL     1       1.483   8.519  19.918  0.00  0.00    +0.000 A 
ATOM     21  N   UNL     1       0.842   9.253  20.904  0.00  0.00    +0.000 N 
ATOM     22  N   UNL     1       1.834   9.147  18.771  0.00  0.00    +0.000 NA
ATOM     23  C   UNL     1       2.495   8.437  17.826  0.00  0.00    +0.000 A 
ATOM     24  N   UNL     1       2.865   7.143  17.857  0.00  0.00    +0.000 NA
ATOM     25  C   UNL     1       2.470   6.566  19.005  0.00  0.00    +0.000 A 
ATOM     26  H   UNL     1       0.331   8.678  21.565  0.00  0.00    +0.000 HD
ATOM     27  H   UNL     1       0.383  10.073  20.533  0.00  0.00    +0.000 HD
ENDBRANCH  15  16
ENDBRANCH   1  15
TORSDOF 5
ENDMDL
MODEL 3
REMARK VINA RESULT:      -7.2      5.955      7.742
REMARK  Name = 
REMARK  7 active torsions:
REMARK  status: ('A' for Active; 'I' for Inactive)
REMARK    1  A    between atoms: C_1  and  C_2
REMARK    2  A    between atoms: C_2  and  C_3
REMARK    3  A    between atoms: P_6  and  C_8
REMARK    4  A    between atoms: C_8  and  O_9
REMARK    5  A    between atoms: O_9  and  C_10
REMARK    6  A    between atoms: C_10  and  C_11
REMARK    7  A    between atoms: C_11  and  N_12
REMARK                            x       y       z     vdW  Elec       q    Type
REMARK                         _______ _______ _______ _____ _____    ______ ____
ROOT
ATOM      1  C   UNL     1       6.722   5.085  18.477  0.00  0.00    +0.000 C 
ENDROOT
BRANCH   1   2
ATOM      2  O   UNL     1       5.485   5.549  19.001  0.00  0.00    +0.000 OA
BRANCH   2   3
ATOM      3  C   UNL     1       4.859   6.544  18.181  0.00  0.00    +0.000 C 
BRANCH   3   9
ATOM      4  C   UNL     1       1.095   2.895  20.530  0.00  0.00    +0.000 C 
ATOM      5  C   UNL     1       2.116   3.816  19.842  0.00  0.00    +0.000 C 
ATOM      6  C   UNL     1       3.445   3.041  19.703  0.00  0.00    +0.000 C 
ATOM      7  C   UNL     1       1.585   4.223  18.451  0.00  0.00    +0.000 C 
ATOM      8  N   UNL     1       2.566   5.035  17.746  0.00  0.00    +0.000 NA
ATOM      9  P   UNL     1       3.067   6.417  18.477  0.00  0.00    +0.000 P 
ATOM     10  O   UNL     1       2.315   7.621  17.994  0.00  0.00    +0.000 OA
ATOM     11  N   UNL     1       3.016   6.147  20.080  0.00  0.00    +0.000 NA
ATOM     12  C   UNL     1       2.282   5.082  20.714  0.00  0.00    +0.000 C 
ATOM     13  H   UNL     1       2.202   5.247  16.820  0.00  0.00    +0.000 HD
ATOM     14  H   UNL     1       3.039   6.992  20.641  0.00  0.00    +0.000 HD
ENDBRANCH   3   9
ENDBRANCH   2   3
ENDBRANCH   1   2
BRANCH   1  15
ATOM     15  C   UNL     1       6.985   5.651  17.088  0.00  0.00    +0.000 C 
BRANCH  15  16
ATOM     16  N   UNL     1       6.559   4.739  16.056  0.00  0.00    +0.000 N 
ATOM     17  C   UNL     1       5.617   3.756  16.182  0.00  0.00    +0.000 A 
ATOM     18  N   UNL     1       5.385   3.163  15.030  0.00  0.00    +0.000 NA
ATOM     19  C   UNL     1       6.222   3.798  14.130  0.00  0.00    +0.000 A 
ATOM     20  C   UNL     1       6.425   3.644  12.748  0.00  0.00    +0.000 A 
ATOM     21  N   UNL     1       5.707   2.748  11.974  0.00  0.00    +0.000 N 
ATOM     22  N   UNL     1       7.366   4.410  12.145  0.00  0.00    +0.000 NA
ATOM     23  C   UNL     1       8.038   5.313  12.897  0.00  0.00    +0.000 A 
ATOM     24  N   UNL     1       7.909   5.570  14.212  0.00  0.00    +0.000 NA
ATOM     25  C   UNL     1       6.983   4.767  14.761  0.00  0.00    +0.000 A 
ATOM     26  H   UNL     1       5.277   2.004  12.515  0.00  0.00    +0.000 HD
ATOM     27  H   UNL     1       6.195   2.496  11.126  0.00  0.00    +0.000 HD
ENDBRANCH  15  16
ENDBRANCH   1  15
TORSDOF 5
ENDMDL
MODEL 4
REMARK VINA RESULT:      -7.1      1.292      1.348
REMARK  Name = 
REMARK  7 active torsions:
REMARK  status: ('A' for Active; 'I' for Inactive)
REMARK    1  A    between atoms: C_1  and  C_2
REMARK    2  A    between atoms: C_2  and  C_3
REMARK    3  A    between atoms: P_6  and  C_8
REMARK    4  A    between atoms: C_8  and  O_9
REMARK    5  A    between atoms: O_9  and  C_10
REMARK    6  A    between atoms: C_10  and  C_11
REMARK    7  A    between atoms: C_11  and  N_12
REMARK                            x       y       z     vdW  Elec       q    Type
REMARK                         _______ _______ _______ _____ _____    ______ ____
ROOT
ATOM      1  C   UNL     1       8.097   8.964  17.587  0.00  0.00    +0.000 C 
ENDROOT
BRANCH   1   2
ATOM      2  O   UNL     1       7.294   7.792  17.646  0.00  0.00    +0.000 OA
BRANCH   2   3
ATOM      3  C   UNL     1       7.865   6.756  18.456  0.00  0.00    +0.000 C 
BRANCH   3   9
ATOM      4  C   UNL     1       2.749   4.294  17.579  0.00  0.00    +0.000 C 
ATOM      5  C   UNL     1       4.103   4.950  17.894  0.00  0.00    +0.000 C 
ATOM      6  C   UNL     1       3.837   6.215  18.741  0.00  0.00    +0.000 C 
ATOM      7  C   UNL     1       4.985   3.956  18.679  0.00  0.00    +0.000 C 
ATOM      8  N   UNL     1       6.245   4.578  19.057  0.00  0.00    +0.000 NA
ATOM      9  P   UNL     1       7.182   5.180  17.850  0.00  0.00    +0.000 P 
ATOM     10  O   UNL     1       8.246   4.216  17.420  0.00  0.00    +0.000 OA
ATOM     11  N   UNL     1       6.172   5.688  16.680  0.00  0.00    +0.000 NA
ATOM     12  C   UNL     1       4.791   5.295  16.553  0.00  0.00    +0.000 C 
ATOM     13  H   UNL     1       6.780   3.911  19.607  0.00  0.00    +0.000 HD
ATOM     14  H   UNL     1       6.620   5.828  15.781  0.00  0.00    +0.000 HD
ENDBRANCH   3   9
ENDBRANCH   2   3
ENDBRANCH   1   2
BRANCH   1  15
ATOM     15  C   UNL     1       8.745   9.264  18.931  0.00  0.00    +0.000 C 
BRANCH  15  16
ATOM     16  N   UNL     1       9.429  10.532  18.918  0.00  0.00    +0.000 N 
ATOM     17  C   UNL     1      10.050  11.108  17.845  0.00  0.00    +0.000 A 
ATOM     18  N   UNL     1      10.491  12.313  18.135  0.00  0.00    +0.000 NA
ATOM     19  C   UNL     1      10.137  12.511  19.457  0.00  0.00    +0.000 A 
ATOM     20  C   UNL     1      10.300  13.598  20.333  0.00  0.00    +0.000 A 
ATOM     21  N   UNL     1      10.882  14.796  19.950  0.00  0.00    +0.000 N 
ATOM     22  N   UNL     1       9.867  13.469  21.609  0.00  0.00    +0.000 NA
ATOM     23  C   UNL     1       9.263  12.312  21.969  0.00  0.00    +0.000 A 
ATOM     24  N   UNL     1       9.025  11.222  21.216  0.00  0.00    +0.000 NA
ATOM     25  C   UNL     1       9.496  11.397  19.970  0.00  0.00    +0.000 A 
ATOM     26  H   UNL     1      11.460  14.715  19.121  0.00  0.00    +0.000 HD
ATOM     27  H   UNL     1      11.249  15.312  20.737  0.00  0.00    +0.000 HD
ENDBRANCH  15  16
ENDBRANCH   1  15
TORSDOF 5
ENDMDL
MODEL 5
REMARK VINA RESULT:      -7.0      6.239      7.817
REMARK  Name = 
REMARK  7 active torsions:
REMARK  status: ('A' for Active; 'I' for Inactive)
REMARK    1  A    between atoms: C_1  and  C_2
REMARK    2  A    between atoms: C_2  and  C_3
REMARK    3  A    between atoms: P_6  and  C_8
REMARK    4  A    between atoms: C_8  and  O_9
REMARK    5  A    between atoms: O_9  and  C_10
REMARK    6  A    between atoms: C_10  and  C_11
REMARK    7  A    between atoms: C_11  and  N_12
REMARK                            x       y       z     vdW  Elec       q    Type
REMARK                         _______ _______ _______ _____ _____    ______ ____
ROOT
ATOM      1  C   UNL     1       2.508   7.268  18.876  0.00  0.00    +0.000 C 
ENDROOT
BRANCH   1   2
ATOM      2  O   UNL     1       2.706   5.865  18.756  0.00  0.00    +0.000 OA
BRANCH   2   3
ATOM      3  C   UNL     1       3.611   5.335  19.733  0.00  0.00    +0.000 C 
BRANCH   3   9
ATOM      4  C   UNL     1       7.001   4.705  15.138  0.00  0.00    +0.000 C 
ATOM      5  C   UNL     1       6.031   4.885  16.317  0.00  0.00    +0.000 C 
ATOM      6  C   UNL     1       5.334   6.255  16.158  0.00  0.00    +0.000 C 
ATOM      7  C   UNL     1       4.988   3.748  16.302  0.00  0.00    +0.000 C 
ATOM      8  N   UNL     1       4.010   3.937  17.364  0.00  0.00    +0.000 NA
ATOM      9  P   UNL     1       4.575   4.032  18.903  0.00  0.00    +0.000 P 
ATOM     10  O   UNL     1       4.504   2.716  19.618  0.00  0.00    +0.000 OA
ATOM     11  N   UNL     1       6.049   4.715  18.821  0.00  0.00    +0.000 NA
ATOM     12  C   UNL     1       6.850   4.810  17.626  0.00  0.00    +0.000 C 
ATOM     13  H   UNL     1       3.316   3.196  17.297  0.00  0.00    +0.000 HD
ATOM     14  H   UNL     1       6.611   4.584  19.655  0.00  0.00    +0.000 HD
ENDBRANCH   3   9
ENDBRANCH   2   3
ENDBRANCH   1   2
BRANCH   1  15
ATOM     15  C   UNL     1       1.895   7.631  20.222  0.00  0.00    +0.000 C 
BRANCH  15  16
ATOM     16  N   UNL     1       1.193   8.887  20.162  0.00  0.00    +0.000 N 
ATOM     17  C   UNL     1       1.023   9.670  19.053  0.00  0.00    +0.000 A 
ATOM     18  N   UNL     1       0.250  10.703  19.308  0.00  0.00    +0.000 NA
ATOM     19  C   UNL     1      -0.086  10.573  20.644  0.00  0.00    +0.000 A 
ATOM     20  C   UNL     1      -0.899  11.336  21.499  0.00  0.00    +0.000 A 
ATOM     21  N   UNL     1      -1.603  12.452  21.075  0.00  0.00    +0.000 N 
ATOM     22  N   UNL     1      -1.002  10.962  22.796  0.00  0.00    +0.000 NA
ATOM     23  C   UNL     1      -0.344   9.848  23.197  0.00  0.00    +0.000 A 
ATOM     24  N   UNL     1       0.434   9.027  22.469  0.00  0.00    +0.000 NA
ATOM     25  C   UNL     1       0.518   9.459  21.199  0.00  0.00    +0.000 A 
ATOM     26  H   UNL     1      -1.238  12.856  20.219  0.00  0.00    +0.000 HD
ATOM     27  H   UNL     1      -1.827  13.076  21.837  0.00  0.00    +0.000 HD
ENDBRANCH  15  16
ENDBRANCH   1  15
TORSDOF 5
ENDMDL
MODEL 6
REMARK VINA RESULT:      -6.9      6.147      7.416
REMARK  Name = 
REMARK  7 active torsions:
REMARK  status: ('A' for Active; 'I' for Inactive)
REMARK    1  A    between atoms: C_1  and  C_2
REMARK    2  A    between atoms: C_2  and  C_3
REMARK    3  A    between atoms: P_6  and  C_8
REMARK    4  A    between atoms: C_8  and  O_9
REMARK    5  A    between atoms: O_9  and  C_10
REMARK    6  A    between atoms: C_10  and  C_11
REMARK    7  A    between atoms: C_11  and  N_12
REMARK                            x       y       z     vdW  Elec       q    Type
REMARK                         _______ _______ _______ _____ _____    ______ ____
ROOT
ATOM      1  C   UNL     1       2.071   6.117  18.298  0.00  0.00    +0.000 C 
ENDROOT
BRANCH   1   2
ATOM      2  O   UNL     1       2.458   5.066  19.174  0.00  0.00    +0.000 OA
BRANCH   2   3
ATOM      3  C   UNL     1       3.770   5.241  19.724  0.00  0.00    +0.000 C 
BRANCH   3   9
ATOM      4  C   UNL     1       7.062   4.721  15.045  0.00  0.00    +0.000 C 
ATOM      5  C   UNL     1       6.115   4.863  16.248  0.00  0.00    +0.000 C 
ATOM      6  C   UNL     1       5.269   6.140  16.044  0.00  0.00    +0.000 C 
ATOM      7  C   UNL     1       5.202   3.622  16.331  0.00  0.00    +0.000 C 
ATOM      8  N   UNL     1       4.243   3.764  17.417  0.00  0.00    +0.000 NA
ATOM      9  P   UNL     1       4.843   4.004  18.927  0.00  0.00    +0.000 P 
ATOM     10  O   UNL     1       4.937   2.730  19.711  0.00  0.00    +0.000 OA
ATOM     11  N   UNL     1       6.231   4.835  18.755  0.00  0.00    +0.000 NA
ATOM     12  C   UNL     1       6.978   4.948  17.528  0.00  0.00    +0.000 C 
ATOM     13  H   UNL     1       3.632   2.951  17.415  0.00  0.00    +0.000 HD
ATOM     14  H   UNL     1       6.829   4.810  19.573  0.00  0.00    +0.000 HD
ENDBRANCH   3   9
ENDBRANCH   2   3
ENDBRANCH   1   2
BRANCH   1  15
ATOM     15  C   UNL     1       2.836   7.400  18.597  0.00  0.00    +0.000 C 
BRANCH  15  16
ATOM     16  N   UNL     1       1.944   8.517  18.778  0.00  0.00    +0.000 N 
ATOM     17  C   UNL     1       1.505   9.371  17.805  0.00  0.00    +0.000 A 
ATOM     18  N   UNL     1       0.621  10.224  18.277  0.00  0.00    +0.000 NA
ATOM     19  C   UNL     1       0.496   9.898  19.616  0.00  0.00    +0.000 A 
ATOM     20  C   UNL     1      -0.303  10.416  20.650  0.00  0.00    +0.000 A 
ATOM     21  N   UNL     1      -1.223  11.433  20.456  0.00  0.00    +0.000 N 
ATOM     22  N   UNL     1      -0.168   9.895  21.892  0.00  0.00    +0.000 NA
ATOM     23  C   UNL     1       0.704   8.875  22.070  0.00  0.00    +0.000 A 
ATOM     24  N   UNL     1       1.494   8.280  21.157  0.00  0.00    +0.000 NA
ATOM     25  C   UNL     1       1.336   8.852  19.951  0.00  0.00    +0.000 A 
ATOM     26  H   UNL     1      -1.046  11.983  19.621  0.00  0.00    +0.000 HD
ATOM     27  H   UNL     1      -1.436  11.926  21.312  0.00  0.00    +0.000 HD
ENDBRANCH  15  16
ENDBRANCH   1  15
TORSDOF 5
ENDMDL
MODEL 7
REMARK VINA RESULT:      -6.9      2.699      8.586
REMARK  Name = 
REMARK  7 active torsions:
REMARK  status: ('A' for Active; 'I' for Inactive)
REMARK    1  A    between atoms: C_1  and  C_2
REMARK    2  A    between atoms: C_2  and  C_3
REMARK    3  A    between atoms: P_6  and  C_8
REMARK    4  A    between atoms: C_8  and  O_9
REMARK    5  A    between atoms: O_9  and  C_10
REMARK    6  A    between atoms: C_10  and  C_11
REMARK    7  A    between atoms: C_11  and  N_12
REMARK                            x       y       z     vdW  Elec       q    Type
REMARK                         _______ _______ _______ _____ _____    ______ ____
ROOT
ATOM      1  C   UNL     1       7.709   8.697  17.820  0.00  0.00    +0.000 C 
ENDROOT
BRANCH   1   2
ATOM      2  O   UNL     1       8.486   9.871  18.021  0.00  0.00    +0.000 OA
BRANCH   2   3
ATOM      3  C   UNL     1       9.138   9.907  19.297  0.00  0.00    +0.000 C 
BRANCH   3   9
ATOM      4  C   UNL     1       8.644  15.424  17.776  0.00  0.00    +0.000 C 
ATOM      5  C   UNL     1       8.775  13.928  18.103  0.00  0.00    +0.000 C 
ATOM      6  C   UNL     1       7.598  13.185  17.433  0.00  0.00    +0.000 C 
ATOM      7  C   UNL     1      10.120  13.400  17.561  0.00  0.00    +0.000 C 
ATOM      8  N   UNL     1      10.238  11.967  17.790  0.00  0.00    +0.000 NA
ATOM      9  P   UNL     1      10.120  11.440  19.341  0.00  0.00    +0.000 P 
ATOM     10  O   UNL     1      11.463  11.247  19.980  0.00  0.00    +0.000 OA
ATOM     11  N   UNL     1       9.109  12.457  20.109  0.00  0.00    +0.000 NA
ATOM     12  C   UNL     1       8.749  13.771  19.641  0.00  0.00    +0.000 C 
ATOM     13  H   UNL     1      11.113  11.647  17.383  0.00  0.00    +0.000 HD
ATOM     14  H   UNL     1       9.164  12.405  21.120  0.00  0.00    +0.000 HD
ENDBRANCH   3   9
ENDBRANCH   2   3
ENDBRANCH   1   2
BRANCH   1  15
ATOM     15  C   UNL     1       8.409   7.465  18.378  0.00  0.00    +0.000 C 
BRANCH  15  16
ATOM     16  N   UNL     1       7.540   6.315  18.373  0.00  0.00    +0.000 N 
ATOM     17  C   UNL     1       6.970   5.725  19.467  0.00  0.00    +0.000 A 
ATOM     18  N   UNL     1       6.150   4.757  19.118  0.00  0.00    +0.000 NA
ATOM     19  C   UNL     1       6.203   4.730  17.735  0.00  0.00    +0.000 A 
ATOM     20  C   UNL     1       5.543   3.946  16.774  0.00  0.00    +0.000 A 
ATOM     21  N   UNL     1       4.597   2.988  17.100  0.00  0.00    +0.000 N 
ATOM     22  N   UNL     1       5.845   4.138  15.467  0.00  0.00    +0.000 NA
ATOM     23  C   UNL     1       6.740   5.103  15.150  0.00  0.00    +0.000 A 
ATOM     24  N   UNL     1       7.408   5.930  15.975  0.00  0.00    +0.000 NA
ATOM     25  C   UNL     1       7.089   5.678  17.256  0.00  0.00    +0.000 A 
ATOM     26  H   UNL     1       4.659   2.673  18.062  0.00  0.00    +0.000 HD
ATOM     27  H   UNL     1       4.495   2.289  16.377  0.00  0.00    +0.000 HD
ENDBRANCH  15  16
ENDBRANCH   1  15
TORSDOF 5
ENDMDL
MODEL 8
REMARK VINA RESULT:      -6.9      1.466      1.734
REMARK  Name = 
REMARK  7 active torsions:
REMARK  status: ('A' for Active; 'I' for Inactive)
REMARK    1  A    between atoms: C_1  and  C_2
REMARK    2  A    between atoms: C_2  and  C_3
REMARK    3  A    between atoms: P_6  and  C_8
REMARK    4  A    between atoms: C_8  and  O_9
REMARK    5  A    between atoms: O_9  and  C_10
REMARK    6  A    between atoms: C_10  and  C_11
REMARK    7  A    between atoms: C_11  and  N_12
REMARK                            x       y       z     vdW  Elec       q    Type
REMARK                         _______ _______ _______ _____ _____    ______ ____
ROOT
ATOM      1  C   UNL     1       8.055   9.402  18.043  0.00  0.00    +0.000 C 
ENDROOT
BRANCH   1   2
ATOM      2  O   UNL     1       8.017   8.221  17.252  0.00  0.00    +0.000 OA
BRANCH   2   3
ATOM      3  C   UNL     1       7.700   7.044  18.007  0.00  0.00    +0.000 C 
BRANCH   3   9
ATOM      4  C   UNL     1       2.709   4.198  17.972  0.00  0.00    +0.000 C 
ATOM      5  C   UNL     1       4.071   4.909  18.040  0.00  0.00    +0.000 C 
ATOM      6  C   UNL     1       4.303   5.361  19.499  0.00  0.00    +0.000 C 
ATOM      7  C   UNL     1       5.182   3.934  17.597  0.00  0.00    +0.000 C 
ATOM      8  N   UNL     1       6.491   4.557  17.725  0.00  0.00    +0.000 NA
ATOM      9  P   UNL     1       6.744   5.956  16.903  0.00  0.00    +0.000 P 
ATOM     10  O   UNL     1       7.424   5.728  15.586  0.00  0.00    +0.000 OA
ATOM     11  N   UNL     1       5.313   6.728  16.837  0.00  0.00    +0.000 NA
ATOM     12  C   UNL     1       4.032   6.112  17.069  0.00  0.00    +0.000 C 
ATOM     13  H   UNL     1       7.199   3.874  17.467  0.00  0.00    +0.000 HD
ATOM     14  H   UNL     1       5.272   7.459  16.135  0.00  0.00    +0.000 HD
ENDBRANCH   3   9
ENDBRANCH   2   3
ENDBRANCH   1   2
BRANCH   1  15
ATOM     15  C   UNL     1       9.217   9.376  19.027  0.00  0.00    +0.000 C 
BRANCH  15  16
ATOM     16  N   UNL     1       9.507  10.691  19.539  0.00  0.00    +0.000 N 
ATOM     17  C   UNL     1       9.184  11.169  20.778  0.00  0.00    +0.000 A 
ATOM     18  N   UNL     1       9.678  12.373  20.972  0.00  0.00    +0.000 NA
ATOM     19  C   UNL     1      10.344  12.676  19.798  0.00  0.00    +0.000 A 
ATOM     20  C   UNL     1      11.092  13.794  19.390  0.00  0.00    +0.000 A 
ATOM     21  N   UNL     1      11.336  14.881  20.214  0.00  0.00    +0.000 N 
ATOM     22  N   UNL     1      11.600  13.807  18.135  0.00  0.00    +0.000 NA
ATOM     23  C   UNL     1      11.392  12.727  17.346  0.00  0.00    +0.000 A 
ATOM     24  N   UNL     1      10.723  11.595  17.635  0.00  0.00    +0.000 NA
ATOM     25  C   UNL     1      10.223  11.647  18.881  0.00  0.00    +0.000 A 
ATOM     26  H   UNL     1      10.681  14.957  20.985  0.00  0.00    +0.000 HD
ATOM     27  H   UNL     1      11.552  15.717  19.690  0.00  0.00    +0.000 HD
ENDBRANCH  15  16
ENDBRANCH   1  15
TORSDOF 5
ENDMDL
MODEL 9
REMARK VINA RESULT:      -6.9      6.505      7.639
REMARK  Name = 
REMARK  7 active torsions:
REMARK  status: ('A' for Active; 'I' for Inactive)
REMARK    1  A    between atoms: C_1  and  C_2
REMARK    2  A    between atoms: C_2  and  C_3
REMARK    3  A    between atoms: P_6  and  C_8
REMARK    4  A    between atoms: C_8  and  O_9
REMARK    5  A    between atoms: O_9  and  C_10
REMARK    6  A    between atoms: C_10  and  C_11
REMARK    7  A    between atoms: C_11  and  N_12
REMARK                            x       y       z     vdW  Elec       q    Type
REMARK                         _______ _______ _______ _____ _____    ______ ____
ROOT
ATOM      1  C   UNL     1       2.670   8.462  18.017  0.00  0.00    +0.000 C 
ENDROOT
BRANCH   1   2
ATOM      2  O   UNL     1       2.978   7.242  17.356  0.00  0.00    +0.000 OA
BRANCH   2   3
ATOM      3  C   UNL     1       4.174   6.620  17.844  0.00  0.00    +0.000 C 
BRANCH   3   9
ATOM      4  C   UNL     1       1.282   2.610  20.769  0.00  0.00    +0.000 C 
ATOM      5  C   UNL     1       2.104   3.693  20.052  0.00  0.00    +0.000 C 
ATOM      6  C   UNL     1       2.087   4.966  20.926  0.00  0.00    +0.000 C 
ATOM      7  C   UNL     1       3.552   3.194  19.859  0.00  0.00    +0.000 C 
ATOM      8  N   UNL     1       4.374   4.230  19.250  0.00  0.00    +0.000 NA
ATOM      9  P   UNL     1       3.887   4.822  17.798  0.00  0.00    +0.000 P 
ATOM     10  O   UNL     1       4.582   4.155  16.649  0.00  0.00    +0.000 OA
ATOM     11  N   UNL     1       2.262   4.749  17.781  0.00  0.00    +0.000 NA
ATOM     12  C   UNL     1       1.463   3.942  18.667  0.00  0.00    +0.000 C 
ATOM     13  H   UNL     1       5.327   3.884  19.178  0.00  0.00    +0.000 HD
ATOM     14  H   UNL     1       1.856   4.827  16.854  0.00  0.00    +0.000 HD
ENDBRANCH   3   9
ENDBRANCH   2   3
ENDBRANCH   1   2
BRANCH   1  15
ATOM     15  C   UNL     1       1.820   8.224  19.258  0.00  0.00    +0.000 C 
BRANCH  15  16
ATOM     16  N   UNL     1       1.187   9.438  19.706  0.00  0.00    +0.000 N 
ATOM     17  C   UNL     1       0.868  10.520  18.932  0.00  0.00    +0.000 A 
ATOM     18  N   UNL     1       0.208  11.425  19.622  0.00  0.00    +0.000 NA
ATOM     19  C   UNL     1       0.105  10.895  20.896  0.00  0.00    +0.000 A 
ATOM     20  C   UNL     1      -0.504  11.361  22.073  0.00  0.00    +0.000 A 
ATOM     21  N   UNL     1      -1.210  12.551  22.139  0.00  0.00    +0.000 N 
ATOM     22  N   UNL     1      -0.398  10.609  23.195  0.00  0.00    +0.000 NA
ATOM     23  C   UNL     1       0.259   9.428  23.117  0.00  0.00    +0.000 A 
ATOM     24  N   UNL     1       0.852   8.868  22.047  0.00  0.00    +0.000 NA
ATOM     25  C   UNL     1       0.736   9.666  20.972  0.00  0.00    +0.000 A 
ATOM     26  H   UNL     1      -0.980  13.197  21.392  0.00  0.00    +0.000 HD
ATOM     27  H   UNL     1      -1.263  12.913  23.081  0.00  0.00    +0.000 HD
ENDBRANCH  15  16
ENDBRANCH   1  15
TORSDOF 5
ENDMDL
