MODEL 1
REMARK VINA RESULT:      -6.2      0.000      0.000
REMARK  Name = 
REMARK  9 active torsions:
REMARK  status: ('A' for Active; 'I' for Inactive)
REMARK    1  A    between atoms: C_1  and  N_2
REMARK    2  A    between atoms: N_5  and  C_6
REMARK    3  A    between atoms: C_6  and  C_7
REMARK    4  A    between atoms: C_7  and  O_8
REMARK    5  A    between atoms: C_7  and  C_9
REMARK    6  A    between atoms: C_9  and  N_10
REMARK    7  A    between atoms: N_10  and  C_11
REMARK    8  A    between atoms: N_10  and  C_12
REMARK    9  A    between atoms: C_12  and  C_13
REMARK                            x       y       z     vdW  Elec       q    Type
REMARK                         _______ _______ _______ _____ _____    ______ ____
ROOT
ATOM      1  C   UNL     1       3.938   3.471  18.257  0.00  0.00    +0.000 C 
ENDROOT
BRANCH   1   2
ATOM      2  O   UNL     1       4.220   2.145  17.777  0.00  0.00    +0.000 OA
ATOM      3  H   UNL     1       3.767   2.044  16.922  0.00  0.00    +0.000 HD
ENDBRANCH   1   2
BRANCH   1   4
ATOM      4  C   UNL     1       5.247   4.284  18.463  0.00  0.00    +0.000 C 
BRANCH   4   9
ATOM      5  C   UNL     1       7.616   8.430  17.686  0.00  0.00    +0.000 C 
ATOM      6  N   UNL     1       7.392   7.082  17.177  0.00  0.00    +0.000 NA
ATOM      7  C   UNL     1       5.981   6.878  16.800  0.00  0.00    +0.000 C 
ATOM      8  C   UNL     1       5.701   5.432  16.320  0.00  0.00    +0.000 C 
ATOM      9  N   UNL     1       6.115   4.370  17.264  0.00  0.00    +0.000 NA
ATOM     10  C   UNL     1       7.530   4.629  17.626  0.00  0.00    +0.000 C 
ATOM     11  C   UNL     1       7.812   6.058  18.149  0.00  0.00    +0.000 C 
ENDBRANCH   4   9
ENDBRANCH   1   4
BRANCH   1  12
ATOM     12  C   UNL     1       3.108   3.331  19.553  0.00  0.00    +0.000 C 
BRANCH  12  13
ATOM     13  N   UNL     1       1.969   4.251  19.721  0.00  0.00    +0.000 NA
ATOM     14  C   UNL     1       0.843   3.581  20.382  0.00  0.00    +0.000 C 
BRANCH  13  15
ATOM     15  C   UNL     1       2.363   5.423  20.534  0.00  0.00    +0.000 C 
BRANCH  15  16
ATOM     16  C   UNL     1       2.186   6.754  19.831  0.00  0.00    +0.000 A 
ATOM     17  C   UNL     1       2.615   6.938  18.514  0.00  0.00    +0.000 A 
ATOM     18  C   UNL     1       2.387   8.162  17.899  0.00  0.00    +0.000 A 
ATOM     19  N   UNL     1       1.763   9.198  18.500  0.00  0.00    +0.000 NA
ATOM     20  C   UNL     1       1.356   9.001  19.773  0.00  0.00    +0.000 A 
ATOM     21  C   UNL     1       1.544   7.815  20.472  0.00  0.00    +0.000 A 
ENDBRANCH  15  16
ENDBRANCH  13  15
ENDBRANCH  12  13
ENDBRANCH   1  12
TORSDOF 7
ENDMDL
MODEL 2
REMARK VINA RESULT:      -5.9      1.452      2.064
REMARK  Name = 
REMARK  9 active torsions:
REMARK  status: ('A' for Active; 'I' for Inactive)
REMARK    1  A    between atoms: C_1  and  N_2
REMARK    2  A    between atoms: N_5  and  C_6
REMARK    3  A    between atoms: C_6  and  C_7
REMARK    4  A    between atoms: C_7  and  O_8
REMARK    5  A    between atoms: C_7  and  C_9
REMARK    6  A    between atoms: C_9  and  N_10
REMARK    7  A    between atoms: N_10  and  C_11
REMARK    8  A    between atoms: N_10  and  C_12
REMARK    9  A    between atoms: C_12  and  C_13
REMARK                            x       y       z     vdW  Elec       q    Type
REMARK                         _______ _______ _______ _____ _____    ______ ____
ROOT
ATOM      1  C   UNL     1       4.009   3.235  19.011  0.00  0.00    +0.000 C 
ENDROOT
BRANCH   1   2
ATOM      2  O   UNL     1       5.046   2.475  19.654  0.00  0.00    +0.000 OA
ATOM      3  H   UNL     1       5.895   2.888  19.420  0.00  0.00    +0.000 HD
ENDBRANCH   1   2
BRANCH   1   4
ATOM      4  C   UNL     1       4.483   3.775  17.631  0.00  0.00    +0.000 C 
BRANCH   4   9
ATOM      5  C   UNL     1       7.273   4.917  13.848  0.00  0.00    +0.000 C 
ATOM      6  N   UNL     1       6.817   5.364  15.160  0.00  0.00    +0.000 NA
ATOM      7  C   UNL     1       7.242   4.432  16.221  0.00  0.00    +0.000 C 
ATOM      8  C   UNL     1       6.712   4.846  17.616  0.00  0.00    +0.000 C 
ATOM      9  N   UNL     1       5.248   5.044  17.694  0.00  0.00    +0.000 NA
ATOM     10  C   UNL     1       4.869   5.970  16.600  0.00  0.00    +0.000 C 
ATOM     11  C   UNL     1       5.355   5.542  15.194  0.00  0.00    +0.000 C 
ENDBRANCH   4   9
ENDBRANCH   1   4
BRANCH   1  12
ATOM     12  C   UNL     1       3.585   4.361  19.981  0.00  0.00    +0.000 C 
BRANCH  12  13
ATOM     13  N   UNL     1       2.278   4.997  19.737  0.00  0.00    +0.000 NA
ATOM     14  C   UNL     1       1.180   4.052  19.967  0.00  0.00    +0.000 C 
BRANCH  13  15
ATOM     15  C   UNL     1       2.094   6.162  20.630  0.00  0.00    +0.000 C 
BRANCH  15  16
ATOM     16  C   UNL     1       1.893   7.477  19.904  0.00  0.00    +0.000 A 
ATOM     17  C   UNL     1       2.362   7.660  18.599  0.00  0.00    +0.000 A 
ATOM     18  C   UNL     1       2.111   8.867  17.960  0.00  0.00    +0.000 A 
ATOM     19  N   UNL     1       1.428   9.886  18.524  0.00  0.00    +0.000 NA
ATOM     20  C   UNL     1       0.984   9.691  19.785  0.00  0.00    +0.000 A 
ATOM     21  C   UNL     1       1.190   8.522  20.507  0.00  0.00    +0.000 A 
ENDBRANCH  15  16
ENDBRANCH  13  15
ENDBRANCH  12  13
ENDBRANCH   1  12
TORSDOF 7
ENDMDL
MODEL 3
REMARK VINA RESULT:      -5.8      2.738      6.839
REMARK  Name = 
REMARK  9 active torsions:
REMARK  status: ('A' for Active; 'I' for Inactive)
REMARK    1  A    between atoms: C_1  and  N_2
REMARK    2  A    between atoms: N_5  and  C_6
REMARK    3  A    between atoms: C_6  and  C_7
REMARK    4  A    between atoms: C_7  and  O_8
REMARK    5  A    between atoms: C_7  and  C_9
REMARK    6  A    between atoms: C_9  and  N_10
REMARK    7  A    between atoms: N_10  and  C_11
REMARK    8  A    between atoms: N_10  and  C_12
REMARK    9  A    between atoms: C_12  and  C_13
REMARK                            x       y       z     vdW  Elec       q    Type
REMARK                         _______ _______ _______ _____ _____    ______ ____
ROOT
ATOM      1  C   UNL     1       4.331   6.171  17.281  0.00  0.00    +0.000 C 
ENDROOT
BRANCH   1   2
ATOM      2  O   UNL     1       3.628   7.421  17.378  0.00  0.00    +0.000 OA
ATOM      3  H   UNL     1       2.679   7.215  17.444  0.00  0.00    +0.000 HD
ENDBRANCH   1   2
BRANCH   1   4
ATOM      4  C   UNL     1       3.884   5.187  18.399  0.00  0.00    +0.000 C 
BRANCH   4   9
ATOM      5  C   UNL     1       1.503   2.570  21.698  0.00  0.00    +0.000 C 
ATOM      6  N   UNL     1       1.779   2.709  20.272  0.00  0.00    +0.000 NA
ATOM      7  C   UNL     1       3.214   2.528  19.984  0.00  0.00    +0.000 C 
ATOM      8  C   UNL     1       3.546   2.740  18.486  0.00  0.00    +0.000 C 
ATOM      9  N   UNL     1       3.091   4.029  17.922  0.00  0.00    +0.000 NA
ATOM     10  C   UNL     1       1.652   4.173  18.253  0.00  0.00    +0.000 C 
ATOM     11  C   UNL     1       1.315   4.008  19.755  0.00  0.00    +0.000 C 
ENDBRANCH   4   9
ENDBRANCH   1   4
BRANCH   1  12
ATOM     12  C   UNL     1       5.844   6.481  17.325  0.00  0.00    +0.000 C 
BRANCH  12  13
ATOM     13  N   UNL     1       6.750   5.487  16.722  0.00  0.00    +0.000 NA
ATOM     14  C   UNL     1       7.498   4.760  17.755  0.00  0.00    +0.000 C 
BRANCH  13  15
ATOM     15  C   UNL     1       5.985   4.509  15.917  0.00  0.00    +0.000 C 
BRANCH  15  16
ATOM     16  C   UNL     1       6.439   4.403  14.475  0.00  0.00    +0.000 A 
ATOM     17  C   UNL     1       5.847   3.490  13.597  0.00  0.00    +0.000 A 
ATOM     18  C   UNL     1       6.267   3.464  12.273  0.00  0.00    +0.000 A 
ATOM     19  N   UNL     1       7.220   4.280  11.773  0.00  0.00    +0.000 NA
ATOM     20  C   UNL     1       7.781   5.155  12.637  0.00  0.00    +0.000 A 
ATOM     21  C   UNL     1       7.431   5.251  13.978  0.00  0.00    +0.000 A 
ENDBRANCH  15  16
ENDBRANCH  13  15
ENDBRANCH  12  13
ENDBRANCH   1  12
TORSDOF 7
ENDMDL
MODEL 4
REMARK VINA RESULT:      -5.7      0.858      1.354
REMARK  Name = 
REMARK  9 active torsions:
REMARK  status: ('A' for Active; 'I' for Inactive)
REMARK    1  A    between atoms: C_1  and  N_2
REMARK    2  A    between atoms: N_5  and  C_6
REMARK    3  A    between atoms: C_6  and  C_7
REMARK    4  A    between atoms: C_7  and  O_8
REMARK    5  A    between atoms: C_7  and  C_9
REMARK    6  A    between atoms: C_9  and  N_10
REMARK    7  A    between atoms: N_10  and  C_11
REMARK    8  A    between atoms: N_10  and  C_12
REMARK    9  A    between atoms: C_12  and  C_13
REMARK                            x       y       z     vdW  Elec       q    Type
REMARK                         _______ _______ _______ _____ _____    ______ ____
ROOT
ATOM      1  C   UNL     1       3.202   3.919  17.613  0.00  0.00    +0.000 C 
ENDROOT
BRANCH   1   2
ATOM      2  O   UNL     1       2.767   2.930  16.664  0.00  0.00    +0.000 OA
ATOM      3  H   UNL     1       3.548   2.661  16.149  0.00  0.00    +0.000 HD
ENDBRANCH   1   2
BRANCH   1   4
ATOM      4  C   UNL     1       4.753   4.011  17.657  0.00  0.00    +0.000 C 
BRANCH   4   9
ATOM      5  C   UNL     1       7.734   7.819  17.741  0.00  0.00    +0.000 C 
ATOM      6  N   UNL     1       7.150   6.793  16.885  0.00  0.00    +0.000 NA
ATOM      7  C   UNL     1       5.682   6.921  16.821  0.00  0.00    +0.000 C 
ATOM      8  C   UNL     1       5.029   5.801  15.974  0.00  0.00    +0.000 C 
ATOM      9  N   UNL     1       5.384   4.423  16.380  0.00  0.00    +0.000 NA
ATOM     10  C   UNL     1       6.864   4.351  16.448  0.00  0.00    +0.000 C 
ATOM     11  C   UNL     1       7.524   5.439  17.329  0.00  0.00    +0.000 C 
ENDBRANCH   4   9
ENDBRANCH   1   4
BRANCH   1  12
ATOM     12  C   UNL     1       2.583   3.556  18.982  0.00  0.00    +0.000 C 
BRANCH  12  13
ATOM     13  N   UNL     1       1.743   4.579  19.629  0.00  0.00    +0.000 NA
ATOM     14  C   UNL     1       0.995   4.012  20.757  0.00  0.00    +0.000 C 
BRANCH  13  15
ATOM     15  C   UNL     1       2.575   5.696  20.128  0.00  0.00    +0.000 C 
BRANCH  15  16
ATOM     16  C   UNL     1       2.117   7.065  19.670  0.00  0.00    +0.000 A 
ATOM     17  C   UNL     1       1.516   7.961  20.560  0.00  0.00    +0.000 A 
ATOM     18  C   UNL     1       1.157   9.222  20.101  0.00  0.00    +0.000 A 
ATOM     19  N   UNL     1       1.361   9.645  18.835  0.00  0.00    +0.000 NA
ATOM     20  C   UNL     1       1.942   8.766  17.990  0.00  0.00    +0.000 A 
ATOM     21  C   UNL     1       2.330   7.482  18.354  0.00  0.00    +0.000 A 
ENDBRANCH  15  16
ENDBRANCH  13  15
ENDBRANCH  12  13
ENDBRANCH   1  12
TORSDOF 7
ENDMDL
MODEL 5
REMARK VINA RESULT:      -5.7      2.367      6.597
REMARK  Name = 
REMARK  9 active torsions:
REMARK  status: ('A' for Active; 'I' for Inactive)
REMARK    1  A    between atoms: C_1  and  N_2
REMARK    2  A    between atoms: N_5  and  C_6
REMARK    3  A    between atoms: C_6  and  C_7
REMARK    4  A    between atoms: C_7  and  O_8
REMARK    5  A    between atoms: C_7  and  C_9
REMARK    6  A    between atoms: C_9  and  N_10
REMARK    7  A    between atoms: N_10  and  C_11
REMARK    8  A    between atoms: N_10  and  C_12
REMARK    9  A    between atoms: C_12  and  C_13
REMARK                            x       y       z     vdW  Elec       q    Type
REMARK                         _______ _______ _______ _____ _____    ______ ____
ROOT
ATOM      1  C   UNL     1       4.749   4.074  18.755  0.00  0.00    +0.000 C 
ENDROOT
BRANCH   1   2
ATOM      2  O   UNL     1       5.278   2.860  19.315  0.00  0.00    +0.000 OA
ATOM      3  H   UNL     1       6.234   2.991  19.438  0.00  0.00    +0.000 HD
ENDBRANCH   1   2
BRANCH   1   4
ATOM      4  C   UNL     1       3.670   3.771  17.677  0.00  0.00    +0.000 C 
BRANCH   4   9
ATOM      5  C   UNL     1       1.433   2.699  21.830  0.00  0.00    +0.000 C 
ATOM      6  N   UNL     1       1.336   3.478  20.602  0.00  0.00    +0.000 NA
ATOM      7  C   UNL     1       1.292   2.605  19.415  0.00  0.00    +0.000 C 
ATOM      8  C   UNL     1       1.259   3.409  18.091  0.00  0.00    +0.000 C 
ATOM      9  N   UNL     1       2.350   4.396  17.933  0.00  0.00    +0.000 NA
ATOM     10  C   UNL     1       2.366   5.236  19.156  0.00  0.00    +0.000 C 
ATOM     11  C   UNL     1       2.444   4.443  20.483  0.00  0.00    +0.000 C 
ENDBRANCH   4   9
ENDBRANCH   1   4
BRANCH   1  12
ATOM     12  C   UNL     1       5.938   4.889  18.200  0.00  0.00    +0.000 C 
BRANCH  12  13
ATOM     13  N   UNL     1       5.786   5.461  16.851  0.00  0.00    +0.000 NA
ATOM     14  C   UNL     1       5.404   6.877  16.917  0.00  0.00    +0.000 C 
BRANCH  13  15
ATOM     15  C   UNL     1       7.053   5.349  16.093  0.00  0.00    +0.000 C 
BRANCH  15  16
ATOM     16  C   UNL     1       6.884   4.852  14.672  0.00  0.00    +0.000 A 
ATOM     17  C   UNL     1       7.713   5.311  13.644  0.00  0.00    +0.000 A 
ATOM     18  C   UNL     1       7.549   4.788  12.367  0.00  0.00    +0.000 A 
ATOM     19  N   UNL     1       6.631   3.848  12.054  0.00  0.00    +0.000 NA
ATOM     20  C   UNL     1       5.839   3.418  13.061  0.00  0.00    +0.000 A 
ATOM     21  C   UNL     1       5.925   3.885  14.367  0.00  0.00    +0.000 A 
ENDBRANCH  15  16
ENDBRANCH  13  15
ENDBRANCH  12  13
ENDBRANCH   1  12
TORSDOF 7
ENDMDL
MODEL 6
REMARK VINA RESULT:      -5.7      1.457      2.290
REMARK  Name = 
REMARK  9 active torsions:
REMARK  status: ('A' for Active; 'I' for Inactive)
REMARK    1  A    between atoms: C_1  and  N_2
REMARK    2  A    between atoms: N_5  and  C_6
REMARK    3  A    between atoms: C_6  and  C_7
REMARK    4  A    between atoms: C_7  and  O_8
REMARK    5  A    between atoms: C_7  and  C_9
REMARK    6  A    between atoms: C_9  and  N_10
REMARK    7  A    between atoms: N_10  and  C_11
REMARK    8  A    between atoms: N_10  and  C_12
REMARK    9  A    between atoms: C_12  and  C_13
REMARK                            x       y       z     vdW  Elec       q    Type
REMARK                         _______ _______ _______ _____ _____    ______ ____
ROOT
ATOM      1  C   UNL     1       3.595   3.210  18.630  0.00  0.00    +0.000 C 
ENDROOT
BRANCH   1   2
ATOM      2  O   UNL     1       4.227   2.094  19.281  0.00  0.00    +0.000 OA
ATOM      3  H   UNL     1       3.648   1.820  20.012  0.00  0.00    +0.000 HD
ENDBRANCH   1   2
BRANCH   1   4
ATOM      4  C   UNL     1       4.408   3.668  17.386  0.00  0.00    +0.000 C 
BRANCH   4   9
ATOM      5  C   UNL     1       7.409   5.041  13.849  0.00  0.00    +0.000 C 
ATOM      6  N   UNL     1       6.885   5.400  15.162  0.00  0.00    +0.000 NA
ATOM      7  C   UNL     1       7.244   4.393  16.177  0.00  0.00    +0.000 C 
ATOM      8  C   UNL     1       6.641   4.714  17.567  0.00  0.00    +0.000 C 
ATOM      9  N   UNL     1       5.177   4.921  17.579  0.00  0.00    +0.000 NA
ATOM     10  C   UNL     1       4.864   5.925  16.533  0.00  0.00    +0.000 C 
ATOM     11  C   UNL     1       5.424   5.591  15.129  0.00  0.00    +0.000 C 
ENDBRANCH   4   9
ENDBRANCH   1   4
BRANCH   1  12
ATOM     12  C   UNL     1       3.426   4.329  19.682  0.00  0.00    +0.000 C 
BRANCH  12  13
ATOM     13  N   UNL     1       2.136   5.041  19.700  0.00  0.00    +0.000 NA
ATOM     14  C   UNL     1       1.067   4.184  20.225  0.00  0.00    +0.000 C 
BRANCH  13  15
ATOM     15  C   UNL     1       2.224   6.254  20.542  0.00  0.00    +0.000 C 
BRANCH  15  16
ATOM     16  C   UNL     1       1.903   7.542  19.812  0.00  0.00    +0.000 A 
ATOM     17  C   UNL     1       1.201   8.574  20.441  0.00  0.00    +0.000 A 
ATOM     18  C   UNL     1       0.973   9.753  19.743  0.00  0.00    +0.000 A 
ATOM     19  N   UNL     1       1.398   9.971  18.480  0.00  0.00    +0.000 NA
ATOM     20  C   UNL     1       2.074   8.962  17.888  0.00  0.00    +0.000 A 
ATOM     21  C   UNL     1       2.345   7.746  18.503  0.00  0.00    +0.000 A 
ENDBRANCH  15  16
ENDBRANCH  13  15
ENDBRANCH  12  13
ENDBRANCH   1  12
TORSDOF 7
ENDMDL
MODEL 7
REMARK VINA RESULT:      -5.5      2.780      6.613
REMARK  Name = 
REMARK  9 active torsions:
REMARK  status: ('A' for Active; 'I' for Inactive)
REMARK    1  A    between atoms: C_1  and  N_2
REMARK    2  A    between atoms: N_5  and  C_6
REMARK    3  A    between atoms: C_6  and  C_7
REMARK    4  A    between atoms: C_7  and  O_8
REMARK    5  A    between atoms: C_7  and  C_9
REMARK    6  A    between atoms: C_9  and  N_10
REMARK    7  A    between atoms: N_10  and  C_11
REMARK    8  A    between atoms: N_10  and  C_12
REMARK    9  A    between atoms: C_12  and  C_13
REMARK                            x       y       z     vdW  Elec       q    Type
REMARK                         _______ _______ _______ _____ _____    ______ ____
ROOT
ATOM      1  C   UNL     1       4.265   6.505  17.527  0.00  0.00    +0.000 C 
ENDROOT
BRANCH   1   2
ATOM      2  O   UNL     1       3.544   7.737  17.358  0.00  0.00    +0.000 OA
ATOM      3  H   UNL     1       3.976   8.229  16.638  0.00  0.00    +0.000 HD
ENDBRANCH   1   2
BRANCH   1   4
ATOM      4  C   UNL     1       3.965   5.865  18.912  0.00  0.00    +0.000 C 
BRANCH   4   9
ATOM      5  C   UNL     1       3.726   1.038  18.702  0.00  0.00    +0.000 C 
ATOM      6  N   UNL     1       2.939   2.255  18.860  0.00  0.00    +0.000 NA
ATOM      7  C   UNL     1       3.027   3.110  17.661  0.00  0.00    +0.000 C 
ATOM      8  C   UNL     1       2.256   4.443  17.829  0.00  0.00    +0.000 C 
ATOM      9  N   UNL     1       2.628   5.233  19.023  0.00  0.00    +0.000 NA
ATOM     10  C   UNL     1       2.542   4.328  20.195  0.00  0.00    +0.000 C 
ATOM     11  C   UNL     1       3.347   3.013  20.056  0.00  0.00    +0.000 C 
ENDBRANCH   4   9
ENDBRANCH   1   4
BRANCH   1  12
ATOM     12  C   UNL     1       5.766   6.810  17.320  0.00  0.00    +0.000 C 
BRANCH  12  13
ATOM     13  N   UNL     1       6.570   5.781  16.637  0.00  0.00    +0.000 NA
ATOM     14  C   UNL     1       7.318   4.969  17.604  0.00  0.00    +0.000 C 
BRANCH  13  15
ATOM     15  C   UNL     1       5.702   4.887  15.841  0.00  0.00    +0.000 C 
BRANCH  15  16
ATOM     16  C   UNL     1       6.229   4.583  14.453  0.00  0.00    +0.000 A 
ATOM     17  C   UNL     1       5.573   3.679  13.612  0.00  0.00    +0.000 A 
ATOM     18  C   UNL     1       6.071   3.471  12.333  0.00  0.00    +0.000 A 
ATOM     19  N   UNL     1       7.160   4.100  11.841  0.00  0.00    +0.000 NA
ATOM     20  C   UNL     1       7.781   4.969  12.668  0.00  0.00    +0.000 A 
ATOM     21  C   UNL     1       7.362   5.238  13.965  0.00  0.00    +0.000 A 
ENDBRANCH  15  16
ENDBRANCH  13  15
ENDBRANCH  12  13
ENDBRANCH   1  12
TORSDOF 7
ENDMDL
MODEL 8
REMARK VINA RESULT:      -5.4      1.822      3.744
REMARK  Name = 
REMARK  9 active torsions:
REMARK  status: ('A' for Active; 'I' for Inactive)
REMARK    1  A    between atoms: C_1  and  N_2
REMARK    2  A    between atoms: N_5  and  C_6
REMARK    3  A    between atoms: C_6  and  C_7
REMARK    4  A    between atoms: C_7  and  O_8
REMARK    5  A    between atoms: C_7  and  C_9
REMARK    6  A    between atoms: C_9  and  N_10
REMARK    7  A    between atoms: N_10  and  C_11
REMARK    8  A    between atoms: N_10  and  C_12
REMARK    9  A    between atoms: C_12  and  C_13
REMARK                            x       y       z     vdW  Elec       q    Type
REMARK                         _______ _______ _______ _____ _____    ______ ____
ROOT
ATOM      1  C   UNL     1       5.344   4.368  18.557  0.00  0.00    +0.000 C 
ENDROOT
BRANCH   1   2
ATOM      2  O   UNL     1       5.053   3.221  19.373  0.00  0.00    +0.000 OA
ATOM      3  H   UNL     1       4.256   3.429  19.890  0.00  0.00    +0.000 HD
ENDBRANCH   1   2
BRANCH   1   4
ATOM      4  C   UNL     1       6.186   5.415  19.339  0.00  0.00    +0.000 C 
BRANCH   4   9
ATOM      5  C   UNL     1       6.716   5.312  14.532  0.00  0.00    +0.000 C 
ATOM      6  N   UNL     1       7.416   5.517  15.795  0.00  0.00    +0.000 NA
ATOM      7  C   UNL     1       7.385   4.300  16.628  0.00  0.00    +0.000 C 
ATOM      8  C   UNL     1       8.062   4.511  18.005  0.00  0.00    +0.000 C 
ATOM      9  N   UNL     1       7.542   5.654  18.788  0.00  0.00    +0.000 NA
ATOM     10  C   UNL     1       7.575   6.845  17.904  0.00  0.00    +0.000 C 
ATOM     11  C   UNL     1       6.862   6.660  16.543  0.00  0.00    +0.000 C 
ENDBRANCH   4   9
ENDBRANCH   1   4
BRANCH   1  12
ATOM     12  C   UNL     1       3.999   4.936  18.052  0.00  0.00    +0.000 C 
BRANCH  12  13
ATOM     13  N   UNL     1       3.561   6.224  18.619  0.00  0.00    +0.000 NA
ATOM     14  C   UNL     1       3.542   7.273  17.592  0.00  0.00    +0.000 C 
BRANCH  13  15
ATOM     15  C   UNL     1       2.204   6.104  19.196  0.00  0.00    +0.000 C 
BRANCH  15  16
ATOM     16  C   UNL     1       1.945   4.789  19.904  0.00  0.00    +0.000 A 
ATOM     17  C   UNL     1       2.408   4.564  21.203  0.00  0.00    +0.000 A 
ATOM     18  C   UNL     1       2.103   3.360  21.825  0.00  0.00    +0.000 A 
ATOM     19  N   UNL     1       1.372   2.382  21.247  0.00  0.00    +0.000 NA
ATOM     20  C   UNL     1       0.934   2.617  19.991  0.00  0.00    +0.000 A 
ATOM     21  C   UNL     1       1.193   3.787  19.287  0.00  0.00    +0.000 A 
ENDBRANCH  15  16
ENDBRANCH  13  15
ENDBRANCH  12  13
ENDBRANCH   1  12
TORSDOF 7
ENDMDL
MODEL 9
REMARK VINA RESULT:      -5.3      1.318      1.822
REMARK  Name = 
REMARK  9 active torsions:
REMARK  status: ('A' for Active; 'I' for Inactive)
REMARK    1  A    between atoms: C_1  and  N_2
REMARK    2  A    between atoms: N_5  and  C_6
REMARK    3  A    between atoms: C_6  and  C_7
REMARK    4  A    between atoms: C_7  and  O_8
REMARK    5  A    between atoms: C_7  and  C_9
REMARK    6  A    between atoms: C_9  and  N_10
REMARK    7  A    between atoms: N_10  and  C_11
REMARK    8  A    between atoms: N_10  and  C_12
REMARK    9  A    between atoms: C_12  and  C_13
REMARK                            x       y       z     vdW  Elec       q    Type
REMARK                         _______ _______ _______ _____ _____    ______ ____
ROOT
ATOM      1  C   UNL     1       4.566   2.924  18.981  0.00  0.00    +0.000 C 
ENDROOT
BRANCH   1   2
ATOM      2  O   UNL     1       5.218   2.221  20.052  0.00  0.00    +0.000 OA
ATOM      3  H   UNL     1       4.522   1.858  20.626  0.00  0.00    +0.000 HD
ENDBRANCH   1   2
BRANCH   1   4
ATOM      4  C   UNL     1       5.256   4.288  18.702  0.00  0.00    +0.000 C 
BRANCH   4   9
ATOM      5  C   UNL     1       7.595   8.392  17.659  0.00  0.00    +0.000 C 
ATOM      6  N   UNL     1       7.316   7.039  17.194  0.00  0.00    +0.000 NA
ATOM      7  C   UNL     1       5.877   6.845  16.938  0.00  0.00    +0.000 C 
ATOM      8  C   UNL     1       5.544   5.394  16.509  0.00  0.00    +0.000 C 
ATOM      9  N   UNL     1       6.023   4.344  17.434  0.00  0.00    +0.000 NA
ATOM     10  C   UNL     1       7.466   4.592  17.674  0.00  0.00    +0.000 C 
ATOM     11  C   UNL     1       7.805   6.027  18.147  0.00  0.00    +0.000 C 
ENDBRANCH   4   9
ENDBRANCH   1   4
BRANCH   1  12
ATOM     12  C   UNL     1       3.075   3.072  19.360  0.00  0.00    +0.000 C 
BRANCH  12  13
ATOM     13  N   UNL     1       2.085   2.818  18.299  0.00  0.00    +0.000 NA
ATOM     14  C   UNL     1       0.888   2.163  18.839  0.00  0.00    +0.000 C 
BRANCH  13  15
ATOM     15  C   UNL     1       1.679   4.085  17.652  0.00  0.00    +0.000 C 
BRANCH  15  16
ATOM     16  C   UNL     1       1.800   5.304  18.543  0.00  0.00    +0.000 A 
ATOM     17  C   UNL     1       1.429   5.253  19.890  0.00  0.00    +0.000 A 
ATOM     18  C   UNL     1       1.603   6.385  20.677  0.00  0.00    +0.000 A 
ATOM     19  N   UNL     1       2.121   7.544  20.217  0.00  0.00    +0.000 NA
ATOM     20  C   UNL     1       2.473   7.574  18.914  0.00  0.00    +0.000 A 
ATOM     21  C   UNL     1       2.332   6.497  18.048  0.00  0.00    +0.000 A 
ENDBRANCH  15  16
ENDBRANCH  13  15
ENDBRANCH  12  13
ENDBRANCH   1  12
TORSDOF 7
ENDMDL
