MODEL 1
REMARK VINA RESULT:      -6.5      0.000      0.000
REMARK  Name = 
REMARK  11 active torsions:
REMARK  status: ('A' for Active; 'I' for Inactive)
REMARK    1  A    between atoms: C_1  and  N_2
REMARK    2  A    between atoms: N_2  and  C_3
REMARK    3  A    between atoms: C_3  and  C_4
REMARK    4  A    between atoms: C_4  and  C_5
REMARK    5  A    between atoms: C_5  and  C_6
REMARK    6  A    between atoms: C_6  and  O_7
REMARK    7  A    between atoms: O_7  and  C_8
REMARK    8  A    between atoms: C_8  and  C_9
REMARK    9  A    between atoms: C_9  and  O_11
REMARK   10  A    between atoms: C_15  and  C_16
REMARK   11  A    between atoms: C_22  and  C_23
REMARK                            x       y       z     vdW  Elec       q    Type
REMARK                         _______ _______ _______ _____ _____    ______ ____
ROOT
ATOM      1  C   UNL     1       5.009   6.347  17.080  0.00  0.00    +0.000 C 
ATOM      2  N   UNL     1       3.967   6.137  18.081  0.00  0.00    +0.000 N 
ATOM      3  C   UNL     1       3.048   7.174  18.288  0.00  0.00    +0.000 A 
ATOM      4  C   UNL     1       2.712   8.057  17.259  0.00  0.00    +0.000 A 
ATOM      5  N   UNL     1       1.878   9.112  17.385  0.00  0.00    +0.000 NA
ATOM      6  C   UNL     1       1.332   9.306  18.611  0.00  0.00    +0.000 A 
ATOM      7  C   UNL     1       1.586   8.397  19.668  0.00  0.00    +0.000 A 
ATOM      8  N   UNL     1       2.451   7.339  19.497  0.00  0.00    +0.000 NA
ENDROOT
BRANCH   6   9
ATOM      9  C   UNL     1       0.521  10.549  18.675  0.00  0.00    +0.000 A 
ATOM     10  C   UNL     1      -0.830  10.531  18.278  0.00  0.00    +0.000 A 
ATOM     11  C   UNL     1      -1.629  11.679  18.358  0.00  0.00    +0.000 A 
ATOM     12  C   UNL     1      -1.101  12.858  18.873  0.00  0.00    +0.000 A 
ATOM     13  C   UNL     1       0.231  12.905  19.263  0.00  0.00    +0.000 A 
ATOM     14  C   UNL     1       1.043  11.779  19.109  0.00  0.00    +0.000 A 
ENDBRANCH   6   9
BRANCH   7  15
ATOM     15  C   UNL     1       1.036   8.548  21.044  0.00  0.00    +0.000 A 
ATOM     16  C   UNL     1      -0.331   8.350  21.325  0.00  0.00    +0.000 A 
ATOM     17  C   UNL     1      -0.916   8.849  22.493  0.00  0.00    +0.000 A 
ATOM     18  C   UNL     1      -0.123   9.433  23.471  0.00  0.00    +0.000 A 
ATOM     19  C   UNL     1       1.259   9.482  23.295  0.00  0.00    +0.000 A 
ATOM     20  C   UNL     1       1.831   9.049  22.091  0.00  0.00    +0.000 A 
ENDBRANCH   7  15
BRANCH   2  21
ATOM     21  C   UNL     1       4.291   5.275  19.219  0.00  0.00    +0.000 C 
BRANCH  21  22
ATOM     22  C   UNL     1       4.951   3.974  18.753  0.00  0.00    +0.000 C 
BRANCH  22  23
ATOM     23  C   UNL     1       4.072   2.728  18.942  0.00  0.00    +0.000 C 
BRANCH  23  24
ATOM     24  C   UNL     1       2.928   2.695  17.928  0.00  0.00    +0.000 C 
BRANCH  24  25
ATOM     25  O   UNL     1       1.786   3.355  18.481  0.00  0.00    +0.000 OA
BRANCH  25  26
ATOM     26  C   UNL     1       1.194   2.587  19.543  0.00  0.00    +0.000 C 
BRANCH  26  27
ATOM     27  C   UNL     1       1.288   3.362  20.839  0.00  0.00    +0.000 C 
ATOM     28  O   UNL     1       1.533   2.864  21.930  0.00  0.00    +0.000 OA
BRANCH  27  29
ATOM     29  O   UNL     1       1.093   4.689  20.664  0.00  0.00    +0.000 OA
ATOM     30  H   UNL     1       1.367   4.918  19.737  0.00  0.00    +0.000 HD
ENDBRANCH  27  29
ENDBRANCH  26  27
ENDBRANCH  25  26
ENDBRANCH  24  25
ENDBRANCH  23  24
ENDBRANCH  22  23
ENDBRANCH  21  22
ENDBRANCH   2  21
TORSDOF 10
ENDMDL
MODEL 2
REMARK VINA RESULT:      -6.5      3.838      5.850
REMARK  Name = 
REMARK  11 active torsions:
REMARK  status: ('A' for Active; 'I' for Inactive)
REMARK    1  A    between atoms: C_1  and  N_2
REMARK    2  A    between atoms: N_2  and  C_3
REMARK    3  A    between atoms: C_3  and  C_4
REMARK    4  A    between atoms: C_4  and  C_5
REMARK    5  A    between atoms: C_5  and  C_6
REMARK    6  A    between atoms: C_6  and  O_7
REMARK    7  A    between atoms: O_7  and  C_8
REMARK    8  A    between atoms: C_8  and  C_9
REMARK    9  A    between atoms: C_9  and  O_11
REMARK   10  A    between atoms: C_15  and  C_16
REMARK   11  A    between atoms: C_22  and  C_23
REMARK                            x       y       z     vdW  Elec       q    Type
REMARK                         _______ _______ _______ _____ _____    ______ ____
ROOT
ATOM      1  C   UNL     1       7.153   6.508  16.338  0.00  0.00    +0.000 C 
ATOM      2  N   UNL     1       6.017   5.619  16.560  0.00  0.00    +0.000 N 
ATOM      3  C   UNL     1       4.901   6.145  17.224  0.00  0.00    +0.000 A 
ATOM      4  C   UNL     1       4.583   7.503  17.136  0.00  0.00    +0.000 A 
ATOM      5  N   UNL     1       3.560   8.103  17.782  0.00  0.00    +0.000 NA
ATOM      6  C   UNL     1       2.792   7.306  18.567  0.00  0.00    +0.000 A 
ATOM      7  C   UNL     1       3.032   5.911  18.633  0.00  0.00    +0.000 A 
ATOM      8  N   UNL     1       4.092   5.344  17.964  0.00  0.00    +0.000 NA
ENDROOT
BRANCH   6   9
ATOM      9  C   UNL     1       1.768   8.076  19.317  0.00  0.00    +0.000 A 
ATOM     10  C   UNL     1       1.547   7.813  20.682  0.00  0.00    +0.000 A 
ATOM     11  C   UNL     1       0.612   8.544  21.425  0.00  0.00    +0.000 A 
ATOM     12  C   UNL     1      -0.093   9.582  20.824  0.00  0.00    +0.000 A 
ATOM     13  C   UNL     1       0.098   9.856  19.476  0.00  0.00    +0.000 A 
ATOM     14  C   UNL     1       0.976   9.073  18.723  0.00  0.00    +0.000 A 
ENDBRANCH   6   9
BRANCH   7  15
ATOM     15  C   UNL     1       2.243   4.973  19.480  0.00  0.00    +0.000 A 
ATOM     16  C   UNL     1       2.535   4.777  20.845  0.00  0.00    +0.000 A 
ATOM     17  C   UNL     1       2.074   3.653  21.537  0.00  0.00    +0.000 A 
ATOM     18  C   UNL     1       1.196   2.771  20.921  0.00  0.00    +0.000 A 
ATOM     19  C   UNL     1       0.752   3.037  19.627  0.00  0.00    +0.000 A 
ATOM     20  C   UNL     1       1.275   4.124  18.912  0.00  0.00    +0.000 A 
ENDBRANCH   7  15
BRANCH   2  21
ATOM     21  C   UNL     1       6.301   4.193  16.731  0.00  0.00    +0.000 C 
BRANCH  21  22
ATOM     22  C   UNL     1       5.808   3.386  15.525  0.00  0.00    +0.000 C 
BRANCH  22  23
ATOM     23  C   UNL     1       5.596   4.227  14.259  0.00  0.00    +0.000 C 
BRANCH  23  24
ATOM     24  C   UNL     1       6.746   4.043  13.268  0.00  0.00    +0.000 C 
BRANCH  24  25
ATOM     25  O   UNL     1       6.213   3.768  11.970  0.00  0.00    +0.000 OA
BRANCH  25  26
ATOM     26  C   UNL     1       5.585   2.475  11.918  0.00  0.00    +0.000 C 
BRANCH  26  27
ATOM     27  C   UNL     1       6.546   1.472  11.317  0.00  0.00    +0.000 C 
ATOM     28  O   UNL     1       7.651   1.752  10.868  0.00  0.00    +0.000 OA
BRANCH  27  29
ATOM     29  O   UNL     1       6.063   0.210  11.347  0.00  0.00    +0.000 OA
ATOM     30  H   UNL     1       5.108   0.254  11.618  0.00  0.00    +0.000 HD
ENDBRANCH  27  29
ENDBRANCH  26  27
ENDBRANCH  25  26
ENDBRANCH  24  25
ENDBRANCH  23  24
ENDBRANCH  22  23
ENDBRANCH  21  22
ENDBRANCH   2  21
TORSDOF 10
ENDMDL
MODEL 3
REMARK VINA RESULT:      -6.4      3.902      7.872
REMARK  Name = 
REMARK  11 active torsions:
REMARK  status: ('A' for Active; 'I' for Inactive)
REMARK    1  A    between atoms: C_1  and  N_2
REMARK    2  A    between atoms: N_2  and  C_3
REMARK    3  A    between atoms: C_3  and  C_4
REMARK    4  A    between atoms: C_4  and  C_5
REMARK    5  A    between atoms: C_5  and  C_6
REMARK    6  A    between atoms: C_6  and  O_7
REMARK    7  A    between atoms: O_7  and  C_8
REMARK    8  A    between atoms: C_8  and  C_9
REMARK    9  A    between atoms: C_9  and  O_11
REMARK   10  A    between atoms: C_15  and  C_16
REMARK   11  A    between atoms: C_22  and  C_23
REMARK                            x       y       z     vdW  Elec       q    Type
REMARK                         _______ _______ _______ _____ _____    ______ ____
ROOT
ATOM      1  C   UNL     1       0.366  10.808  19.023  0.00  0.00    +0.000 C 
ATOM      2  N   UNL     1       0.757   9.704  19.895  0.00  0.00    +0.000 N 
ATOM      3  C   UNL     1       1.579   8.708  19.351  0.00  0.00    +0.000 A 
ATOM      4  C   UNL     1       2.477   8.997  18.320  0.00  0.00    +0.000 A 
ATOM      5  N   UNL     1       3.268   8.092  17.704  0.00  0.00    +0.000 NA
ATOM      6  C   UNL     1       3.170   6.811  18.140  0.00  0.00    +0.000 A 
ATOM      7  C   UNL     1       2.326   6.481  19.229  0.00  0.00    +0.000 A 
ATOM      8  N   UNL     1       1.531   7.436  19.822  0.00  0.00    +0.000 NA
ENDROOT
BRANCH   6   9
ATOM      9  C   UNL     1       3.993   5.878  17.330  0.00  0.00    +0.000 A 
ATOM     10  C   UNL     1       3.919   4.490  17.559  0.00  0.00    +0.000 A 
ATOM     11  C   UNL     1       4.658   3.583  16.789  0.00  0.00    +0.000 A 
ATOM     12  C   UNL     1       5.456   4.045  15.748  0.00  0.00    +0.000 A 
ATOM     13  C   UNL     1       5.554   5.409  15.506  0.00  0.00    +0.000 A 
ATOM     14  C   UNL     1       4.875   6.313  16.326  0.00  0.00    +0.000 A 
ENDBRANCH   6   9
BRANCH   7  15
ATOM     15  C   UNL     1       2.154   5.098  19.757  0.00  0.00    +0.000 A 
ATOM     16  C   UNL     1       1.344   4.147  19.103  0.00  0.00    +0.000 A 
ATOM     17  C   UNL     1       0.875   3.009  19.766  0.00  0.00    +0.000 A 
ATOM     18  C   UNL     1       1.317   2.722  21.050  0.00  0.00    +0.000 A 
ATOM     19  C   UNL     1       2.257   3.555  21.655  0.00  0.00    +0.000 A 
ATOM     20  C   UNL     1       2.666   4.734  21.016  0.00  0.00    +0.000 A 
ENDBRANCH   7  15
BRANCH   2  21
ATOM     21  C   UNL     1      -0.181   9.313  20.948  0.00  0.00    +0.000 C 
BRANCH  21  22
ATOM     22  C   UNL     1       0.130  10.042  22.260  0.00  0.00    +0.000 C 
BRANCH  22  23
ATOM     23  C   UNL     1      -1.082  10.751  22.880  0.00  0.00    +0.000 C 
BRANCH  23  24
ATOM     24  C   UNL     1      -1.002  12.266  22.686  0.00  0.00    +0.000 C 
BRANCH  24  25
ATOM     25  O   UNL     1      -2.317  12.823  22.761  0.00  0.00    +0.000 OA
BRANCH  25  26
ATOM     26  C   UNL     1      -3.146  12.100  23.688  0.00  0.00    +0.000 C 
BRANCH  26  27
ATOM     27  C   UNL     1      -4.088  13.063  24.378  0.00  0.00    +0.000 C 
ATOM     28  O   UNL     1      -3.917  14.274  24.444  0.00  0.00    +0.000 OA
BRANCH  27  29
ATOM     29  O   UNL     1      -5.168  12.443  24.905  0.00  0.00    +0.000 OA
ATOM     30  H   UNL     1      -5.329  12.825  25.808  0.00  0.00    +0.000 HD
ENDBRANCH  27  29
ENDBRANCH  26  27
ENDBRANCH  25  26
ENDBRANCH  24  25
ENDBRANCH  23  24
ENDBRANCH  22  23
ENDBRANCH  21  22
ENDBRANCH   2  21
TORSDOF 10
ENDMDL
MODEL 4
REMARK VINA RESULT:      -6.4      1.596      2.558
REMARK  Name = 
REMARK  11 active torsions:
REMARK  status: ('A' for Active; 'I' for Inactive)
REMARK    1  A    between atoms: C_1  and  N_2
REMARK    2  A    between atoms: N_2  and  C_3
REMARK    3  A    between atoms: C_3  and  C_4
REMARK    4  A    between atoms: C_4  and  C_5
REMARK    5  A    between atoms: C_5  and  C_6
REMARK    6  A    between atoms: C_6  and  O_7
REMARK    7  A    between atoms: O_7  and  C_8
REMARK    8  A    between atoms: C_8  and  C_9
REMARK    9  A    between atoms: C_9  and  O_11
REMARK   10  A    between atoms: C_15  and  C_16
REMARK   11  A    between atoms: C_22  and  C_23
REMARK                            x       y       z     vdW  Elec       q    Type
REMARK                         _______ _______ _______ _____ _____    ______ ____
ROOT
ATOM      1  C   UNL     1       3.866   6.138  17.882  0.00  0.00    +0.000 C 
ATOM      2  N   UNL     1       2.708   6.419  18.726  0.00  0.00    +0.000 N 
ATOM      3  C   UNL     1       2.245   7.740  18.773  0.00  0.00    +0.000 A 
ATOM      4  C   UNL     1       2.410   8.602  17.686  0.00  0.00    +0.000 A 
ATOM      5  N   UNL     1       2.043   9.901  17.663  0.00  0.00    +0.000 NA
ATOM      6  C   UNL     1       1.466  10.384  18.793  0.00  0.00    +0.000 A 
ATOM      7  C   UNL     1       1.214   9.532  19.896  0.00  0.00    +0.000 A 
ATOM      8  N   UNL     1       1.614   8.215  19.878  0.00  0.00    +0.000 NA
ENDROOT
BRANCH   6   9
ATOM      9  C   UNL     1       1.201  11.843  18.708  0.00  0.00    +0.000 A 
ATOM     10  C   UNL     1      -0.079  12.308  18.349  0.00  0.00    +0.000 A 
ATOM     11  C   UNL     1      -0.369  13.676  18.293  0.00  0.00    +0.000 A 
ATOM     12  C   UNL     1       0.606  14.607  18.634  0.00  0.00    +0.000 A 
ATOM     13  C   UNL     1       1.880  14.176  18.983  0.00  0.00    +0.000 A 
ATOM     14  C   UNL     1       2.185  12.813  18.962  0.00  0.00    +0.000 A 
ENDBRANCH   6   9
BRANCH   7  15
ATOM     15  C   UNL     1       0.599   9.988  21.174  0.00  0.00    +0.000 A 
ATOM     16  C   UNL     1       0.749   9.263  22.374  0.00  0.00    +0.000 A 
ATOM     17  C   UNL     1      -0.112   9.458  23.458  0.00  0.00    +0.000 A 
ATOM     18  C   UNL     1      -1.052  10.479  23.422  0.00  0.00    +0.000 A 
ATOM     19  C   UNL     1      -1.104  11.326  22.316  0.00  0.00    +0.000 A 
ATOM     20  C   UNL     1      -0.290  11.078  21.201  0.00  0.00    +0.000 A 
ENDBRANCH   7  15
BRANCH   2  21
ATOM     21  C   UNL     1       2.528   5.590  19.920  0.00  0.00    +0.000 C 
BRANCH  21  22
ATOM     22  C   UNL     1       1.217   4.800  19.847  0.00  0.00    +0.000 C 
BRANCH  22  23
ATOM     23  C   UNL     1       1.233   3.493  20.653  0.00  0.00    +0.000 C 
BRANCH  23  24
ATOM     24  C   UNL     1       2.524   3.352  21.460  0.00  0.00    +0.000 C 
BRANCH  24  25
ATOM     25  O   UNL     1       3.245   2.204  21.002  0.00  0.00    +0.000 OA
BRANCH  25  26
ATOM     26  C   UNL     1       4.069   2.515  19.865  0.00  0.00    +0.000 C 
BRANCH  26  27
ATOM     27  C   UNL     1       3.630   1.681  18.681  0.00  0.00    +0.000 C 
ATOM     28  O   UNL     1       2.707   1.972  17.930  0.00  0.00    +0.000 OA
BRANCH  27  29
ATOM     29  O   UNL     1       4.388   0.573  18.518  0.00  0.00    +0.000 OA
ATOM     30  H   UNL     1       5.230   0.701  19.029  0.00  0.00    +0.000 HD
ENDBRANCH  27  29
ENDBRANCH  26  27
ENDBRANCH  25  26
ENDBRANCH  24  25
ENDBRANCH  23  24
ENDBRANCH  22  23
ENDBRANCH  21  22
ENDBRANCH   2  21
TORSDOF 10
ENDMDL
MODEL 5
REMARK VINA RESULT:      -6.4      3.989      8.053
REMARK  Name = 
REMARK  11 active torsions:
REMARK  status: ('A' for Active; 'I' for Inactive)
REMARK    1  A    between atoms: C_1  and  N_2
REMARK    2  A    between atoms: N_2  and  C_3
REMARK    3  A    between atoms: C_3  and  C_4
REMARK    4  A    between atoms: C_4  and  C_5
REMARK    5  A    between atoms: C_5  and  C_6
REMARK    6  A    between atoms: C_6  and  O_7
REMARK    7  A    between atoms: O_7  and  C_8
REMARK    8  A    between atoms: C_8  and  C_9
REMARK    9  A    between atoms: C_9  and  O_11
REMARK   10  A    between atoms: C_15  and  C_16
REMARK   11  A    between atoms: C_22  and  C_23
REMARK                            x       y       z     vdW  Elec       q    Type
REMARK                         _______ _______ _______ _____ _____    ______ ____
ROOT
ATOM      1  C   UNL     1       0.057  10.653  19.057  0.00  0.00    +0.000 C 
ATOM      2  N   UNL     1       0.620   9.677  19.985  0.00  0.00    +0.000 N 
ATOM      3  C   UNL     1       1.462   8.690  19.456  0.00  0.00    +0.000 A 
ATOM      4  C   UNL     1       2.227   8.931  18.312  0.00  0.00    +0.000 A 
ATOM      5  N   UNL     1       3.023   8.023  17.706  0.00  0.00    +0.000 NA
ATOM      6  C   UNL     1       3.071   6.791  18.273  0.00  0.00    +0.000 A 
ATOM      7  C   UNL     1       2.368   6.519  19.472  0.00  0.00    +0.000 A 
ATOM      8  N   UNL     1       1.562   7.473  20.050  0.00  0.00    +0.000 NA
ENDROOT
BRANCH   6   9
ATOM      9  C   UNL     1       3.882   5.837  17.473  0.00  0.00    +0.000 A 
ATOM     10  C   UNL     1       5.159   6.211  17.012  0.00  0.00    +0.000 A 
ATOM     11  C   UNL     1       5.961   5.323  16.285  0.00  0.00    +0.000 A 
ATOM     12  C   UNL     1       5.517   4.029  16.039  0.00  0.00    +0.000 A 
ATOM     13  C   UNL     1       4.257   3.637  16.474  0.00  0.00    +0.000 A 
ATOM     14  C   UNL     1       3.431   4.552  17.132  0.00  0.00    +0.000 A 
ENDBRANCH   6   9
BRANCH   7  15
ATOM     15  C   UNL     1       2.361   5.191  20.147  0.00  0.00    +0.000 A 
ATOM     16  C   UNL     1       3.540   4.440  20.327  0.00  0.00    +0.000 A 
ATOM     17  C   UNL     1       3.498   3.069  20.598  0.00  0.00    +0.000 A 
ATOM     18  C   UNL     1       2.281   2.445  20.835  0.00  0.00    +0.000 A 
ATOM     19  C   UNL     1       1.111   3.202  20.837  0.00  0.00    +0.000 A 
ATOM     20  C   UNL     1       1.151   4.560  20.491  0.00  0.00    +0.000 A 
ENDBRANCH   7  15
BRANCH   2  21
ATOM     21  C   UNL     1      -0.175   9.334  21.165  0.00  0.00    +0.000 C 
BRANCH  21  22
ATOM     22  C   UNL     1       0.156  10.262  22.339  0.00  0.00    +0.000 C 
BRANCH  22  23
ATOM     23  C   UNL     1      -1.042  10.567  23.249  0.00  0.00    +0.000 C 
BRANCH  23  24
ATOM     24  C   UNL     1      -1.858  11.747  22.719  0.00  0.00    +0.000 C 
BRANCH  24  25
ATOM     25  O   UNL     1      -3.141  11.756  23.351  0.00  0.00    +0.000 OA
BRANCH  25  26
ATOM     26  C   UNL     1      -3.961  12.835  22.869  0.00  0.00    +0.000 C 
BRANCH  26  27
ATOM     27  C   UNL     1      -5.000  13.185  23.913  0.00  0.00    +0.000 C 
ATOM     28  O   UNL     1      -5.876  14.027  23.765  0.00  0.00    +0.000 OA
BRANCH  27  29
ATOM     29  O   UNL     1      -4.875  12.443  25.036  0.00  0.00    +0.000 OA
ATOM     30  H   UNL     1      -4.058  12.747  25.514  0.00  0.00    +0.000 HD
ENDBRANCH  27  29
ENDBRANCH  26  27
ENDBRANCH  25  26
ENDBRANCH  24  25
ENDBRANCH  23  24
ENDBRANCH  22  23
ENDBRANCH  21  22
ENDBRANCH   2  21
TORSDOF 10
ENDMDL
MODEL 6
REMARK VINA RESULT:      -6.4      0.824      1.530
REMARK  Name = 
REMARK  11 active torsions:
REMARK  status: ('A' for Active; 'I' for Inactive)
REMARK    1  A    between atoms: C_1  and  N_2
REMARK    2  A    between atoms: N_2  and  C_3
REMARK    3  A    between atoms: C_3  and  C_4
REMARK    4  A    between atoms: C_4  and  C_5
REMARK    5  A    between atoms: C_5  and  C_6
REMARK    6  A    between atoms: C_6  and  O_7
REMARK    7  A    between atoms: O_7  and  C_8
REMARK    8  A    between atoms: C_8  and  C_9
REMARK    9  A    between atoms: C_9  and  O_11
REMARK   10  A    between atoms: C_15  and  C_16
REMARK   11  A    between atoms: C_22  and  C_23
REMARK                            x       y       z     vdW  Elec       q    Type
REMARK                         _______ _______ _______ _____ _____    ______ ____
ROOT
ATOM      1  C   UNL     1       5.133   5.984  17.351  0.00  0.00    +0.000 C 
ATOM      2  N   UNL     1       4.026   5.852  18.293  0.00  0.00    +0.000 N 
ATOM      3  C   UNL     1       3.153   6.939  18.425  0.00  0.00    +0.000 A 
ATOM      4  C   UNL     1       2.923   7.814  17.360  0.00  0.00    +0.000 A 
ATOM      5  N   UNL     1       2.140   8.913  17.415  0.00  0.00    +0.000 NA
ATOM      6  C   UNL     1       1.536   9.164  18.603  0.00  0.00    +0.000 A 
ATOM      7  C   UNL     1       1.681   8.268  19.691  0.00  0.00    +0.000 A 
ATOM      8  N   UNL     1       2.497   7.164  19.593  0.00  0.00    +0.000 NA
ENDROOT
BRANCH   6   9
ATOM      9  C   UNL     1       0.790  10.448  18.593  0.00  0.00    +0.000 A 
ATOM     10  C   UNL     1       1.472  11.662  18.798  0.00  0.00    +0.000 A 
ATOM     11  C   UNL     1       0.803  12.892  18.762  0.00  0.00    +0.000 A 
ATOM     12  C   UNL     1      -0.559  12.932  18.479  0.00  0.00    +0.000 A 
ATOM     13  C   UNL     1      -1.258  11.749  18.282  0.00  0.00    +0.000 A 
ATOM     14  C   UNL     1      -0.599  10.522  18.397  0.00  0.00    +0.000 A 
ENDBRANCH   6   9
BRANCH   7  15
ATOM     15  C   UNL     1       1.062   8.480  21.029  0.00  0.00    +0.000 A 
ATOM     16  C   UNL     1      -0.324   8.333  21.240  0.00  0.00    +0.000 A 
ATOM     17  C   UNL     1      -0.955   8.887  22.358  0.00  0.00    +0.000 A 
ATOM     18  C   UNL     1      -0.199   9.477  23.361  0.00  0.00    +0.000 A 
ATOM     19  C   UNL     1       1.192   9.479  23.260  0.00  0.00    +0.000 A 
ATOM     20  C   UNL     1       1.814   8.990  22.103  0.00  0.00    +0.000 A 
ENDBRANCH   7  15
BRANCH   2  21
ATOM     21  C   UNL     1       4.239   5.002  19.466  0.00  0.00    +0.000 C 
BRANCH  21  22
ATOM     22  C   UNL     1       4.853   3.657  19.066  0.00  0.00    +0.000 C 
BRANCH  22  23
ATOM     23  C   UNL     1       4.407   2.482  19.948  0.00  0.00    +0.000 C 
BRANCH  23  24
ATOM     24  C   UNL     1       3.140   2.824  20.734  0.00  0.00    +0.000 C 
BRANCH  24  25
ATOM     25  O   UNL     1       2.105   1.901  20.387  0.00  0.00    +0.000 OA
BRANCH  25  26
ATOM     26  C   UNL     1       1.765   1.986  18.992  0.00  0.00    +0.000 C 
BRANCH  26  27
ATOM     27  C   UNL     1       1.003   3.268  18.735  0.00  0.00    +0.000 C 
ATOM     28  O   UNL     1       1.105   3.945  17.720  0.00  0.00    +0.000 OA
BRANCH  27  29
ATOM     29  O   UNL     1       0.167   3.586  19.749  0.00  0.00    +0.000 OA
ATOM     30  H   UNL     1      -0.645   3.018  19.665  0.00  0.00    +0.000 HD
ENDBRANCH  27  29
ENDBRANCH  26  27
ENDBRANCH  25  26
ENDBRANCH  24  25
ENDBRANCH  23  24
ENDBRANCH  22  23
ENDBRANCH  21  22
ENDBRANCH   2  21
TORSDOF 10
ENDMDL
MODEL 7
REMARK VINA RESULT:      -6.3      0.634      1.191
REMARK  Name = 
REMARK  11 active torsions:
REMARK  status: ('A' for Active; 'I' for Inactive)
REMARK    1  A    between atoms: C_1  and  N_2
REMARK    2  A    between atoms: N_2  and  C_3
REMARK    3  A    between atoms: C_3  and  C_4
REMARK    4  A    between atoms: C_4  and  C_5
REMARK    5  A    between atoms: C_5  and  C_6
REMARK    6  A    between atoms: C_6  and  O_7
REMARK    7  A    between atoms: O_7  and  C_8
REMARK    8  A    between atoms: C_8  and  C_9
REMARK    9  A    between atoms: C_9  and  O_11
REMARK   10  A    between atoms: C_15  and  C_16
REMARK   11  A    between atoms: C_22  and  C_23
REMARK                            x       y       z     vdW  Elec       q    Type
REMARK                         _______ _______ _______ _____ _____    ______ ____
ROOT
ATOM      1  C   UNL     1       5.260   6.162  17.252  0.00  0.00    +0.000 C 
ATOM      2  N   UNL     1       4.162   5.979  18.196  0.00  0.00    +0.000 N 
ATOM      3  C   UNL     1       3.252   7.033  18.344  0.00  0.00    +0.000 A 
ATOM      4  C   UNL     1       2.989   7.913  17.291  0.00  0.00    +0.000 A 
ATOM      5  N   UNL     1       2.168   8.984  17.362  0.00  0.00    +0.000 NA
ATOM      6  C   UNL     1       1.560   9.199  18.556  0.00  0.00    +0.000 A 
ATOM      7  C   UNL     1       1.739   8.295  19.632  0.00  0.00    +0.000 A 
ATOM      8  N   UNL     1       2.592   7.221  19.517  0.00  0.00    +0.000 NA
ENDROOT
BRANCH   6   9
ATOM      9  C   UNL     1       0.769  10.457  18.564  0.00  0.00    +0.000 A 
ATOM     10  C   UNL     1       1.406  11.688  18.808  0.00  0.00    +0.000 A 
ATOM     11  C   UNL     1       0.695  12.894  18.790  0.00  0.00    +0.000 A 
ATOM     12  C   UNL     1      -0.663  12.895  18.487  0.00  0.00    +0.000 A 
ATOM     13  C   UNL     1      -1.318  11.693  18.252  0.00  0.00    +0.000 A 
ATOM     14  C   UNL     1      -0.618  10.487  18.347  0.00  0.00    +0.000 A 
ENDBRANCH   6   9
BRANCH   7  15
ATOM     15  C   UNL     1       1.117   8.468  20.974  0.00  0.00    +0.000 A 
ATOM     16  C   UNL     1      -0.261   8.267  21.188  0.00  0.00    +0.000 A 
ATOM     17  C   UNL     1      -0.909   8.784  22.314  0.00  0.00    +0.000 A 
ATOM     18  C   UNL     1      -0.172   9.391  23.321  0.00  0.00    +0.000 A 
ATOM     19  C   UNL     1       1.218   9.446  23.216  0.00  0.00    +0.000 A 
ATOM     20  C   UNL     1       1.854   8.995  22.051  0.00  0.00    +0.000 A 
ENDBRANCH   7  15
BRANCH   2  21
ATOM     21  C   UNL     1       4.407   5.122  19.358  0.00  0.00    +0.000 C 
BRANCH  21  22
ATOM     22  C   UNL     1       4.709   3.684  18.925  0.00  0.00    +0.000 C 
BRANCH  22  23
ATOM     23  C   UNL     1       3.717   3.122  17.897  0.00  0.00    +0.000 C 
BRANCH  23  24
ATOM     24  C   UNL     1       2.535   2.434  18.581  0.00  0.00    +0.000 C 
BRANCH  24  25
ATOM     25  O   UNL     1       1.818   3.393  19.363  0.00  0.00    +0.000 OA
BRANCH  25  26
ATOM     26  C   UNL     1       0.945   2.756  20.313  0.00  0.00    +0.000 C 
BRANCH  26  27
ATOM     27  C   UNL     1       1.646   2.652  21.650  0.00  0.00    +0.000 C 
ATOM     28  O   UNL     1       2.839   2.865  21.827  0.00  0.00    +0.000 OA
BRANCH  27  29
ATOM     29  O   UNL     1       0.802   2.318  22.653  0.00  0.00    +0.000 OA
ATOM     30  H   UNL     1       0.731   1.327  22.675  0.00  0.00    +0.000 HD
ENDBRANCH  27  29
ENDBRANCH  26  27
ENDBRANCH  25  26
ENDBRANCH  24  25
ENDBRANCH  23  24
ENDBRANCH  22  23
ENDBRANCH  21  22
ENDBRANCH   2  21
TORSDOF 10
ENDMDL
MODEL 8
REMARK VINA RESULT:      -6.2      2.862      4.941
REMARK  Name = 
REMARK  11 active torsions:
REMARK  status: ('A' for Active; 'I' for Inactive)
REMARK    1  A    between atoms: C_1  and  N_2
REMARK    2  A    between atoms: N_2  and  C_3
REMARK    3  A    between atoms: C_3  and  C_4
REMARK    4  A    between atoms: C_4  and  C_5
REMARK    5  A    between atoms: C_5  and  C_6
REMARK    6  A    between atoms: C_6  and  O_7
REMARK    7  A    between atoms: O_7  and  C_8
REMARK    8  A    between atoms: C_8  and  C_9
REMARK    9  A    between atoms: C_9  and  O_11
REMARK   10  A    between atoms: C_15  and  C_16
REMARK   11  A    between atoms: C_22  and  C_23
REMARK                            x       y       z     vdW  Elec       q    Type
REMARK                         _______ _______ _______ _____ _____    ______ ____
ROOT
ATOM      1  C   UNL     1       1.586   5.740  20.778  0.00  0.00    +0.000 C 
ATOM      2  N   UNL     1       2.034   6.994  20.180  0.00  0.00    +0.000 N 
ATOM      3  C   UNL     1       1.451   8.179  20.647  0.00  0.00    +0.000 A 
ATOM      4  C   UNL     1       0.975   8.283  21.957  0.00  0.00    +0.000 A 
ATOM      5  N   UNL     1       0.355   9.365  22.473  0.00  0.00    +0.000 NA
ATOM      6  C   UNL     1       0.197  10.424  21.639  0.00  0.00    +0.000 A 
ATOM      7  C   UNL     1       0.724  10.394  20.325  0.00  0.00    +0.000 A 
ATOM      8  N   UNL     1       1.342   9.264  19.838  0.00  0.00    +0.000 NA
ENDROOT
BRANCH   6   9
ATOM      9  C   UNL     1      -0.591  11.518  22.264  0.00  0.00    +0.000 A 
ATOM     10  C   UNL     1      -1.775  11.222  22.966  0.00  0.00    +0.000 A 
ATOM     11  C   UNL     1      -2.522  12.227  23.593  0.00  0.00    +0.000 A 
ATOM     12  C   UNL     1      -2.076  13.544  23.564  0.00  0.00    +0.000 A 
ATOM     13  C   UNL     1      -0.916  13.865  22.870  0.00  0.00    +0.000 A 
ATOM     14  C   UNL     1      -0.218  12.870  22.182  0.00  0.00    +0.000 A 
ENDBRANCH   6   9
BRANCH   7  15
ATOM     15  C   UNL     1       0.581  11.508  19.347  0.00  0.00    +0.000 A 
ATOM     16  C   UNL     1       1.614  12.442  19.125  0.00  0.00    +0.000 A 
ATOM     17  C   UNL     1       1.363  13.678  18.521  0.00  0.00    +0.000 A 
ATOM     18  C   UNL     1       0.108  13.953  17.997  0.00  0.00    +0.000 A 
ATOM     19  C   UNL     1      -0.885  12.975  18.046  0.00  0.00    +0.000 A 
ATOM     20  C   UNL     1      -0.651  11.768  18.719  0.00  0.00    +0.000 A 
ENDBRANCH   7  15
BRANCH   2  21
ATOM     21  C   UNL     1       2.476   6.956  18.785  0.00  0.00    +0.000 C 
BRANCH  21  22
ATOM     22  C   UNL     1       2.639   5.511  18.300  0.00  0.00    +0.000 C 
BRANCH  22  23
ATOM     23  C   UNL     1       4.016   5.211  17.691  0.00  0.00    +0.000 C 
BRANCH  23  24
ATOM     24  C   UNL     1       4.620   3.936  18.282  0.00  0.00    +0.000 C 
BRANCH  24  25
ATOM     25  O   UNL     1       5.830   4.262  18.971  0.00  0.00    +0.000 OA
BRANCH  25  26
ATOM     26  C   UNL     1       6.531   5.343  18.330  0.00  0.00    +0.000 C 
BRANCH  26  27
ATOM     27  C   UNL     1       7.461   4.785  17.275  0.00  0.00    +0.000 C 
ATOM     28  O   UNL     1       7.397   5.054  16.081  0.00  0.00    +0.000 OA
BRANCH  27  29
ATOM     29  O   UNL     1       8.401   3.964  17.794  0.00  0.00    +0.000 OA
ATOM     30  H   UNL     1       8.317   3.081  17.345  0.00  0.00    +0.000 HD
ENDBRANCH  27  29
ENDBRANCH  26  27
ENDBRANCH  25  26
ENDBRANCH  24  25
ENDBRANCH  23  24
ENDBRANCH  22  23
ENDBRANCH  21  22
ENDBRANCH   2  21
TORSDOF 10
ENDMDL
MODEL 9
REMARK VINA RESULT:      -6.1      1.580      2.223
REMARK  Name = 
REMARK  11 active torsions:
REMARK  status: ('A' for Active; 'I' for Inactive)
REMARK    1  A    between atoms: C_1  and  N_2
REMARK    2  A    between atoms: N_2  and  C_3
REMARK    3  A    between atoms: C_3  and  C_4
REMARK    4  A    between atoms: C_4  and  C_5
REMARK    5  A    between atoms: C_5  and  C_6
REMARK    6  A    between atoms: C_6  and  O_7
REMARK    7  A    between atoms: O_7  and  C_8
REMARK    8  A    between atoms: C_8  and  C_9
REMARK    9  A    between atoms: C_9  and  O_11
REMARK   10  A    between atoms: C_15  and  C_16
REMARK   11  A    between atoms: C_22  and  C_23
REMARK                            x       y       z     vdW  Elec       q    Type
REMARK                         _______ _______ _______ _____ _____    ______ ____
ROOT
ATOM      1  C   UNL     1       4.233   6.406  17.764  0.00  0.00    +0.000 C 
ATOM      2  N   UNL     1       2.960   6.508  18.469  0.00  0.00    +0.000 N 
ATOM      3  C   UNL     1       2.389   7.781  18.596  0.00  0.00    +0.000 A 
ATOM      4  C   UNL     1       2.619   8.774  17.640  0.00  0.00    +0.000 A 
ATOM      5  N   UNL     1       2.153  10.039  17.709  0.00  0.00    +0.000 NA
ATOM      6  C   UNL     1       1.402  10.347  18.796  0.00  0.00    +0.000 A 
ATOM      7  C   UNL     1       1.082   9.356  19.757  0.00  0.00    +0.000 A 
ATOM      8  N   UNL     1       1.587   8.080  19.651  0.00  0.00    +0.000 NA
ENDROOT
BRANCH   6   9
ATOM      9  C   UNL     1       1.032  11.785  18.834  0.00  0.00    +0.000 A 
ATOM     10  C   UNL     1       1.918  12.727  19.391  0.00  0.00    +0.000 A 
ATOM     11  C   UNL     1       1.612  14.093  19.412  0.00  0.00    +0.000 A 
ATOM     12  C   UNL     1       0.430  14.549  18.839  0.00  0.00    +0.000 A 
ATOM     13  C   UNL     1      -0.467  13.640  18.291  0.00  0.00    +0.000 A 
ATOM     14  C   UNL     1      -0.191  12.271  18.342  0.00  0.00    +0.000 A 
ENDBRANCH   6   9
BRANCH   7  15
ATOM     15  C   UNL     1       0.276   9.617  20.982  0.00  0.00    +0.000 A 
ATOM     16  C   UNL     1      -0.743  10.591  21.010  0.00  0.00    +0.000 A 
ATOM     17  C   UNL     1      -1.230  11.105  22.216  0.00  0.00    +0.000 A 
ATOM     18  C   UNL     1      -0.813  10.558  23.421  0.00  0.00    +0.000 A 
ATOM     19  C   UNL     1       0.063   9.473  23.416  0.00  0.00    +0.000 A 
ATOM     20  C   UNL     1       0.606   9.012  22.209  0.00  0.00    +0.000 A 
ENDBRANCH   7  15
BRANCH   2  21
ATOM     21  C   UNL     1       2.698   5.535  19.532  0.00  0.00    +0.000 C 
BRANCH  21  22
ATOM     22  C   UNL     1       1.650   4.509  19.090  0.00  0.00    +0.000 C 
BRANCH  22  23
ATOM     23  C   UNL     1       1.856   3.985  17.662  0.00  0.00    +0.000 C 
BRANCH  23  24
ATOM     24  C   UNL     1       2.415   2.562  17.665  0.00  0.00    +0.000 C 
BRANCH  24  25
ATOM     25  O   UNL     1       2.599   2.129  19.016  0.00  0.00    +0.000 OA
BRANCH  25  26
ATOM     26  C   UNL     1       3.993   2.010  19.349  0.00  0.00    +0.000 C 
BRANCH  26  27
ATOM     27  C   UNL     1       4.154   2.004  20.854  0.00  0.00    +0.000 C 
ATOM     28  O   UNL     1       3.306   2.401  21.643  0.00  0.00    +0.000 OA
BRANCH  27  29
ATOM     29  O   UNL     1       5.338   1.483  21.246  0.00  0.00    +0.000 OA
ATOM     30  H   UNL     1       5.905   1.371  20.438  0.00  0.00    +0.000 HD
ENDBRANCH  27  29
ENDBRANCH  26  27
ENDBRANCH  25  26
ENDBRANCH  24  25
ENDBRANCH  23  24
ENDBRANCH  22  23
ENDBRANCH  21  22
ENDBRANCH   2  21
TORSDOF 10
ENDMDL
