MODEL 1
REMARK VINA RESULT:      -7.8      0.000      0.000
REMARK  Name = 
REMARK  4 active torsions:
REMARK  status: ('A' for Active; 'I' for Inactive)
REMARK    1  A    between atoms: C_1  and  O_2
REMARK    2  A    between atoms: O_2  and  C_3
REMARK    3  A    between atoms: C_8  and  C_9
REMARK    4  A    between atoms: C_17  and  C_18
REMARK                            x       y       z     vdW  Elec       q    Type
REMARK                         _______ _______ _______ _____ _____    ______ ____
ROOT
ATOM      1  C   UNL     1       3.448   4.276  18.157  0.00  0.00    +0.000 A 
ATOM      2  S   UNL     1       3.713   3.053  16.978  0.00  0.00    +0.000 S 
ATOM      3  C   UNL     1       4.883   3.971  16.163  0.00  0.00    +0.000 A 
ATOM      4  C   UNL     1       5.662   3.494  15.089  0.00  0.00    +0.000 A 
ATOM      5  C   UNL     1       6.685   4.289  14.593  0.00  0.00    +0.000 A 
ATOM      6  C   UNL     1       6.895   5.549  15.132  0.00  0.00    +0.000 A 
ATOM      7  C   UNL     1       6.050   6.048  16.142  0.00  0.00    +0.000 A 
ATOM      8  C   UNL     1       4.999   5.260  16.697  0.00  0.00    +0.000 A 
ATOM      9  C   UNL     1       3.943   5.509  17.713  0.00  0.00    +0.000 A 
ENDROOT
BRANCH   9  10
ATOM     10  C   UNL     1       3.389   6.810  18.187  0.00  0.00    +0.000 A 
ATOM     11  C   UNL     1       2.812   6.985  19.431  0.00  0.00    +0.000 A 
ATOM     12  N   UNL     1       2.054   8.045  19.828  0.00  0.00    +0.000 NA
ATOM     13  C   UNL     1       1.823   9.019  18.941  0.00  0.00    +0.000 A 
ATOM     14  N   UNL     1       0.991  10.063  19.278  0.00  0.00    +0.000 N 
ATOM     15  C   UNL     1       0.217  10.045  20.527  0.00  0.00    +0.000 C 
ATOM     16  C   UNL     1      -1.287   9.846  20.255  0.00  0.00    +0.000 C 
ATOM     17  O   UNL     1      -1.787  10.762  19.265  0.00  0.00    +0.000 OA
ATOM     18  C   UNL     1      -1.064  10.603  18.032  0.00  0.00    +0.000 C 
ATOM     19  C   UNL     1       0.430  10.913  18.226  0.00  0.00    +0.000 C 
ATOM     20  N   UNL     1       2.404   8.995  17.730  0.00  0.00    +0.000 NA
ATOM     21  C   UNL     1       3.165   7.914  17.390  0.00  0.00    +0.000 A 
ENDBRANCH   9  10
BRANCH   1  27
ATOM     22  C   UNL     1       3.352   3.052  20.374  0.00  0.00    +0.000 A 
ATOM     23  C   UNL     1       2.573   2.505  21.406  0.00  0.00    +0.000 A 
ATOM     24  C   UNL     1       1.193   2.706  21.452  0.00  0.00    +0.000 A 
ATOM     25  C   UNL     1       0.570   3.471  20.476  0.00  0.00    +0.000 A 
ATOM     26  C   UNL     1       1.329   4.029  19.450  0.00  0.00    +0.000 A 
ATOM     27  C   UNL     1       2.722   3.817  19.366  0.00  0.00    +0.000 A 
BRANCH  22  29
ATOM     28  C   UNL     1       5.180   1.547  20.646  0.00  0.00    +0.000 C 
ATOM     29  O   UNL     1       4.703   2.833  20.256  0.00  0.00    +0.000 OA
ENDBRANCH  22  29
ENDBRANCH   1  27
TORSDOF 3
ENDMDL
MODEL 2
REMARK VINA RESULT:      -7.6      5.324      8.617
REMARK  Name = 
REMARK  4 active torsions:
REMARK  status: ('A' for Active; 'I' for Inactive)
REMARK    1  A    between atoms: C_1  and  O_2
REMARK    2  A    between atoms: O_2  and  C_3
REMARK    3  A    between atoms: C_8  and  C_9
REMARK    4  A    between atoms: C_17  and  C_18
REMARK                            x       y       z     vdW  Elec       q    Type
REMARK                         _______ _______ _______ _____ _____    ______ ____
ROOT
ATOM      1  C   UNL     1       0.855  11.740  19.275  0.00  0.00    +0.000 A 
ATOM      2  S   UNL     1       2.247  12.292  18.429  0.00  0.00    +0.000 S 
ATOM      3  C   UNL     1       1.751  13.912  18.496  0.00  0.00    +0.000 A 
ATOM      4  C   UNL     1       2.536  15.003  18.068  0.00  0.00    +0.000 A 
ATOM      5  C   UNL     1       2.081  16.293  18.299  0.00  0.00    +0.000 A 
ATOM      6  C   UNL     1       0.850  16.485  18.908  0.00  0.00    +0.000 A 
ATOM      7  C   UNL     1       0.037  15.387  19.248  0.00  0.00    +0.000 A 
ATOM      8  C   UNL     1       0.470  14.043  19.046  0.00  0.00    +0.000 A 
ATOM      9  C   UNL     1      -0.155  12.711  19.255  0.00  0.00    +0.000 A 
ENDROOT
BRANCH   9  10
ATOM     10  C   UNL     1      -1.601  12.362  19.363  0.00  0.00    +0.000 A 
ATOM     11  C   UNL     1      -2.307  11.723  18.362  0.00  0.00    +0.000 A 
ATOM     12  N   UNL     1      -3.663  11.615  18.273  0.00  0.00    +0.000 NA
ATOM     13  C   UNL     1      -4.402  12.184  19.230  0.00  0.00    +0.000 A 
ATOM     14  N   UNL     1      -5.775  12.169  19.128  0.00  0.00    +0.000 N 
ATOM     15  C   UNL     1      -6.441  11.694  17.908  0.00  0.00    +0.000 C 
ATOM     16  C   UNL     1      -7.089  12.855  17.129  0.00  0.00    +0.000 C 
ATOM     17  O   UNL     1      -7.916  13.680  17.968  0.00  0.00    +0.000 OA
ATOM     18  C   UNL     1      -7.141  14.218  19.054  0.00  0.00    +0.000 C 
ATOM     19  C   UNL     1      -6.573  13.094  19.936  0.00  0.00    +0.000 C 
ATOM     20  N   UNL     1      -3.821  12.758  20.296  0.00  0.00    +0.000 NA
ATOM     21  C   UNL     1      -2.458  12.826  20.340  0.00  0.00    +0.000 A 
ENDBRANCH   9  10
BRANCH   1  27
ATOM     22  C   UNL     1       0.730  10.058  21.166  0.00  0.00    +0.000 A 
ATOM     23  C   UNL     1       1.015   8.769  21.642  0.00  0.00    +0.000 A 
ATOM     24  C   UNL     1       1.525   7.785  20.794  0.00  0.00    +0.000 A 
ATOM     25  C   UNL     1       1.742   8.067  19.453  0.00  0.00    +0.000 A 
ATOM     26  C   UNL     1       1.455   9.339  18.962  0.00  0.00    +0.000 A 
ATOM     27  C   UNL     1       0.966  10.360  19.805  0.00  0.00    +0.000 A 
BRANCH  22  29
ATOM     28  C   UNL     1      -0.789  10.762  22.862  0.00  0.00    +0.000 C 
ATOM     29  O   UNL     1       0.282  11.076  21.974  0.00  0.00    +0.000 OA
ENDBRANCH  22  29
ENDBRANCH   1  27
TORSDOF 3
ENDMDL
MODEL 3
REMARK VINA RESULT:      -7.6      1.503      2.212
REMARK  Name = 
REMARK  4 active torsions:
REMARK  status: ('A' for Active; 'I' for Inactive)
REMARK    1  A    between atoms: C_1  and  O_2
REMARK    2  A    between atoms: O_2  and  C_3
REMARK    3  A    between atoms: C_8  and  C_9
REMARK    4  A    between atoms: C_17  and  C_18
REMARK                            x       y       z     vdW  Elec       q    Type
REMARK                         _______ _______ _______ _____ _____    ______ ____
ROOT
ATOM      1  C   UNL     1       3.508   4.860  18.009  0.00  0.00    +0.000 A 
ATOM      2  S   UNL     1       4.587   4.096  16.910  0.00  0.00    +0.000 S 
ATOM      3  C   UNL     1       5.653   5.414  16.905  0.00  0.00    +0.000 A 
ATOM      4  C   UNL     1       6.908   5.419  16.262  0.00  0.00    +0.000 A 
ATOM      5  C   UNL     1       7.753   6.505  16.442  0.00  0.00    +0.000 A 
ATOM      6  C   UNL     1       7.334   7.577  17.215  0.00  0.00    +0.000 A 
ATOM      7  C   UNL     1       6.043   7.597  17.776  0.00  0.00    +0.000 A 
ATOM      8  C   UNL     1       5.147   6.497  17.633  0.00  0.00    +0.000 A 
ATOM      9  C   UNL     1       3.746   6.240  18.058  0.00  0.00    +0.000 A 
ENDROOT
BRANCH   9  10
ATOM     10  C   UNL     1       2.683   7.222  18.421  0.00  0.00    +0.000 A 
ATOM     11  C   UNL     1       2.178   8.159  17.539  0.00  0.00    +0.000 A 
ATOM     12  N   UNL     1       1.419   9.244  17.861  0.00  0.00    +0.000 NA
ATOM     13  C   UNL     1       1.132   9.449  19.151  0.00  0.00    +0.000 A 
ATOM     14  N   UNL     1       0.442  10.581  19.522  0.00  0.00    +0.000 N 
ATOM     15  C   UNL     1       0.163  11.652  18.557  0.00  0.00    +0.000 C 
ATOM     16  C   UNL     1       1.004  12.910  18.849  0.00  0.00    +0.000 C 
ATOM     17  O   UNL     1       0.911  13.319  20.226  0.00  0.00    +0.000 OA
ATOM     18  C   UNL     1       1.343  12.254  21.090  0.00  0.00    +0.000 C 
ATOM     19  C   UNL     1       0.453  11.011  20.923  0.00  0.00    +0.000 C 
ATOM     20  N   UNL     1       1.499   8.557  20.085  0.00  0.00    +0.000 NA
ATOM     21  C   UNL     1       2.246   7.479  19.704  0.00  0.00    +0.000 A 
ENDBRANCH   9  10
BRANCH   1  27
ATOM     22  C   UNL     1       2.885   3.058  19.678  0.00  0.00    +0.000 A 
ATOM     23  C   UNL     1       1.954   2.103  20.117  0.00  0.00    +0.000 A 
ATOM     24  C   UNL     1       0.683   2.021  19.547  0.00  0.00    +0.000 A 
ATOM     25  C   UNL     1       0.315   2.902  18.539  0.00  0.00    +0.000 A 
ATOM     26  C   UNL     1       1.223   3.862  18.099  0.00  0.00    +0.000 A 
ATOM     27  C   UNL     1       2.525   3.948  18.640  0.00  0.00    +0.000 A 
BRANCH  22  29
ATOM     28  C   UNL     1       4.802   1.908  20.503  0.00  0.00    +0.000 C 
ATOM     29  O   UNL     1       4.166   3.140  20.169  0.00  0.00    +0.000 OA
ENDBRANCH  22  29
ENDBRANCH   1  27
TORSDOF 3
ENDMDL
MODEL 4
REMARK VINA RESULT:      -7.5      3.173      8.821
REMARK  Name = 
REMARK  4 active torsions:
REMARK  status: ('A' for Active; 'I' for Inactive)
REMARK    1  A    between atoms: C_1  and  O_2
REMARK    2  A    between atoms: O_2  and  C_3
REMARK    3  A    between atoms: C_8  and  C_9
REMARK    4  A    between atoms: C_17  and  C_18
REMARK                            x       y       z     vdW  Elec       q    Type
REMARK                         _______ _______ _______ _____ _____    ______ ____
ROOT
ATOM      1  C   UNL     1       0.418  11.960  18.798  0.00  0.00    +0.000 A 
ATOM      2  S   UNL     1      -0.682  12.900  17.869  0.00  0.00    +0.000 S 
ATOM      3  C   UNL     1      -1.813  11.640  17.775  0.00  0.00    +0.000 A 
ATOM      4  C   UNL     1      -3.102  11.768  17.217  0.00  0.00    +0.000 A 
ATOM      5  C   UNL     1      -3.990  10.707  17.321  0.00  0.00    +0.000 A 
ATOM      6  C   UNL     1      -3.583   9.531  17.932  0.00  0.00    +0.000 A 
ATOM      7  C   UNL     1      -2.263   9.386  18.403  0.00  0.00    +0.000 A 
ATOM      8  C   UNL     1      -1.322  10.455  18.335  0.00  0.00    +0.000 A 
ATOM      9  C   UNL     1       0.113  10.596  18.698  0.00  0.00    +0.000 A 
ENDROOT
BRANCH   9  10
ATOM     10  C   UNL     1       1.143   9.532  18.873  0.00  0.00    +0.000 A 
ATOM     11  C   UNL     1       1.904   9.030  17.833  0.00  0.00    +0.000 A 
ATOM     12  N   UNL     1       2.656   7.893  17.859  0.00  0.00    +0.000 NA
ATOM     13  C   UNL     1       2.665   7.172  18.984  0.00  0.00    +0.000 A 
ATOM     14  N   UNL     1       3.343   5.974  19.019  0.00  0.00    +0.000 N 
ATOM     15  C   UNL     1       3.914   5.389  17.798  0.00  0.00    +0.000 C 
ATOM     16  C   UNL     1       3.131   4.138  17.353  0.00  0.00    +0.000 C 
ATOM     17  O   UNL     1       2.949   3.199  18.427  0.00  0.00    +0.000 OA
ATOM     18  C   UNL     1       2.252   3.823  19.519  0.00  0.00    +0.000 C 
ATOM     19  C   UNL     1       3.056   5.007  20.081  0.00  0.00    +0.000 C 
ATOM     20  N   UNL     1       2.031   7.609  20.084  0.00  0.00    +0.000 NA
ATOM     21  C   UNL     1       1.304   8.762  20.006  0.00  0.00    +0.000 A 
ENDBRANCH   9  10
BRANCH   1  27
ATOM     22  C   UNL     1       1.425  13.062  20.846  0.00  0.00    +0.000 A 
ATOM     23  C   UNL     1       2.371  13.948  21.385  0.00  0.00    +0.000 A 
ATOM     24  C   UNL     1       3.364  14.515  20.586  0.00  0.00    +0.000 A 
ATOM     25  C   UNL     1       3.438  14.195  19.237  0.00  0.00    +0.000 A 
ATOM     26  C   UNL     1       2.513  13.310  18.688  0.00  0.00    +0.000 A 
ATOM     27  C   UNL     1       1.482  12.745  19.469  0.00  0.00    +0.000 A 
BRANCH  22  29
ATOM     28  C   UNL     1      -0.442  13.443  22.278  0.00  0.00    +0.000 C 
ATOM     29  O   UNL     1       0.396  12.523  21.581  0.00  0.00    +0.000 OA
ENDBRANCH  22  29
ENDBRANCH   1  27
TORSDOF 3
ENDMDL
MODEL 5
REMARK VINA RESULT:      -7.5      6.660      9.163
REMARK  Name = 
REMARK  4 active torsions:
REMARK  status: ('A' for Active; 'I' for Inactive)
REMARK    1  A    between atoms: C_1  and  O_2
REMARK    2  A    between atoms: O_2  and  C_3
REMARK    3  A    between atoms: C_8  and  C_9
REMARK    4  A    between atoms: C_17  and  C_18
REMARK                            x       y       z     vdW  Elec       q    Type
REMARK                         _______ _______ _______ _____ _____    ______ ____
ROOT
ATOM      1  C   UNL     1      -0.057  12.118  20.104  0.00  0.00    +0.000 A 
ATOM      2  S   UNL     1       1.569  12.364  19.602  0.00  0.00    +0.000 S 
ATOM      3  C   UNL     1       1.270  13.963  19.124  0.00  0.00    +0.000 A 
ATOM      4  C   UNL     1       2.266  14.865  18.697  0.00  0.00    +0.000 A 
ATOM      5  C   UNL     1       1.922  16.189  18.463  0.00  0.00    +0.000 A 
ATOM      6  C   UNL     1       0.604  16.590  18.613  0.00  0.00    +0.000 A 
ATOM      7  C   UNL     1      -0.396  15.657  18.952  0.00  0.00    +0.000 A 
ATOM      8  C   UNL     1      -0.087  14.291  19.220  0.00  0.00    +0.000 A 
ATOM      9  C   UNL     1      -0.900  13.091  19.551  0.00  0.00    +0.000 A 
ENDROOT
BRANCH   9  10
ATOM     10  C   UNL     1      -2.351  12.847  19.307  0.00  0.00    +0.000 A 
ATOM     11  C   UNL     1      -3.356  13.371  20.098  0.00  0.00    +0.000 A 
ATOM     12  N   UNL     1      -4.662  12.983  20.105  0.00  0.00    +0.000 NA
ATOM     13  C   UNL     1      -5.028  11.994  19.284  0.00  0.00    +0.000 A 
ATOM     14  N   UNL     1      -6.319  11.517  19.326  0.00  0.00    +0.000 N 
ATOM     15  C   UNL     1      -7.257  11.954  20.370  0.00  0.00    +0.000 C 
ATOM     16  C   UNL     1      -7.544  10.825  21.379  0.00  0.00    +0.000 C 
ATOM     17  O   UNL     1      -7.917   9.596  20.729  0.00  0.00    +0.000 OA
ATOM     18  C   UNL     1      -6.873   9.172  19.836  0.00  0.00    +0.000 C 
ATOM     19  C   UNL     1      -6.633  10.215  18.732  0.00  0.00    +0.000 C 
ATOM     20  N   UNL     1      -4.154  11.469  18.411  0.00  0.00    +0.000 NA
ATOM     21  C   UNL     1      -2.860  11.905  18.437  0.00  0.00    +0.000 A 
ENDBRANCH   9  10
BRANCH   1  27
ATOM     22  C   UNL     1      -0.761  11.028  22.281  0.00  0.00    +0.000 A 
ATOM     23  C   UNL     1      -0.772   9.887  23.099  0.00  0.00    +0.000 A 
ATOM     24  C   UNL     1      -0.301   8.660  22.631  0.00  0.00    +0.000 A 
ATOM     25  C   UNL     1       0.174   8.548  21.332  0.00  0.00    +0.000 A 
ATOM     26  C   UNL     1       0.183   9.667  20.504  0.00  0.00    +0.000 A 
ATOM     27  C   UNL     1      -0.261  10.926  20.962  0.00  0.00    +0.000 A 
BRANCH  22  29
ATOM     28  C   UNL     1      -2.377  12.324  23.459  0.00  0.00    +0.000 C 
ATOM     29  O   UNL     1      -1.161  12.269  22.716  0.00  0.00    +0.000 OA
ENDBRANCH  22  29
ENDBRANCH   1  27
TORSDOF 3
ENDMDL
MODEL 6
REMARK VINA RESULT:      -7.4      1.662      2.581
REMARK  Name = 
REMARK  4 active torsions:
REMARK  status: ('A' for Active; 'I' for Inactive)
REMARK    1  A    between atoms: C_1  and  O_2
REMARK    2  A    between atoms: O_2  and  C_3
REMARK    3  A    between atoms: C_8  and  C_9
REMARK    4  A    between atoms: C_17  and  C_18
REMARK                            x       y       z     vdW  Elec       q    Type
REMARK                         _______ _______ _______ _____ _____    ______ ____
ROOT
ATOM      1  C   UNL     1       3.724   4.672  18.685  0.00  0.00    +0.000 A 
ATOM      2  S   UNL     1       4.764   3.735  17.687  0.00  0.00    +0.000 S 
ATOM      3  C   UNL     1       5.748   5.064  17.315  0.00  0.00    +0.000 A 
ATOM      4  C   UNL     1       6.952   4.983  16.584  0.00  0.00    +0.000 A 
ATOM      5  C   UNL     1       7.743   6.116  16.461  0.00  0.00    +0.000 A 
ATOM      6  C   UNL     1       7.319   7.311  17.021  0.00  0.00    +0.000 A 
ATOM      7  C   UNL     1       6.072   7.398  17.670  0.00  0.00    +0.000 A 
ATOM      8  C   UNL     1       5.233   6.256  17.838  0.00  0.00    +0.000 A 
ATOM      9  C   UNL     1       3.884   6.040  18.422  0.00  0.00    +0.000 A 
ENDROOT
BRANCH   9  10
ATOM     10  C   UNL     1       2.795   7.031  18.656  0.00  0.00    +0.000 A 
ATOM     11  C   UNL     1       2.372   7.938  17.702  0.00  0.00    +0.000 A 
ATOM     12  N   UNL     1       1.590   9.032  17.919  0.00  0.00    +0.000 NA
ATOM     13  C   UNL     1       1.189   9.279  19.171  0.00  0.00    +0.000 A 
ATOM     14  N   UNL     1       0.470  10.422  19.441  0.00  0.00    +0.000 N 
ATOM     15  C   UNL     1       0.280  11.460  18.420  0.00  0.00    +0.000 C 
ATOM     16  C   UNL     1       1.094  12.728  18.745  0.00  0.00    +0.000 C 
ATOM     17  O   UNL     1       0.879  13.182  20.093  0.00  0.00    +0.000 OA
ATOM     18  C   UNL     1       1.231  12.147  21.027  0.00  0.00    +0.000 C 
ATOM     19  C   UNL     1       0.357  10.898  20.822  0.00  0.00    +0.000 C 
ATOM     20  N   UNL     1       1.469   8.419  20.163  0.00  0.00    +0.000 NA
ATOM     21  C   UNL     1       2.245   7.330  19.886  0.00  0.00    +0.000 A 
ENDBRANCH   9  10
BRANCH   1  27
ATOM     22  C   UNL     1       1.711   3.187  19.085  0.00  0.00    +0.000 A 
ATOM     23  C   UNL     1       0.823   2.594  19.997  0.00  0.00    +0.000 A 
ATOM     24  C   UNL     1       1.043   2.674  21.373  0.00  0.00    +0.000 A 
ATOM     25  C   UNL     1       2.163   3.334  21.860  0.00  0.00    +0.000 A 
ATOM     26  C   UNL     1       3.059   3.919  20.969  0.00  0.00    +0.000 A 
ATOM     27  C   UNL     1       2.844   3.877  19.574  0.00  0.00    +0.000 A 
BRANCH  22  29
ATOM     28  C   UNL     1       0.870   4.334  17.173  0.00  0.00    +0.000 C 
ATOM     29  O   UNL     1       1.506   3.183  17.726  0.00  0.00    +0.000 OA
ENDBRANCH  22  29
ENDBRANCH   1  27
TORSDOF 3
ENDMDL
MODEL 7
REMARK VINA RESULT:      -7.3      8.783     10.604
REMARK  Name = 
REMARK  4 active torsions:
REMARK  status: ('A' for Active; 'I' for Inactive)
REMARK    1  A    between atoms: C_1  and  O_2
REMARK    2  A    between atoms: O_2  and  C_3
REMARK    3  A    between atoms: C_8  and  C_9
REMARK    4  A    between atoms: C_17  and  C_18
REMARK                            x       y       z     vdW  Elec       q    Type
REMARK                         _______ _______ _______ _____ _____    ______ ____
ROOT
ATOM      1  C   UNL     1       9.358  13.959  18.370  0.00  0.00    +0.000 A 
ATOM      2  S   UNL     1      10.716  14.293  17.369  0.00  0.00    +0.000 S 
ATOM      3  C   UNL     1      10.572  15.968  17.585  0.00  0.00    +0.000 A 
ATOM      4  C   UNL     1      11.502  16.915  17.108  0.00  0.00    +0.000 A 
ATOM      5  C   UNL     1      11.351  18.247  17.464  0.00  0.00    +0.000 A 
ATOM      6  C   UNL     1      10.271  18.628  18.246  0.00  0.00    +0.000 A 
ATOM      7  C   UNL     1       9.301  17.686  18.639  0.00  0.00    +0.000 A 
ATOM      8  C   UNL     1       9.424  16.303  18.312  0.00  0.00    +0.000 A 
ATOM      9  C   UNL     1       8.572  15.106  18.540  0.00  0.00    +0.000 A 
ENDROOT
BRANCH   9  10
ATOM     10  C   UNL     1       7.111  15.038  18.828  0.00  0.00    +0.000 A 
ATOM     11  C   UNL     1       6.143  14.955  17.845  0.00  0.00    +0.000 A 
ATOM     12  N   UNL     1       4.805  15.160  18.010  0.00  0.00    +0.000 NA
ATOM     13  C   UNL     1       4.365  15.483  19.230  0.00  0.00    +0.000 A 
ATOM     14  N   UNL     1       3.034  15.781  19.416  0.00  0.00    +0.000 N 
ATOM     15  C   UNL     1       2.119  15.918  18.274  0.00  0.00    +0.000 C 
ATOM     16  C   UNL     1       1.702  17.385  18.058  0.00  0.00    +0.000 C 
ATOM     17  O   UNL     1       1.229  18.001  19.269  0.00  0.00    +0.000 OA
ATOM     18  C   UNL     1       2.247  17.948  20.283  0.00  0.00    +0.000 C 
ATOM     19  C   UNL     1       2.611  16.493  20.624  0.00  0.00    +0.000 C 
ATOM     20  N   UNL     1       5.204  15.508  20.278  0.00  0.00    +0.000 NA
ATOM     21  C   UNL     1       6.533  15.282  20.058  0.00  0.00    +0.000 A 
ENDBRANCH   9  10
BRANCH   1  27
ATOM     22  C   UNL     1       9.650  12.132  20.103  0.00  0.00    +0.000 A 
ATOM     23  C   UNL     1       9.685  10.761  20.402  0.00  0.00    +0.000 A 
ATOM     24  C   UNL     1       9.333   9.806  19.448  0.00  0.00    +0.000 A 
ATOM     25  C   UNL     1       8.925  10.206  18.183  0.00  0.00    +0.000 A 
ATOM     26  C   UNL     1       8.875  11.563  17.872  0.00  0.00    +0.000 A 
ATOM     27  C   UNL     1       9.253  12.547  18.811  0.00  0.00    +0.000 A 
BRANCH  22  29
ATOM     28  C   UNL     1       9.188  13.329  22.111  0.00  0.00    +0.000 C 
ATOM     29  O   UNL     1      10.041  13.106  20.991  0.00  0.00    +0.000 OA
ENDBRANCH  22  29
ENDBRANCH   1  27
TORSDOF 3
ENDMDL
MODEL 8
REMARK VINA RESULT:      -7.1      8.250     11.022
REMARK  Name = 
REMARK  4 active torsions:
REMARK  status: ('A' for Active; 'I' for Inactive)
REMARK    1  A    between atoms: C_1  and  O_2
REMARK    2  A    between atoms: O_2  and  C_3
REMARK    3  A    between atoms: C_8  and  C_9
REMARK    4  A    between atoms: C_17  and  C_18
REMARK                            x       y       z     vdW  Elec       q    Type
REMARK                         _______ _______ _______ _____ _____    ______ ____
ROOT
ATOM      1  C   UNL     1      -5.020  12.390  19.318  0.00  0.00    +0.000 A 
ATOM      2  S   UNL     1      -5.542  12.236  17.687  0.00  0.00    +0.000 S 
ATOM      3  C   UNL     1      -4.149  11.383  17.232  0.00  0.00    +0.000 A 
ATOM      4  C   UNL     1      -3.954  10.796  15.964  0.00  0.00    +0.000 A 
ATOM      5  C   UNL     1      -2.835  10.005  15.753  0.00  0.00    +0.000 A 
ATOM      6  C   UNL     1      -1.912   9.838  16.773  0.00  0.00    +0.000 A 
ATOM      7  C   UNL     1      -2.074  10.504  18.004  0.00  0.00    +0.000 A 
ATOM      8  C   UNL     1      -3.217  11.312  18.274  0.00  0.00    +0.000 A 
ATOM      9  C   UNL     1      -3.643  12.152  19.424  0.00  0.00    +0.000 A 
ENDROOT
BRANCH   9  10
ATOM     10  C   UNL     1      -2.811  12.746  20.509  0.00  0.00    +0.000 A 
ATOM     11  C   UNL     1      -3.105  12.616  21.853  0.00  0.00    +0.000 A 
ATOM     12  N   UNL     1      -2.562  13.340  22.872  0.00  0.00    +0.000 NA
ATOM     13  C   UNL     1      -1.662  14.279  22.565  0.00  0.00    +0.000 A 
ATOM     14  N   UNL     1      -1.156  15.087  23.559  0.00  0.00    +0.000 N 
ATOM     15  C   UNL     1      -1.709  15.055  24.919  0.00  0.00    +0.000 C 
ATOM     16  C   UNL     1      -2.502  16.337  25.238  0.00  0.00    +0.000 C 
ATOM     17  O   UNL     1      -1.755  17.529  24.934  0.00  0.00    +0.000 OA
ATOM     18  C   UNL     1      -1.384  17.540  23.545  0.00  0.00    +0.000 C 
ATOM     19  C   UNL     1      -0.485  16.340  23.204  0.00  0.00    +0.000 C 
ATOM     20  N   UNL     1      -1.237  14.435  21.301  0.00  0.00    +0.000 NA
ATOM     21  C   UNL     1      -1.806  13.673  20.321  0.00  0.00    +0.000 A 
ENDBRANCH   9  10
BRANCH   1  27
ATOM     22  C   UNL     1      -6.296  14.131  20.646  0.00  0.00    +0.000 A 
ATOM     23  C   UNL     1      -7.206  14.422  21.675  0.00  0.00    +0.000 A 
ATOM     24  C   UNL     1      -7.904  13.406  22.328  0.00  0.00    +0.000 A 
ATOM     25  C   UNL     1      -7.717  12.083  21.953  0.00  0.00    +0.000 A 
ATOM     26  C   UNL     1      -6.827  11.778  20.926  0.00  0.00    +0.000 A 
ATOM     27  C   UNL     1      -6.087  12.785  20.270  0.00  0.00    +0.000 A 
BRANCH  22  29
ATOM     28  C   UNL     1      -4.730  15.916  20.844  0.00  0.00    +0.000 C 
ATOM     29  O   UNL     1      -5.545  15.092  20.013  0.00  0.00    +0.000 OA
ENDBRANCH  22  29
ENDBRANCH   1  27
TORSDOF 3
ENDMDL
MODEL 9
REMARK VINA RESULT:      -7.1      1.913      4.488
REMARK  Name = 
REMARK  4 active torsions:
REMARK  status: ('A' for Active; 'I' for Inactive)
REMARK    1  A    between atoms: C_1  and  O_2
REMARK    2  A    between atoms: O_2  and  C_3
REMARK    3  A    between atoms: C_8  and  C_9
REMARK    4  A    between atoms: C_17  and  C_18
REMARK                            x       y       z     vdW  Elec       q    Type
REMARK                         _______ _______ _______ _____ _____    ______ ____
ROOT
ATOM      1  C   UNL     1       4.493   5.105  18.907  0.00  0.00    +0.000 A 
ATOM      2  S   UNL     1       4.697   3.467  19.390  0.00  0.00    +0.000 S 
ATOM      3  C   UNL     1       3.058   3.103  19.155  0.00  0.00    +0.000 A 
ATOM      4  C   UNL     1       2.508   1.809  19.255  0.00  0.00    +0.000 A 
ATOM      5  C   UNL     1       1.180   1.611  18.905  0.00  0.00    +0.000 A 
ATOM      6  C   UNL     1       0.410   2.692  18.504  0.00  0.00    +0.000 A 
ATOM      7  C   UNL     1       0.948   3.994  18.496  0.00  0.00    +0.000 A 
ATOM      8  C   UNL     1       2.312   4.243  18.830  0.00  0.00    +0.000 A 
ATOM      9  C   UNL     1       3.141   5.471  18.951  0.00  0.00    +0.000 A 
ENDROOT
BRANCH   9  10
ATOM     10  C   UNL     1       2.701   6.880  19.162  0.00  0.00    +0.000 A 
ATOM     11  C   UNL     1       2.086   7.321  20.319  0.00  0.00    +0.000 A 
ATOM     12  N   UNL     1       1.423   8.501  20.480  0.00  0.00    +0.000 NA
ATOM     13  C   UNL     1       1.336   9.322  19.429  0.00  0.00    +0.000 A 
ATOM     14  N   UNL     1       0.601  10.482  19.531  0.00  0.00    +0.000 N 
ATOM     15  C   UNL     1      -0.230  10.754  20.711  0.00  0.00    +0.000 C 
ATOM     16  C   UNL     1      -1.732  10.651  20.380  0.00  0.00    +0.000 C 
ATOM     17  O   UNL     1      -2.087  11.423  19.219  0.00  0.00    +0.000 OA
ATOM     18  C   UNL     1      -1.326  10.985  18.081  0.00  0.00    +0.000 C 
ATOM     19  C   UNL     1       0.181  11.184  18.315  0.00  0.00    +0.000 C 
ATOM     20  N   UNL     1       1.969   9.034  18.280  0.00  0.00    +0.000 NA
ATOM     21  C   UNL     1       2.631   7.844  18.177  0.00  0.00    +0.000 A 
ENDBRANCH   9  10
BRANCH   1  27
ATOM     22  C   UNL     1       5.995   6.395  17.326  0.00  0.00    +0.000 A 
ATOM     23  C   UNL     1       7.271   6.903  17.034  0.00  0.00    +0.000 A 
ATOM     24  C   UNL     1       8.302   6.844  17.974  0.00  0.00    +0.000 A 
ATOM     25  C   UNL     1       8.070   6.293  19.226  0.00  0.00    +0.000 A 
ATOM     26  C   UNL     1       6.807   5.794  19.535  0.00  0.00    +0.000 A 
ATOM     27  C   UNL     1       5.756   5.815  18.593  0.00  0.00    +0.000 A 
BRANCH  22  29
ATOM     28  C   UNL     1       5.197   5.660  15.204  0.00  0.00    +0.000 C 
ATOM     29  O   UNL     1       4.967   6.378  16.414  0.00  0.00    +0.000 OA
ENDBRANCH  22  29
ENDBRANCH   1  27
TORSDOF 3
ENDMDL
