MODEL 1
REMARK VINA RESULT:      -8.1      0.000      0.000
REMARK  Name = 
REMARK  6 active torsions:
REMARK  status: ('A' for Active; 'I' for Inactive)
REMARK    1  A    between atoms: C_2  and  C_3
REMARK    2  A    between atoms: C_3  and  N_4
REMARK    3  A    between atoms: C_6  and  C_7
REMARK    4  A    between atoms: C_7  and  C_8
REMARK    5  A    between atoms: C_22  and  O_23
REMARK    6  A    between atoms: O_23  and  C_24
REMARK                            x       y       z     vdW  Elec       q    Type
REMARK                         _______ _______ _______ _____ _____    ______ ____
ROOT
ATOM      1  N   UNK A   1      -0.084  10.181  18.649  0.00  0.00    +0.000 N 
ATOM      2  C   UNK A   1       0.872   9.454  17.979  0.00  0.00    +0.000 A 
ATOM      3  C   UNK A   1       1.656   8.795  18.905  0.00  0.00    +0.000 A 
ATOM      4  C   UNK A   1       1.141   9.136  20.196  0.00  0.00    +0.000 A 
ATOM      5  C   UNK A   1       1.495   8.777  21.512  0.00  0.00    +0.000 A 
ATOM      6  C   UNK A   1       0.764   9.275  22.599  0.00  0.00    +0.000 A 
ATOM      7  C   UNK A   1      -0.312  10.134  22.397  0.00  0.00    +0.000 A 
ATOM      8  C   UNK A   1      -0.675  10.511  21.099  0.00  0.00    +0.000 A 
ATOM      9  C   UNK A   1       0.057   9.999  20.010  0.00  0.00    +0.000 A 
ENDROOT
BRANCH   7  10
ATOM     10  O   UNK A   1      -1.100  10.671  23.384  0.00  0.00    +0.000 OA
ATOM     11  C   UNK A   1      -1.797  11.870  23.066  0.00  0.00    +0.000 C 
ENDBRANCH   7  10
BRANCH   1  12
ATOM     12  C   UNK A   1      -1.119  10.969  17.987  0.00  0.00    +0.000 C 
BRANCH  12  14
ATOM     13  C   UNK A   1      -3.220   9.635  17.609  0.00  0.00    +0.000 C 
ATOM     14  C   UNK A   1      -2.045  10.111  17.175  0.00  0.00    +0.000 C 
ENDBRANCH  12  14
ENDBRANCH   1  12
BRANCH   3  15
ATOM     15  C   UNK A   1       2.811   7.878  18.612  0.00  0.00    +0.000 C 
BRANCH  15  16
ATOM     16  C   UNK A   1       2.444   6.397  18.754  0.00  0.00    +0.000 C 
ATOM     17  N   UNK A   1       2.544   5.908  20.140  0.00  0.00    +0.000 N 
ATOM     18  C   PRO A   2       2.338   4.570  20.427  0.00  0.00    +0.000 C 
ATOM     19  O   PRO A   2       2.094   4.186  21.564  0.00  0.00    +0.000 OA
ATOM     20  CA  PRO A   2       2.278   3.685  19.175  0.00  0.00    +0.000 C 
ATOM     21  CB  PRO A   2       2.641   2.220  19.376  0.00  0.00    +0.000 C 
ATOM     22  CG  PRO A   2       3.250   1.837  18.025  0.00  0.00    +0.000 C 
ATOM     23  CD  PRO A   2       4.022   3.086  17.618  0.00  0.00    +0.000 C 
ATOM     24  N   PRO A   2       3.261   4.165  18.208  0.00  0.00    +0.000 N 
ATOM     25  C   UNK A   1       3.360   5.503  17.876  0.00  0.00    +0.000 C 
ATOM     26  O   UNK A   1       4.026   5.914  16.930  0.00  0.00    +0.000 OA
ATOM     27  H   UNK A   1       2.376   6.544  20.912  0.00  0.00    +0.000 HD
ENDBRANCH  15  16
ENDBRANCH   3  15
TORSDOF 5
ENDMDL
MODEL 2
REMARK VINA RESULT:      -7.6      2.514      7.915
REMARK  Name = 
REMARK  6 active torsions:
REMARK  status: ('A' for Active; 'I' for Inactive)
REMARK    1  A    between atoms: C_2  and  C_3
REMARK    2  A    between atoms: C_3  and  N_4
REMARK    3  A    between atoms: C_6  and  C_7
REMARK    4  A    between atoms: C_7  and  C_8
REMARK    5  A    between atoms: C_22  and  O_23
REMARK    6  A    between atoms: O_23  and  C_24
REMARK                            x       y       z     vdW  Elec       q    Type
REMARK                         _______ _______ _______ _____ _____    ______ ____
ROOT
ATOM      1  N   UNK A   1       2.556   6.287  19.719  0.00  0.00    +0.000 N 
ATOM      2  C   UNK A   1       1.854   7.450  19.512  0.00  0.00    +0.000 A 
ATOM      3  C   UNK A   1       2.378   8.093  18.408  0.00  0.00    +0.000 A 
ATOM      4  C   UNK A   1       3.445   7.271  17.923  0.00  0.00    +0.000 A 
ATOM      5  C   UNK A   1       4.339   7.374  16.838  0.00  0.00    +0.000 A 
ATOM      6  C   UNK A   1       5.286   6.367  16.607  0.00  0.00    +0.000 A 
ATOM      7  C   UNK A   1       5.363   5.259  17.445  0.00  0.00    +0.000 A 
ATOM      8  C   UNK A   1       4.492   5.141  18.535  0.00  0.00    +0.000 A 
ATOM      9  C   UNK A   1       3.536   6.152  18.755  0.00  0.00    +0.000 A 
ENDROOT
BRANCH   7  10
ATOM     10  O   UNK A   1       6.241   4.214  17.307  0.00  0.00    +0.000 OA
ATOM     11  C   UNK A   1       7.625   4.518  17.433  0.00  0.00    +0.000 C 
ENDBRANCH   7  10
BRANCH   1  12
ATOM     12  C   UNK A   1       2.248   5.328  20.775  0.00  0.00    +0.000 C 
BRANCH  12  14
ATOM     13  C   UNK A   1       1.164   3.567  19.341  0.00  0.00    +0.000 C 
ATOM     14  C   UNK A   1       1.131   4.403  20.386  0.00  0.00    +0.000 C 
ENDBRANCH  12  14
ENDBRANCH   1  12
BRANCH   3  15
ATOM     15  C   UNK A   1       1.905   9.391  17.817  0.00  0.00    +0.000 C 
BRANCH  15  16
ATOM     16  C   UNK A   1       0.626   9.914  18.479  0.00  0.00    +0.000 C 
ATOM     17  N   UNK A   1      -0.550   9.852  17.592  0.00  0.00    +0.000 N 
ATOM     18  C   PRO A   2      -1.765  10.373  18.004  0.00  0.00    +0.000 C 
ATOM     19  O   PRO A   2      -2.816  10.063  17.455  0.00  0.00    +0.000 OA
ATOM     20  CA  PRO A   2      -1.662  11.208  19.286  0.00  0.00    +0.000 C 
ATOM     21  CB  PRO A   2      -2.744  12.261  19.484  0.00  0.00    +0.000 C 
ATOM     22  CG  PRO A   2      -2.011  13.351  20.270  0.00  0.00    +0.000 C 
ATOM     23  CD  PRO A   2      -0.615  13.351  19.657  0.00  0.00    +0.000 C 
ATOM     24  N   PRO A   2      -0.421  11.977  19.253  0.00  0.00    +0.000 N 
ATOM     25  C   UNK A   1       0.790  11.388  18.936  0.00  0.00    +0.000 C 
ATOM     26  O   UNK A   1       1.870  11.947  19.094  0.00  0.00    +0.000 OA
ATOM     27  H   UNK A   1      -0.609   9.129  16.885  0.00  0.00    +0.000 HD
ENDBRANCH  15  16
ENDBRANCH   3  15
TORSDOF 5
ENDMDL
MODEL 3
REMARK VINA RESULT:      -7.6      0.565      1.083
REMARK  Name = 
REMARK  6 active torsions:
REMARK  status: ('A' for Active; 'I' for Inactive)
REMARK    1  A    between atoms: C_2  and  C_3
REMARK    2  A    between atoms: C_3  and  N_4
REMARK    3  A    between atoms: C_6  and  C_7
REMARK    4  A    between atoms: C_7  and  C_8
REMARK    5  A    between atoms: C_22  and  O_23
REMARK    6  A    between atoms: O_23  and  C_24
REMARK                            x       y       z     vdW  Elec       q    Type
REMARK                         _______ _______ _______ _____ _____    ______ ____
ROOT
ATOM      1  N   UNK A   1      -0.180  10.167  18.702  0.00  0.00    +0.000 N 
ATOM      2  C   UNK A   1       0.773   9.454  18.014  0.00  0.00    +0.000 A 
ATOM      3  C   UNK A   1       1.590   8.813  18.925  0.00  0.00    +0.000 A 
ATOM      4  C   UNK A   1       1.099   9.153  20.226  0.00  0.00    +0.000 A 
ATOM      5  C   UNK A   1       1.491   8.807  21.535  0.00  0.00    +0.000 A 
ATOM      6  C   UNK A   1       0.776   9.298  22.637  0.00  0.00    +0.000 A 
ATOM      7  C   UNK A   1      -0.320  10.136  22.455  0.00  0.00    +0.000 A 
ATOM      8  C   UNK A   1      -0.719  10.500  21.164  0.00  0.00    +0.000 A 
ATOM      9  C   UNK A   1      -0.003   9.995  20.061  0.00  0.00    +0.000 A 
ENDROOT
BRANCH   7  10
ATOM     10  O   UNK A   1      -1.094  10.665  23.457  0.00  0.00    +0.000 OA
ATOM     11  C   UNK A   1      -1.980  11.718  23.096  0.00  0.00    +0.000 C 
ENDBRANCH   7  10
BRANCH   1  12
ATOM     12  C   UNK A   1      -1.244  10.932  18.061  0.00  0.00    +0.000 C 
BRANCH  12  14
ATOM     13  C   UNK A   1      -0.026  13.121  18.306  0.00  0.00    +0.000 C 
ATOM     14  C   UNK A   1      -1.150  12.397  18.377  0.00  0.00    +0.000 C 
ENDBRANCH  12  14
ENDBRANCH   1  12
BRANCH   3  15
ATOM     15  C   UNK A   1       2.754   7.916  18.609  0.00  0.00    +0.000 C 
BRANCH  15  16
ATOM     16  C   UNK A   1       2.411   6.429  18.746  0.00  0.00    +0.000 C 
ATOM     17  N   UNK A   1       2.512   5.938  20.132  0.00  0.00    +0.000 N 
ATOM     18  C   PRO A   2       2.326   4.595  20.414  0.00  0.00    +0.000 C 
ATOM     19  O   PRO A   2       2.082   4.205  21.549  0.00  0.00    +0.000 OA
ATOM     20  CA  PRO A   2       2.288   3.713  19.160  0.00  0.00    +0.000 C 
ATOM     21  CB  PRO A   2       2.673   2.254  19.359  0.00  0.00    +0.000 C 
ATOM     22  CG  PRO A   2       3.297   1.884  18.011  0.00  0.00    +0.000 C 
ATOM     23  CD  PRO A   2       4.051   3.147  17.612  0.00  0.00    +0.000 C 
ATOM     24  N   PRO A   2       3.269   4.211  18.200  0.00  0.00    +0.000 N 
ATOM     25  C   UNK A   1       3.348   5.552  17.871  0.00  0.00    +0.000 C 
ATOM     26  O   UNK A   1       4.012   5.976  16.931  0.00  0.00    +0.000 OA
ATOM     27  H   UNK A   1       2.328   6.569  20.904  0.00  0.00    +0.000 HD
ENDBRANCH  15  16
ENDBRANCH   3  15
TORSDOF 5
ENDMDL
MODEL 4
REMARK VINA RESULT:      -7.3      1.165      1.410
REMARK  Name = 
REMARK  6 active torsions:
REMARK  status: ('A' for Active; 'I' for Inactive)
REMARK    1  A    between atoms: C_2  and  C_3
REMARK    2  A    between atoms: C_3  and  N_4
REMARK    3  A    between atoms: C_6  and  C_7
REMARK    4  A    between atoms: C_7  and  C_8
REMARK    5  A    between atoms: C_22  and  O_23
REMARK    6  A    between atoms: O_23  and  C_24
REMARK                            x       y       z     vdW  Elec       q    Type
REMARK                         _______ _______ _______ _____ _____    ______ ____
ROOT
ATOM      1  N   UNK A   1       0.057  10.170  19.362  0.00  0.00    +0.000 N 
ATOM      2  C   UNK A   1       0.968   9.148  19.239  0.00  0.00    +0.000 A 
ATOM      3  C   UNK A   1       1.247   8.649  20.496  0.00  0.00    +0.000 A 
ATOM      4  C   UNK A   1       0.457   9.405  21.421  0.00  0.00    +0.000 A 
ATOM      5  C   UNK A   1       0.293   9.365  22.820  0.00  0.00    +0.000 A 
ATOM      6  C   UNK A   1      -0.596  10.248  23.450  0.00  0.00    +0.000 A 
ATOM      7  C   UNK A   1      -1.318  11.178  22.708  0.00  0.00    +0.000 A 
ATOM      8  C   UNK A   1      -1.162  11.241  21.318  0.00  0.00    +0.000 A 
ATOM      9  C   UNK A   1      -0.276  10.344  20.691  0.00  0.00    +0.000 A 
ENDROOT
BRANCH   7  10
ATOM     10  O   UNK A   1      -2.218  12.079  23.218  0.00  0.00    +0.000 OA
ATOM     11  C   UNK A   1      -3.229  12.547  22.333  0.00  0.00    +0.000 C 
ENDBRANCH   7  10
BRANCH   1  12
ATOM     12  C   UNK A   1      -0.503  10.901  18.230  0.00  0.00    +0.000 C 
BRANCH  12  14
ATOM     13  C   UNK A   1      -2.194   9.912  16.650  0.00  0.00    +0.000 C 
ATOM     14  C   UNK A   1      -1.867  10.397  17.855  0.00  0.00    +0.000 C 
ENDBRANCH  12  14
ENDBRANCH   1  12
BRANCH   3  15
ATOM     15  C   UNK A   1       2.180   7.518  20.826  0.00  0.00    +0.000 C 
BRANCH  15  16
ATOM     16  C   UNK A   1       1.765   6.196  20.172  0.00  0.00    +0.000 C 
ATOM     17  N   UNK A   1       1.758   5.063  21.114  0.00  0.00    +0.000 N 
ATOM     18  C   PRO A   2       1.498   3.780  20.664  0.00  0.00    +0.000 C 
ATOM     19  O   PRO A   2       1.167   2.884  21.431  0.00  0.00    +0.000 OA
ATOM     20  CA  PRO A   2       1.499   3.664  19.135  0.00  0.00    +0.000 C 
ATOM     21  CB  PRO A   2       1.808   2.284  18.571  0.00  0.00    +0.000 C 
ATOM     22  CG  PRO A   2       2.496   2.609  17.244  0.00  0.00    +0.000 C 
ATOM     23  CD  PRO A   2       3.328   3.844  17.570  0.00  0.00    +0.000 C 
ATOM     24  N   PRO A   2       2.558   4.512  18.595  0.00  0.00    +0.000 N 
ATOM     25  C   UNK A   1       2.715   5.825  19.001  0.00  0.00    +0.000 C 
ATOM     26  O   UNK A   1       3.454   6.621  18.431  0.00  0.00    +0.000 OA
ATOM     27  H   UNK A   1       1.555   5.224  22.094  0.00  0.00    +0.000 HD
ENDBRANCH  15  16
ENDBRANCH   3  15
TORSDOF 5
ENDMDL
MODEL 5
REMARK VINA RESULT:      -7.2      2.612      8.082
REMARK  Name = 
REMARK  6 active torsions:
REMARK  status: ('A' for Active; 'I' for Inactive)
REMARK    1  A    between atoms: C_2  and  C_3
REMARK    2  A    between atoms: C_3  and  N_4
REMARK    3  A    between atoms: C_6  and  C_7
REMARK    4  A    between atoms: C_7  and  C_8
REMARK    5  A    between atoms: C_22  and  O_23
REMARK    6  A    between atoms: O_23  and  C_24
REMARK                            x       y       z     vdW  Elec       q    Type
REMARK                         _______ _______ _______ _____ _____    ______ ____
ROOT
ATOM      1  N   UNK A   1       2.329   5.656  18.813  0.00  0.00    +0.000 N 
ATOM      2  C   UNK A   1       1.863   6.936  19.004  0.00  0.00    +0.000 A 
ATOM      3  C   UNK A   1       2.599   7.797  18.215  0.00  0.00    +0.000 A 
ATOM      4  C   UNK A   1       3.551   6.994  17.509  0.00  0.00    +0.000 A 
ATOM      5  C   UNK A   1       4.553   7.281  16.560  0.00  0.00    +0.000 A 
ATOM      6  C   UNK A   1       5.330   6.246  16.021  0.00  0.00    +0.000 A 
ATOM      7  C   UNK A   1       5.128   4.927  16.418  0.00  0.00    +0.000 A 
ATOM      8  C   UNK A   1       4.145   4.622  17.366  0.00  0.00    +0.000 A 
ATOM      9  C   UNK A   1       3.362   5.666  17.896  0.00  0.00    +0.000 A 
ENDROOT
BRANCH   7  10
ATOM     10  O   UNK A   1       5.821   3.839  15.951  0.00  0.00    +0.000 OA
ATOM     11  C   UNK A   1       6.190   3.855  14.577  0.00  0.00    +0.000 C 
ENDBRANCH   7  10
BRANCH   1  12
ATOM     12  C   UNK A   1       1.754   4.477  19.452  0.00  0.00    +0.000 C 
BRANCH  12  14
ATOM     13  C   UNK A   1       2.207   3.451  21.705  0.00  0.00    +0.000 C 
ATOM     14  C   UNK A   1       1.913   4.513  20.944  0.00  0.00    +0.000 C 
ENDBRANCH  12  14
ENDBRANCH   1  12
BRANCH   3  15
ATOM     15  C   UNK A   1       2.420   9.286  18.104  0.00  0.00    +0.000 C 
BRANCH  15  16
ATOM     16  C   UNK A   1       1.045   9.756  18.588  0.00  0.00    +0.000 C 
ATOM     17  N   UNK A   1      -0.003   9.629  17.558  0.00  0.00    +0.000 N 
ATOM     18  C   PRO A   2      -1.283  10.098  17.802  0.00  0.00    +0.000 C 
ATOM     19  O   PRO A   2      -2.240   9.733  17.129  0.00  0.00    +0.000 OA
ATOM     20  CA  PRO A   2      -1.383  10.952  19.071  0.00  0.00    +0.000 C 
ATOM     21  CB  PRO A   2      -2.527  11.956  19.110  0.00  0.00    +0.000 C 
ATOM     22  CG  PRO A   2      -1.951  13.089  19.963  0.00  0.00    +0.000 C 
ATOM     23  CD  PRO A   2      -0.489  13.146  19.535  0.00  0.00    +0.000 C 
ATOM     24  N   PRO A   2      -0.184  11.777  19.184  0.00  0.00    +0.000 N 
ATOM     25  C   UNK A   1       1.083  11.242  19.035  0.00  0.00    +0.000 C 
ATOM     26  O   UNK A   1       2.108  11.853  19.320  0.00  0.00    +0.000 OA
ATOM     27  H   UNK A   1       0.061   8.896  16.862  0.00  0.00    +0.000 HD
ENDBRANCH  15  16
ENDBRANCH   3  15
TORSDOF 5
ENDMDL
MODEL 6
REMARK VINA RESULT:      -7.1      2.218      7.795
REMARK  Name = 
REMARK  6 active torsions:
REMARK  status: ('A' for Active; 'I' for Inactive)
REMARK    1  A    between atoms: C_2  and  C_3
REMARK    2  A    between atoms: C_3  and  N_4
REMARK    3  A    between atoms: C_6  and  C_7
REMARK    4  A    between atoms: C_7  and  C_8
REMARK    5  A    between atoms: C_22  and  O_23
REMARK    6  A    between atoms: O_23  and  C_24
REMARK                            x       y       z     vdW  Elec       q    Type
REMARK                         _______ _______ _______ _____ _____    ______ ____
ROOT
ATOM      1  N   UNK A   1       2.954   5.290  19.579  0.00  0.00    +0.000 N 
ATOM      2  C   UNK A   1       2.202   6.428  19.750  0.00  0.00    +0.000 A 
ATOM      3  C   UNK A   1       2.515   7.320  18.744  0.00  0.00    +0.000 A 
ATOM      4  C   UNK A   1       3.499   6.684  17.922  0.00  0.00    +0.000 A 
ATOM      5  C   UNK A   1       4.190   7.069  16.756  0.00  0.00    +0.000 A 
ATOM      6  C   UNK A   1       5.104   6.190  16.156  0.00  0.00    +0.000 A 
ATOM      7  C   UNK A   1       5.347   4.936  16.707  0.00  0.00    +0.000 A 
ATOM      8  C   UNK A   1       4.680   4.537  17.871  0.00  0.00    +0.000 A 
ATOM      9  C   UNK A   1       3.755   5.421  18.461  0.00  0.00    +0.000 A 
ENDROOT
BRANCH   7  10
ATOM     10  O   UNK A   1       6.210   3.997  16.200  0.00  0.00    +0.000 OA
ATOM     11  C   UNK A   1       6.307   3.913  14.783  0.00  0.00    +0.000 C 
ENDBRANCH   7  10
BRANCH   1  12
ATOM     12  C   UNK A   1       2.853   4.111  20.433  0.00  0.00    +0.000 C 
BRANCH  12  14
ATOM     13  C   UNK A   1       0.851   2.987  19.401  0.00  0.00    +0.000 C 
ATOM     14  C   UNK A   1       1.461   3.549  20.453  0.00  0.00    +0.000 C 
ENDBRANCH  12  14
ENDBRANCH   1  12
BRANCH   3  15
ATOM     15  C   UNK A   1       1.920   8.685  18.539  0.00  0.00    +0.000 C 
BRANCH  15  16
ATOM     16  C   UNK A   1       1.448   9.330  19.847  0.00  0.00    +0.000 C 
ATOM     17  N   UNK A   1       0.378   8.567  20.513  0.00  0.00    +0.000 N 
ATOM     18  C   PRO A   2      -0.226   9.062  21.657  0.00  0.00    +0.000 C 
ATOM     19  O   PRO A   2      -0.869   8.339  22.408  0.00  0.00    +0.000 OA
ATOM     20  CA  PRO A   2       0.141  10.521  21.952  0.00  0.00    +0.000 C 
ATOM     21  CB  PRO A   2      -0.865  11.307  22.781  0.00  0.00    +0.000 C 
ATOM     22  CG  PRO A   2      -0.691  12.734  22.257  0.00  0.00    +0.000 C 
ATOM     23  CD  PRO A   2      -0.453  12.537  20.765  0.00  0.00    +0.000 C 
ATOM     24  N   PRO A   2       0.213  11.256  20.692  0.00  0.00    +0.000 N 
ATOM     25  C   UNK A   1       0.917  10.769  19.607  0.00  0.00    +0.000 C 
ATOM     26  O   UNK A   1       1.169  11.441  18.612  0.00  0.00    +0.000 OA
ATOM     27  H   UNK A   1       0.334   7.561  20.405  0.00  0.00    +0.000 HD
ENDBRANCH  15  16
ENDBRANCH   3  15
TORSDOF 5
ENDMDL
MODEL 7
REMARK VINA RESULT:      -7.0      1.634      3.197
REMARK  Name = 
REMARK  6 active torsions:
REMARK  status: ('A' for Active; 'I' for Inactive)
REMARK    1  A    between atoms: C_2  and  C_3
REMARK    2  A    between atoms: C_3  and  N_4
REMARK    3  A    between atoms: C_6  and  C_7
REMARK    4  A    between atoms: C_7  and  C_8
REMARK    5  A    between atoms: C_22  and  O_23
REMARK    6  A    between atoms: O_23  and  C_24
REMARK                            x       y       z     vdW  Elec       q    Type
REMARK                         _______ _______ _______ _____ _____    ______ ____
ROOT
ATOM      1  N   UNK A   1      -0.156   9.743  21.846  0.00  0.00    +0.000 N 
ATOM      2  C   UNK A   1       0.886   8.850  21.912  0.00  0.00    +0.000 A 
ATOM      3  C   UNK A   1       1.323   8.583  20.630  0.00  0.00    +0.000 A 
ATOM      4  C   UNK A   1       0.506   9.362  19.749  0.00  0.00    +0.000 A 
ATOM      5  C   UNK A   1       0.469   9.531  18.350  0.00  0.00    +0.000 A 
ATOM      6  C   UNK A   1      -0.461  10.405  17.770  0.00  0.00    +0.000 A 
ATOM      7  C   UNK A   1      -1.363  11.109  18.563  0.00  0.00    +0.000 A 
ATOM      8  C   UNK A   1      -1.350  10.948  19.953  0.00  0.00    +0.000 A 
ATOM      9  C   UNK A   1      -0.406  10.076  20.529  0.00  0.00    +0.000 A 
ENDROOT
BRANCH   7  10
ATOM     10  O   UNK A   1      -2.305  11.994  18.104  0.00  0.00    +0.000 OA
ATOM     11  C   UNK A   1      -3.637  11.508  17.984  0.00  0.00    +0.000 C 
ENDBRANCH   7  10
BRANCH   1  12
ATOM     12  C   UNK A   1      -0.837  10.287  23.017  0.00  0.00    +0.000 C 
BRANCH  12  14
ATOM     13  C   UNK A   1      -2.186  12.398  23.259  0.00  0.00    +0.000 C 
ATOM     14  C   UNK A   1      -1.061  11.767  22.899  0.00  0.00    +0.000 C 
ENDBRANCH  12  14
ENDBRANCH   1  12
BRANCH   3  15
ATOM     15  C   UNK A   1       2.451   7.671  20.237  0.00  0.00    +0.000 C 
BRANCH  15  16
ATOM     16  C   UNK A   1       2.000   6.221  20.036  0.00  0.00    +0.000 C 
ATOM     17  N   UNK A   1       2.371   5.341  21.159  0.00  0.00    +0.000 N 
ATOM     18  C   PRO A   2       2.120   3.980  21.093  0.00  0.00    +0.000 C 
ATOM     19  O   PRO A   2       2.109   3.279  22.098  0.00  0.00    +0.000 OA
ATOM     20  CA  PRO A   2       1.700   3.509  19.696  0.00  0.00    +0.000 C 
ATOM     21  CB  PRO A   2       1.970   2.045  19.376  0.00  0.00    +0.000 C 
ATOM     22  CG  PRO A   2       2.220   2.071  17.866  0.00  0.00    +0.000 C 
ATOM     23  CD  PRO A   2       2.984   3.373  17.657  0.00  0.00    +0.000 C 
ATOM     24  N   PRO A   2       2.475   4.239  18.696  0.00  0.00    +0.000 N 
ATOM     25  C   UNK A   1       2.611   5.614  18.745  0.00  0.00    +0.000 C 
ATOM     26  O   UNK A   1       3.077   6.276  17.823  0.00  0.00    +0.000 OA
ATOM     27  H   UNK A   1       2.439   5.720  22.095  0.00  0.00    +0.000 HD
ENDBRANCH  15  16
ENDBRANCH   3  15
TORSDOF 5
ENDMDL
MODEL 8
REMARK VINA RESULT:      -7.0      1.426      1.531
REMARK  Name = 
REMARK  6 active torsions:
REMARK  status: ('A' for Active; 'I' for Inactive)
REMARK    1  A    between atoms: C_2  and  C_3
REMARK    2  A    between atoms: C_3  and  N_4
REMARK    3  A    between atoms: C_6  and  C_7
REMARK    4  A    between atoms: C_7  and  C_8
REMARK    5  A    between atoms: C_22  and  O_23
REMARK    6  A    between atoms: O_23  and  C_24
REMARK                            x       y       z     vdW  Elec       q    Type
REMARK                         _______ _______ _______ _____ _____    ______ ____
ROOT
ATOM      1  N   UNK A   1      -0.108   9.941  18.453  0.00  0.00    +0.000 N 
ATOM      2  C   UNK A   1       0.828   9.343  17.643  0.00  0.00    +0.000 A 
ATOM      3  C   UNK A   1       1.742   8.679  18.437  0.00  0.00    +0.000 A 
ATOM      4  C   UNK A   1       1.331   8.884  19.793  0.00  0.00    +0.000 A 
ATOM      5  C   UNK A   1       1.836   8.458  21.038  0.00  0.00    +0.000 A 
ATOM      6  C   UNK A   1       1.180   8.816  22.224  0.00  0.00    +0.000 A 
ATOM      7  C   UNK A   1       0.031   9.601  22.190  0.00  0.00    +0.000 A 
ATOM      8  C   UNK A   1      -0.481  10.044  20.965  0.00  0.00    +0.000 A 
ATOM      9  C   UNK A   1       0.177   9.671  19.777  0.00  0.00    +0.000 A 
ENDROOT
BRANCH   7  10
ATOM     10  O   UNK A   1      -0.693  10.002  23.285  0.00  0.00    +0.000 OA
ATOM     11  C   UNK A   1      -1.422  11.217  23.162  0.00  0.00    +0.000 C 
ENDBRANCH   7  10
BRANCH   1  12
ATOM     12  C   UNK A   1      -1.254  10.693  17.954  0.00  0.00    +0.000 C 
BRANCH  12  14
ATOM     13  C   UNK A   1      -2.807  10.499  15.983  0.00  0.00    +0.000 C 
ATOM     14  C   UNK A   1      -2.005   9.937  16.896  0.00  0.00    +0.000 C 
ENDBRANCH  12  14
ENDBRANCH   1  12
BRANCH   3  15
ATOM     15  C   UNK A   1       2.924   7.879  17.967  0.00  0.00    +0.000 C 
BRANCH  15  16
ATOM     16  C   UNK A   1       3.078   6.551  18.717  0.00  0.00    +0.000 C 
ATOM     17  N   UNK A   1       4.457   6.032  18.693  0.00  0.00    +0.000 N 
ATOM     18  C   PRO A   2       4.748   4.795  19.243  0.00  0.00    +0.000 C 
ATOM     19  O   PRO A   2       5.895   4.474  19.533  0.00  0.00    +0.000 OA
ATOM     20  CA  PRO A   2       3.498   3.980  19.596  0.00  0.00    +0.000 C 
ATOM     21  CB  PRO A   2       3.676   2.469  19.638  0.00  0.00    +0.000 C 
ATOM     22  CG  PRO A   2       2.298   1.956  19.215  0.00  0.00    +0.000 C 
ATOM     23  CD  PRO A   2       1.860   2.955  18.150  0.00  0.00    +0.000 C 
ATOM     24  N   PRO A   2       2.488   4.190  18.563  0.00  0.00    +0.000 N 
ATOM     25  C   UNK A   1       2.156   5.456  18.118  0.00  0.00    +0.000 C 
ATOM     26  O   UNK A   1       1.182   5.685  17.407  0.00  0.00    +0.000 OA
ATOM     27  H   UNK A   1       5.238   6.677  18.648  0.00  0.00    +0.000 HD
ENDBRANCH  15  16
ENDBRANCH   3  15
TORSDOF 5
ENDMDL
MODEL 9
REMARK VINA RESULT:      -7.0      2.204      7.639
REMARK  Name = 
REMARK  6 active torsions:
REMARK  status: ('A' for Active; 'I' for Inactive)
REMARK    1  A    between atoms: C_2  and  C_3
REMARK    2  A    between atoms: C_3  and  N_4
REMARK    3  A    between atoms: C_6  and  C_7
REMARK    4  A    between atoms: C_7  and  C_8
REMARK    5  A    between atoms: C_22  and  O_23
REMARK    6  A    between atoms: O_23  and  C_24
REMARK                            x       y       z     vdW  Elec       q    Type
REMARK                         _______ _______ _______ _____ _____    ______ ____
ROOT
ATOM      1  N   UNK A   1       2.499   5.537  20.098  0.00  0.00    +0.000 N 
ATOM      2  C   UNK A   1       1.639   6.563  19.783  0.00  0.00    +0.000 A 
ATOM      3  C   UNK A   1       2.178   7.287  18.738  0.00  0.00    +0.000 A 
ATOM      4  C   UNK A   1       3.421   6.661  18.403  0.00  0.00    +0.000 A 
ATOM      5  C   UNK A   1       4.411   6.919  17.433  0.00  0.00    +0.000 A 
ATOM      6  C   UNK A   1       5.538   6.090  17.339  0.00  0.00    +0.000 A 
ATOM      7  C   UNK A   1       5.698   5.011  18.203  0.00  0.00    +0.000 A 
ATOM      8  C   UNK A   1       4.733   4.743  19.180  0.00  0.00    +0.000 A 
ATOM      9  C   UNK A   1       3.598   5.574  19.262  0.00  0.00    +0.000 A 
ENDROOT
BRANCH   7  10
ATOM     10  O   UNK A   1       6.753   4.132  18.194  0.00  0.00    +0.000 OA
ATOM     11  C   UNK A   1       7.912   4.530  17.472  0.00  0.00    +0.000 C 
ENDBRANCH   7  10
BRANCH   1  12
ATOM     12  C   UNK A   1       2.232   4.538  21.127  0.00  0.00    +0.000 C 
BRANCH  12  14
ATOM     13  C   UNK A   1       1.093   2.881  19.613  0.00  0.00    +0.000 C 
ATOM     14  C   UNK A   1       1.117   3.612  20.735  0.00  0.00    +0.000 C 
ENDBRANCH  12  14
ENDBRANCH   1  12
BRANCH   3  15
ATOM     15  C   UNK A   1       1.566   8.486  18.068  0.00  0.00    +0.000 C 
BRANCH  15  16
ATOM     16  C   UNK A   1       1.253   9.619  19.050  0.00  0.00    +0.000 C 
ATOM     17  N   UNK A   1       1.237   9.176  20.456  0.00  0.00    +0.000 N 
ATOM     18  C   PRO A   2       0.878  10.057  21.462  0.00  0.00    +0.000 C 
ATOM     19  O   PRO A   2       1.156   9.840  22.636  0.00  0.00    +0.000 OA
ATOM     20  CA  PRO A   2       0.273  11.364  20.936  0.00  0.00    +0.000 C 
ATOM     21  CB  PRO A   2      -0.655  12.102  21.891  0.00  0.00    +0.000 C 
ATOM     22  CG  PRO A   2      -1.638  12.788  20.940  0.00  0.00    +0.000 C 
ATOM     23  CD  PRO A   2      -1.837  11.759  19.833  0.00  0.00    +0.000 C 
ATOM     24  N   PRO A   2      -0.570  11.066  19.782  0.00  0.00    +0.000 N 
ATOM     25  C   UNK A   1      -0.127  10.262  18.747  0.00  0.00    +0.000 C 
ATOM     26  O   UNK A   1      -0.721  10.154  17.679  0.00  0.00    +0.000 OA
ATOM     27  H   UNK A   1       1.829   8.407  20.748  0.00  0.00    +0.000 HD
ENDBRANCH  15  16
ENDBRANCH   3  15
TORSDOF 5
ENDMDL
