MODEL 1
REMARK VINA RESULT:      -7.6      0.000      0.000
REMARK  Name = 
REMARK  2 active torsions:
REMARK  status: ('A' for Active; 'I' for Inactive)
REMARK    1  A    between atoms: C_1  and  N_2
REMARK    2  A    between atoms: N_5  and  C_6
REMARK                            x       y       z     vdW  Elec       q    Type
REMARK                         _______ _______ _______ _____ _____    ______ ____
ROOT
ATOM      1  C   UNL     1       4.338   4.157  18.034  0.00  0.00    +0.000 A 
ATOM      2  C   UNL     1       4.229   3.991  16.699  0.00  0.00    +0.000 A 
ATOM      3  C   UNL     1       5.292   4.338  15.759  0.00  0.00    +0.000 A 
ATOM      4  C   UNL     1       5.109   4.176  14.384  0.00  0.00    +0.000 A 
ATOM      5  C   UNL     1       6.130   4.522  13.503  0.00  0.00    +0.000 A 
ATOM      6  C   UNL     1       7.335   5.026  13.997  0.00  0.00    +0.000 A 
ATOM      7 CL   UNL     1       8.587   5.448  12.893  0.00  0.00    +0.000 Cl
ATOM      8  C   UNL     1       7.537   5.195  15.368  0.00  0.00    +0.000 A 
ATOM      9  C   UNL     1       6.505   4.852  16.241  0.00  0.00    +0.000 A 
ATOM     10  N   UNL     1       6.593   5.005  17.640  0.00  0.00    +0.000 N 
ATOM     11  C   UNL     1       7.628   5.462  18.407  0.00  0.00    +0.000 A 
ATOM     12  N   UNL     1       7.284   5.452  19.674  0.00  0.00    +0.000 NA
ATOM     13  N   UNL     1       6.000   4.968  19.754  0.00  0.00    +0.000 NA
ATOM     14  C   UNL     1       5.576   4.697  18.530  0.00  0.00    +0.000 A 
ENDROOT
BRANCH   1  19
ATOM     15  C   UNL     1       1.101   2.458  22.258  0.00  0.00    +0.000 C 
ATOM     16  N   UNL     1       1.389   3.028  20.947  0.00  0.00    +0.000 NA
ATOM     17  C   UNL     1       2.069   2.041  20.074  0.00  0.00    +0.000 C 
ATOM     18  C   UNL     1       2.439   2.617  18.682  0.00  0.00    +0.000 C 
ATOM     19  N   UNL     1       3.254   3.838  18.855  0.00  0.00    +0.000 N 
ATOM     20  C   UNL     1       2.578   4.842  19.702  0.00  0.00    +0.000 C 
ATOM     21  C   UNL     1       2.239   4.230  21.075  0.00  0.00    +0.000 C 
ENDBRANCH   1  19
TORSDOF 1
ENDMDL
MODEL 2
REMARK VINA RESULT:      -7.3      5.561      7.895
REMARK  Name = 
REMARK  2 active torsions:
REMARK  status: ('A' for Active; 'I' for Inactive)
REMARK    1  A    between atoms: C_1  and  N_2
REMARK    2  A    between atoms: N_5  and  C_6
REMARK                            x       y       z     vdW  Elec       q    Type
REMARK                         _______ _______ _______ _____ _____    ______ ____
ROOT
ATOM      1  C   UNL     1       1.720   7.195  20.157  0.00  0.00    +0.000 A 
ATOM      2  C   UNL     1       1.086   7.508  21.306  0.00  0.00    +0.000 A 
ATOM      3  C   UNL     1       0.530   8.830  21.580  0.00  0.00    +0.000 A 
ATOM      4  C   UNL     1      -0.087   9.105  22.802  0.00  0.00    +0.000 A 
ATOM      5  C   UNL     1      -0.602  10.375  23.049  0.00  0.00    +0.000 A 
ATOM      6  C   UNL     1      -0.505  11.368  22.072  0.00  0.00    +0.000 A 
ATOM      7 CL   UNL     1      -1.147  12.932  22.395  0.00  0.00    +0.000 Cl
ATOM      8  C   UNL     1       0.108  11.112  20.844  0.00  0.00    +0.000 A 
ATOM      9  C   UNL     1       0.628   9.839  20.610  0.00  0.00    +0.000 A 
ATOM     10  N   UNL     1       1.287   9.481  19.416  0.00  0.00    +0.000 N 
ATOM     11  C   UNL     1       1.531  10.222  18.295  0.00  0.00    +0.000 A 
ATOM     12  N   UNL     1       2.188   9.501  17.417  0.00  0.00    +0.000 NA
ATOM     13  N   UNL     1       2.376   8.252  17.959  0.00  0.00    +0.000 NA
ATOM     14  C   UNL     1       1.835   8.233  19.166  0.00  0.00    +0.000 A 
ENDROOT
BRANCH   1  19
ATOM     15  C   UNL     1       3.220   2.193  18.169  0.00  0.00    +0.000 C 
ATOM     16  N   UNL     1       3.165   3.278  19.144  0.00  0.00    +0.000 NA
ATOM     17  C   UNL     1       1.772   3.526  19.587  0.00  0.00    +0.000 C 
ATOM     18  C   UNL     1       1.657   4.704  20.591  0.00  0.00    +0.000 C 
ATOM     19  N   UNL     1       2.260   5.917  19.997  0.00  0.00    +0.000 N 
ATOM     20  C   UNL     1       3.657   5.692  19.573  0.00  0.00    +0.000 C 
ATOM     21  C   UNL     1       3.722   4.522  18.572  0.00  0.00    +0.000 C 
ENDBRANCH   1  19
TORSDOF 1
ENDMDL
MODEL 3
REMARK VINA RESULT:      -7.1      3.599      6.792
REMARK  Name = 
REMARK  2 active torsions:
REMARK  status: ('A' for Active; 'I' for Inactive)
REMARK    1  A    between atoms: C_1  and  N_2
REMARK    2  A    between atoms: N_5  and  C_6
REMARK                            x       y       z     vdW  Elec       q    Type
REMARK                         _______ _______ _______ _____ _____    ______ ____
ROOT
ATOM      1  C   UNL     1       3.995   5.337  18.245  0.00  0.00    +0.000 A 
ATOM      2  C   UNL     1       3.535   6.603  18.156  0.00  0.00    +0.000 A 
ATOM      3  C   UNL     1       2.569   7.171  19.093  0.00  0.00    +0.000 A 
ATOM      4  C   UNL     1       2.104   8.478  18.932  0.00  0.00    +0.000 A 
ATOM      5  C   UNL     1       1.174   8.999  19.828  0.00  0.00    +0.000 A 
ATOM      6  C   UNL     1       0.715   8.215  20.889  0.00  0.00    +0.000 A 
ATOM      7 CL   UNL     1      -0.434   8.876  21.988  0.00  0.00    +0.000 Cl
ATOM      8  C   UNL     1       1.169   6.907  21.067  0.00  0.00    +0.000 A 
ATOM      9  C   UNL     1       2.093   6.392  20.158  0.00  0.00    +0.000 A 
ATOM     10  N   UNL     1       2.599   5.078  20.230  0.00  0.00    +0.000 N 
ATOM     11  C   UNL     1       2.344   4.091  21.140  0.00  0.00    +0.000 A 
ATOM     12  N   UNL     1       3.019   3.010  20.829  0.00  0.00    +0.000 NA
ATOM     13  N   UNL     1       3.748   3.285  19.696  0.00  0.00    +0.000 NA
ATOM     14  C   UNL     1       3.498   4.532  19.329  0.00  0.00    +0.000 A 
ENDROOT
BRANCH   1  19
ATOM     15  C   UNL     1       7.385   4.828  13.833  0.00  0.00    +0.000 C 
ATOM     16  N   UNL     1       6.712   4.395  15.053  0.00  0.00    +0.000 NA
ATOM     17  C   UNL     1       5.239   4.392  14.877  0.00  0.00    +0.000 C 
ATOM     18  C   UNL     1       4.477   3.982  16.164  0.00  0.00    +0.000 C 
ATOM     19  N   UNL     1       4.886   4.862  17.280  0.00  0.00    +0.000 N 
ATOM     20  C   UNL     1       6.348   4.856  17.484  0.00  0.00    +0.000 C 
ATOM     21  C   UNL     1       7.064   5.277  16.185  0.00  0.00    +0.000 C 
ENDBRANCH   1  19
TORSDOF 1
ENDMDL
MODEL 4
REMARK VINA RESULT:      -7.0      4.001      6.803
REMARK  Name = 
REMARK  2 active torsions:
REMARK  status: ('A' for Active; 'I' for Inactive)
REMARK    1  A    between atoms: C_1  and  N_2
REMARK    2  A    between atoms: N_5  and  C_6
REMARK                            x       y       z     vdW  Elec       q    Type
REMARK                         _______ _______ _______ _____ _____    ______ ____
ROOT
ATOM      1  C   UNL     1       3.844   6.146  18.031  0.00  0.00    +0.000 A 
ATOM      2  C   UNL     1       3.481   7.394  17.667  0.00  0.00    +0.000 A 
ATOM      3  C   UNL     1       2.499   8.188  18.401  0.00  0.00    +0.000 A 
ATOM      4  C   UNL     1       2.137   9.462  17.958  0.00  0.00    +0.000 A 
ATOM      5  C   UNL     1       1.191  10.200  18.666  0.00  0.00    +0.000 A 
ATOM      6  C   UNL     1       0.612   9.666  19.818  0.00  0.00    +0.000 A 
ATOM      7 CL   UNL     1      -0.555  10.593  20.681  0.00  0.00    +0.000 Cl
ATOM      8  C   UNL     1       0.961   8.395  20.278  0.00  0.00    +0.000 A 
ATOM      9  C   UNL     1       1.904   7.661  19.557  0.00  0.00    +0.000 A 
ATOM     10  N   UNL     1       2.310   6.360  19.918  0.00  0.00    +0.000 N 
ATOM     11  C   UNL     1       1.930   5.587  20.978  0.00  0.00    +0.000 A 
ATOM     12  N   UNL     1       2.547   4.429  20.931  0.00  0.00    +0.000 NA
ATOM     13  N   UNL     1       3.363   4.435  19.825  0.00  0.00    +0.000 NA
ATOM     14  C   UNL     1       3.224   5.598  19.208  0.00  0.00    +0.000 A 
ENDROOT
BRANCH   1  19
ATOM     15  C   UNL     1       7.300   4.501  13.961  0.00  0.00    +0.000 C 
ATOM     16  N   UNL     1       6.624   4.413  15.251  0.00  0.00    +0.000 NA
ATOM     17  C   UNL     1       5.155   4.317  15.077  0.00  0.00    +0.000 C 
ATOM     18  C   UNL     1       4.387   4.269  16.425  0.00  0.00    +0.000 C 
ATOM     19  N   UNL     1       4.759   5.442  17.245  0.00  0.00    +0.000 N 
ATOM     20  C   UNL     1       6.219   5.536  17.448  0.00  0.00    +0.000 C 
ATOM     21  C   UNL     1       6.938   5.591  16.086  0.00  0.00    +0.000 C 
ENDBRANCH   1  19
TORSDOF 1
ENDMDL
MODEL 5
REMARK VINA RESULT:      -6.9      7.401      9.121
REMARK  Name = 
REMARK  2 active torsions:
REMARK  status: ('A' for Active; 'I' for Inactive)
REMARK    1  A    between atoms: C_1  and  N_2
REMARK    2  A    between atoms: N_5  and  C_6
REMARK                            x       y       z     vdW  Elec       q    Type
REMARK                         _______ _______ _______ _____ _____    ______ ____
ROOT
ATOM      1  C   UNL     1       1.038  11.052  19.429  0.00  0.00    +0.000 A 
ATOM      2  C   UNL     1       1.509  10.146  18.546  0.00  0.00    +0.000 A 
ATOM      3  C   UNL     1       1.793   8.757  18.899  0.00  0.00    +0.000 A 
ATOM      4  C   UNL     1       2.310   7.873  17.950  0.00  0.00    +0.000 A 
ATOM      5  C   UNL     1       2.584   6.555  18.307  0.00  0.00    +0.000 A 
ATOM      6  C   UNL     1       2.336   6.121  19.611  0.00  0.00    +0.000 A 
ATOM      7 CL   UNL     1       2.680   4.488  20.035  0.00  0.00    +0.000 Cl
ATOM      8  C   UNL     1       1.818   6.990  20.573  0.00  0.00    +0.000 A 
ATOM      9  C   UNL     1       1.555   8.310  20.207  0.00  0.00    +0.000 A 
ATOM     10  N   UNL     1       1.054   9.276  21.104  0.00  0.00    +0.000 N 
ATOM     11  C   UNL     1       0.716   9.154  22.421  0.00  0.00    +0.000 A 
ATOM     12  N   UNL     1       0.301  10.309  22.886  0.00  0.00    +0.000 NA
ATOM     13  N   UNL     1       0.352  11.216  21.854  0.00  0.00    +0.000 NA
ATOM     14  C   UNL     1       0.807  10.599  20.775  0.00  0.00    +0.000 A 
ENDROOT
BRANCH   1  19
ATOM     15  C   UNL     1       0.434  16.603  19.243  0.00  0.00    +0.000 C 
ATOM     16  N   UNL     1       0.510  15.252  18.697  0.00  0.00    +0.000 NA
ATOM     17  C   UNL     1      -0.568  14.395  19.245  0.00  0.00    +0.000 C 
ATOM     18  C   UNL     1      -0.501  12.933  18.729  0.00  0.00    +0.000 C 
ATOM     19  N   UNL     1       0.836  12.371  19.016  0.00  0.00    +0.000 N 
ATOM     20  C   UNL     1       1.920  13.201  18.453  0.00  0.00    +0.000 C 
ATOM     21  C   UNL     1       1.820  14.639  19.000  0.00  0.00    +0.000 C 
ENDBRANCH   1  19
TORSDOF 1
ENDMDL
MODEL 6
REMARK VINA RESULT:      -6.8      4.772      6.578
REMARK  Name = 
REMARK  2 active torsions:
REMARK  status: ('A' for Active; 'I' for Inactive)
REMARK    1  A    between atoms: C_1  and  N_2
REMARK    2  A    between atoms: N_5  and  C_6
REMARK                            x       y       z     vdW  Elec       q    Type
REMARK                         _______ _______ _______ _____ _____    ______ ____
ROOT
ATOM      1  C   UNL     1       1.648   7.699  20.384  0.00  0.00    +0.000 A 
ATOM      2  C   UNL     1       1.500   6.494  20.975  0.00  0.00    +0.000 A 
ATOM      3  C   UNL     1       1.953   5.244  20.368  0.00  0.00    +0.000 A 
ATOM      4  C   UNL     1       1.742   4.023  21.011  0.00  0.00    +0.000 A 
ATOM      5  C   UNL     1       2.171   2.841  20.413  0.00  0.00    +0.000 A 
ATOM      6  C   UNL     1       2.814   2.881  19.174  0.00  0.00    +0.000 A 
ATOM      7 CL   UNL     1       3.338   1.410  18.449  0.00  0.00    +0.000 Cl
ATOM      8  C   UNL     1       3.034   4.093  18.516  0.00  0.00    +0.000 A 
ATOM      9  C   UNL     1       2.594   5.270  19.121  0.00  0.00    +0.000 A 
ATOM     10  N   UNL     1       2.743   6.543  18.534  0.00  0.00    +0.000 N 
ATOM     11  C   UNL     1       3.323   6.898  17.349  0.00  0.00    +0.000 A 
ATOM     12  N   UNL     1       3.235   8.196  17.179  0.00  0.00    +0.000 NA
ATOM     13  N   UNL     1       2.594   8.719  18.277  0.00  0.00    +0.000 NA
ATOM     14  C   UNL     1       2.293   7.726  19.098  0.00  0.00    +0.000 A 
ENDROOT
BRANCH   1  19
ATOM     15  C   UNL     1      -1.594  11.403  23.027  0.00  0.00    +0.000 C 
ATOM     16  N   UNL     1      -0.369  10.906  22.411  0.00  0.00    +0.000 NA
ATOM     17  C   UNL     1      -0.577  10.613  20.972  0.00  0.00    +0.000 C 
ATOM     18  C   UNL     1       0.688  10.037  20.282  0.00  0.00    +0.000 C 
ATOM     19  N   UNL     1       1.147   8.838  21.017  0.00  0.00    +0.000 N 
ATOM     20  C   UNL     1       1.383   9.121  22.447  0.00  0.00    +0.000 C 
ATOM     21  C   UNL     1       0.100   9.682  23.093  0.00  0.00    +0.000 C 
ENDBRANCH   1  19
TORSDOF 1
ENDMDL
MODEL 7
REMARK VINA RESULT:      -6.8      5.617      7.916
REMARK  Name = 
REMARK  2 active torsions:
REMARK  status: ('A' for Active; 'I' for Inactive)
REMARK    1  A    between atoms: C_1  and  N_2
REMARK    2  A    between atoms: N_5  and  C_6
REMARK                            x       y       z     vdW  Elec       q    Type
REMARK                         _______ _______ _______ _____ _____    ______ ____
ROOT
ATOM      1  C   UNL     1       1.774   7.262  19.969  0.00  0.00    +0.000 A 
ATOM      2  C   UNL     1       1.150   7.458  21.149  0.00  0.00    +0.000 A 
ATOM      3  C   UNL     1       0.578   8.741  21.549  0.00  0.00    +0.000 A 
ATOM      4  C   UNL     1      -0.028   8.893  22.798  0.00  0.00    +0.000 A 
ATOM      5  C   UNL     1      -0.559  10.127  23.167  0.00  0.00    +0.000 A 
ATOM      6  C   UNL     1      -0.487  11.207  22.284  0.00  0.00    +0.000 A 
ATOM      7 CL   UNL     1      -1.149  12.724  22.756  0.00  0.00    +0.000 Cl
ATOM      8  C   UNL     1       0.114  11.074  21.031  0.00  0.00    +0.000 A 
ATOM      9  C   UNL     1       0.649   9.836  20.675  0.00  0.00    +0.000 A 
ATOM     10  N   UNL     1       1.299   9.599  19.447  0.00  0.00    +0.000 N 
ATOM     11  C   UNL     1       1.518  10.444  18.396  0.00  0.00    +0.000 A 
ATOM     12  N   UNL     1       2.175   9.817  17.448  0.00  0.00    +0.000 NA
ATOM     13  N   UNL     1       2.387   8.526  17.870  0.00  0.00    +0.000 NA
ATOM     14  C   UNL     1       1.861   8.388  19.077  0.00  0.00    +0.000 A 
ENDROOT
BRANCH   1  19
ATOM     15  C   UNL     1       4.485   2.386  20.260  0.00  0.00    +0.000 C 
ATOM     16  N   UNL     1       3.666   3.419  19.636  0.00  0.00    +0.000 NA
ATOM     17  C   UNL     1       4.416   4.693  19.514  0.00  0.00    +0.000 C 
ATOM     18  C   UNL     1       3.569   5.838  18.898  0.00  0.00    +0.000 C 
ATOM     19  N   UNL     1       2.331   6.013  19.687  0.00  0.00    +0.000 N 
ATOM     20  C   UNL     1       1.560   4.758  19.795  0.00  0.00    +0.000 C 
ATOM     21  C   UNL     1       2.435   3.654  20.420  0.00  0.00    +0.000 C 
ENDBRANCH   1  19
TORSDOF 1
ENDMDL
MODEL 8
REMARK VINA RESULT:      -6.8      4.135      5.400
REMARK  Name = 
REMARK  2 active torsions:
REMARK  status: ('A' for Active; 'I' for Inactive)
REMARK    1  A    between atoms: C_1  and  N_2
REMARK    2  A    between atoms: N_5  and  C_6
REMARK                            x       y       z     vdW  Elec       q    Type
REMARK                         _______ _______ _______ _____ _____    ______ ____
ROOT
ATOM      1  C   UNL     1       2.220   7.674  19.047  0.00  0.00    +0.000 A 
ATOM      2  C   UNL     1       2.957   7.859  17.932  0.00  0.00    +0.000 A 
ATOM      3  C   UNL     1       3.819   6.827  17.361  0.00  0.00    +0.000 A 
ATOM      4  C   UNL     1       4.585   7.087  16.223  0.00  0.00    +0.000 A 
ATOM      5  C   UNL     1       5.409   6.093  15.699  0.00  0.00    +0.000 A 
ATOM      6  C   UNL     1       5.462   4.839  16.310  0.00  0.00    +0.000 A 
ATOM      7 CL   UNL     1       6.485   3.623  15.649  0.00  0.00    +0.000 Cl
ATOM      8  C   UNL     1       4.702   4.560  17.448  0.00  0.00    +0.000 A 
ATOM      9  C   UNL     1       3.887   5.564  17.969  0.00  0.00    +0.000 A 
ATOM     10  N   UNL     1       3.099   5.398  19.126  0.00  0.00    +0.000 N 
ATOM     11  C   UNL     1       2.942   4.302  19.927  0.00  0.00    +0.000 A 
ATOM     12  N   UNL     1       2.119   4.582  20.911  0.00  0.00    +0.000 NA
ATOM     13  N   UNL     1       1.711   5.886  20.756  0.00  0.00    +0.000 NA
ATOM     14  C   UNL     1       2.300   6.384  19.681  0.00  0.00    +0.000 A 
ENDROOT
BRANCH   1  19
ATOM     15  C   UNL     1       0.524  12.540  21.205  0.00  0.00    +0.000 C 
ATOM     16  N   UNL     1       0.362  11.205  20.639  0.00  0.00    +0.000 NA
ATOM     17  C   UNL     1       1.002  10.181  21.500  0.00  0.00    +0.000 C 
ATOM     18  C   UNL     1       0.896   8.747  20.916  0.00  0.00    +0.000 C 
ATOM     19  N   UNL     1       1.457   8.731  19.548  0.00  0.00    +0.000 N 
ATOM     20  C   UNL     1       0.812   9.729  18.671  0.00  0.00    +0.000 C 
ATOM     21  C   UNL     1       0.949  11.137  19.285  0.00  0.00    +0.000 C 
ENDBRANCH   1  19
TORSDOF 1
ENDMDL
MODEL 9
REMARK VINA RESULT:      -6.7      8.128      9.747
REMARK  Name = 
REMARK  2 active torsions:
REMARK  status: ('A' for Active; 'I' for Inactive)
REMARK    1  A    between atoms: C_1  and  N_2
REMARK    2  A    between atoms: N_5  and  C_6
REMARK                            x       y       z     vdW  Elec       q    Type
REMARK                         _______ _______ _______ _____ _____    ______ ____
ROOT
ATOM      1  C   UNL     1      -0.533  11.539  20.380  0.00  0.00    +0.000 A 
ATOM      2  C   UNL     1      -0.049  11.045  19.221  0.00  0.00    +0.000 A 
ATOM      3  C   UNL     1       0.767   9.836  19.144  0.00  0.00    +0.000 A 
ATOM      4  C   UNL     1       1.268   9.390  17.919  0.00  0.00    +0.000 A 
ATOM      5  C   UNL     1       2.052   8.241  17.867  0.00  0.00    +0.000 A 
ATOM      6  C   UNL     1       2.332   7.535  19.039  0.00  0.00    +0.000 A 
ATOM      7 CL   UNL     1       3.303   6.116  18.956  0.00  0.00    +0.000 Cl
ATOM      8  C   UNL     1       1.839   7.964  20.273  0.00  0.00    +0.000 A 
ATOM      9  C   UNL     1       1.061   9.121  20.315  0.00  0.00    +0.000 A 
ATOM     10  N   UNL     1       0.534   9.656  21.509  0.00  0.00    +0.000 N 
ATOM     11  C   UNL     1       0.633   9.196  22.791  0.00  0.00    +0.000 A 
ATOM     12  N   UNL     1       0.001  10.007  23.607  0.00  0.00    +0.000 NA
ATOM     13  N   UNL     1      -0.539  11.021  22.852  0.00  0.00    +0.000 NA
ATOM     14  C   UNL     1      -0.220  10.816  21.584  0.00  0.00    +0.000 A 
ENDROOT
BRANCH   1  19
ATOM     15  C   UNL     1      -3.085  16.309  21.776  0.00  0.00    +0.000 C 
ATOM     16  N   UNL     1      -2.650  15.244  20.878  0.00  0.00    +0.000 NA
ATOM     17  C   UNL     1      -3.218  13.937  21.288  0.00  0.00    +0.000 C 
ATOM     18  C   UNL     1      -2.746  12.763  20.390  0.00  0.00    +0.000 C 
ATOM     19  N   UNL     1      -1.268  12.726  20.365  0.00  0.00    +0.000 N 
ATOM     20  C   UNL     1      -0.688  14.014  19.934  0.00  0.00    +0.000 C 
ATOM     21  C   UNL     1      -1.176  15.147  20.858  0.00  0.00    +0.000 C 
ENDBRANCH   1  19
TORSDOF 1
ENDMDL
