MODEL 1
REMARK VINA RESULT:      -8.5      0.000      0.000
REMARK  Name = 
REMARK  7 active torsions:
REMARK  status: ('A' for Active; 'I' for Inactive)
REMARK    1  A    between atoms: C_1  and  C_2
REMARK    2  A    between atoms: C_2  and  O_3
REMARK    3  A    between atoms: O_3  and  C_4
REMARK    4  A    between atoms: C_4  and  C_6
REMARK    5  A    between atoms: C_10  and  C_11
REMARK    6  A    between atoms: C_19  and  N_20
REMARK    7  A    between atoms: N_20  and  C_21
REMARK                            x       y       z     vdW  Elec       q    Type
REMARK                         _______ _______ _______ _____ _____    ______ ____
ROOT
ATOM      1  C   UNL     1       6.102   4.881  17.678  0.00  0.00    +0.000 A 
ATOM      2  N   UNL     1       5.631   4.227  18.784  0.00  0.00    +0.000 NA
ATOM      3  C   UNL     1       4.309   4.173  18.940  0.00  0.00    +0.000 A 
ATOM      4  C   UNL     1       3.810   3.531  20.055  0.00  0.00    +0.000 A 
ATOM      5  C   UNL     1       2.439   3.514  20.336  0.00  0.00    +0.000 A 
ATOM      6  C   UNL     1       1.568   4.138  19.438  0.00  0.00    +0.000 A 
ATOM      7  C   UNL     1       2.073   4.752  18.284  0.00  0.00    +0.000 A 
ATOM      8  C   UNL     1       3.434   4.779  18.016  0.00  0.00    +0.000 A 
ATOM      9  N   UNL     1       3.910   5.368  16.908  0.00  0.00    +0.000 NA
ATOM     10  C   UNL     1       5.256   5.405  16.696  0.00  0.00    +0.000 A 
ENDROOT
BRANCH   5  11
ATOM     11  C   UNL     1       1.932   2.864  21.597  0.00  0.00    +0.000 C 
ATOM     12  F   UNL     1       0.587   2.636  21.586  0.00  0.00    +0.000 F 
ATOM     13  F   UNL     1       2.512   1.655  21.822  0.00  0.00    +0.000 F 
ATOM     14  F   UNL     1       2.173   3.615  22.705  0.00  0.00    +0.000 F 
ENDBRANCH   5  11
BRANCH   1  15
ATOM     15  C   UNL     1       7.582   4.999  17.593  0.00  0.00    +0.000 C 
ATOM     16  O   UNL     1       8.367   4.073  17.773  0.00  0.00    +0.000 OA
BRANCH  15  17
ATOM     17  O   UNL     1       7.910   6.280  17.292  0.00  0.00    +0.000 OA
BRANCH  17  19
ATOM     18  C   UNL     1       8.062   8.641  17.828  0.00  0.00    +0.000 C 
ATOM     19  C   UNL     1       7.974   7.224  18.361  0.00  0.00    +0.000 C 
ENDBRANCH  17  19
ENDBRANCH  15  17
ENDBRANCH   1  15
BRANCH  10  20
ATOM     20  N   UNL     1       5.723   5.868  15.447  0.00  0.00    +0.000 N 
ATOM     21  H   UNL     1       5.396   6.798  15.194  0.00  0.00    +0.000 HD
BRANCH  20  22
ATOM     22  C   UNL     1       6.207   5.062  14.395  0.00  0.00    +0.000 A 
ATOM     23  C   UNL     1       7.429   5.345  13.773  0.00  0.00    +0.000 A 
ATOM     24  C   UNL     1       7.815   4.642  12.623  0.00  0.00    +0.000 A 
ATOM     25  C   UNL     1       6.988   3.654  12.102  0.00  0.00    +0.000 A 
ATOM     26  F   UNL     1       7.333   3.026  10.972  0.00  0.00    +0.000 F 
ATOM     27  C   UNL     1       5.801   3.320  12.731  0.00  0.00    +0.000 A 
ATOM     28  C   UNL     1       5.423   4.015  13.877  0.00  0.00    +0.000 A 
ENDBRANCH  20  22
ENDBRANCH  10  20
TORSDOF 6
ENDMDL
MODEL 2
REMARK VINA RESULT:      -8.3      1.336      1.874
REMARK  Name = 
REMARK  7 active torsions:
REMARK  status: ('A' for Active; 'I' for Inactive)
REMARK    1  A    between atoms: C_1  and  C_2
REMARK    2  A    between atoms: C_2  and  O_3
REMARK    3  A    between atoms: O_3  and  C_4
REMARK    4  A    between atoms: C_4  and  C_6
REMARK    5  A    between atoms: C_10  and  C_11
REMARK    6  A    between atoms: C_19  and  N_20
REMARK    7  A    between atoms: N_20  and  C_21
REMARK                            x       y       z     vdW  Elec       q    Type
REMARK                         _______ _______ _______ _____ _____    ______ ____
ROOT
ATOM      1  C   UNL     1       6.368   4.936  18.122  0.00  0.00    +0.000 A 
ATOM      2  N   UNL     1       5.411   4.829  19.095  0.00  0.00    +0.000 NA
ATOM      3  C   UNL     1       4.262   4.249  18.754  0.00  0.00    +0.000 A 
ATOM      4  C   UNL     1       3.275   4.141  19.714  0.00  0.00    +0.000 A 
ATOM      5  C   UNL     1       2.010   3.630  19.407  0.00  0.00    +0.000 A 
ATOM      6  C   UNL     1       1.767   3.192  18.101  0.00  0.00    +0.000 A 
ATOM      7  C   UNL     1       2.783   3.262  17.139  0.00  0.00    +0.000 A 
ATOM      8  C   UNL     1       4.033   3.783  17.444  0.00  0.00    +0.000 A 
ATOM      9  N   UNL     1       5.001   3.845  16.516  0.00  0.00    +0.000 NA
ATOM     10  C   UNL     1       6.204   4.396  16.843  0.00  0.00    +0.000 A 
ENDROOT
BRANCH   5  11
ATOM     11  C   UNL     1       0.933   3.590  20.460  0.00  0.00    +0.000 C 
ATOM     12  F   UNL     1       1.347   3.036  21.636  0.00  0.00    +0.000 F 
ATOM     13  F   UNL     1       0.476   4.831  20.775  0.00  0.00    +0.000 F 
ATOM     14  F   UNL     1      -0.153   2.871  20.071  0.00  0.00    +0.000 F 
ENDBRANCH   5  11
BRANCH   1  15
ATOM     15  C   UNL     1       7.596   5.673  18.520  0.00  0.00    +0.000 C 
ATOM     16  O   UNL     1       8.182   5.529  19.589  0.00  0.00    +0.000 OA
BRANCH  15  17
ATOM     17  O   UNL     1       7.952   6.518  17.520  0.00  0.00    +0.000 OA
BRANCH  17  19
ATOM     18  C   UNL     1       8.317   8.848  18.090  0.00  0.00    +0.000 C 
ATOM     19  C   UNL     1       7.367   7.821  17.504  0.00  0.00    +0.000 C 
ENDBRANCH  17  19
ENDBRANCH  15  17
ENDBRANCH   1  15
BRANCH  10  20
ATOM     20  N   UNL     1       7.262   4.291  15.913  0.00  0.00    +0.000 N 
ATOM     21  H   UNL     1       8.191   4.335  16.326  0.00  0.00    +0.000 HD
BRANCH  20  22
ATOM     22  C   UNL     1       7.173   4.550  14.529  0.00  0.00    +0.000 A 
ATOM     23  C   UNL     1       6.410   3.730  13.689  0.00  0.00    +0.000 A 
ATOM     24  C   UNL     1       6.466   3.896  12.298  0.00  0.00    +0.000 A 
ATOM     25  C   UNL     1       7.276   4.883  11.749  0.00  0.00    +0.000 A 
ATOM     26  F   UNL     1       7.373   5.000  10.419  0.00  0.00    +0.000 F 
ATOM     27  C   UNL     1       7.998   5.741  12.561  0.00  0.00    +0.000 A 
ATOM     28  C   UNL     1       7.934   5.578  13.943  0.00  0.00    +0.000 A 
ENDBRANCH  20  22
ENDBRANCH  10  20
TORSDOF 6
ENDMDL
MODEL 3
REMARK VINA RESULT:      -8.0      3.520      4.825
REMARK  Name = 
REMARK  7 active torsions:
REMARK  status: ('A' for Active; 'I' for Inactive)
REMARK    1  A    between atoms: C_1  and  C_2
REMARK    2  A    between atoms: C_2  and  O_3
REMARK    3  A    between atoms: O_3  and  C_4
REMARK    4  A    between atoms: C_4  and  C_6
REMARK    5  A    between atoms: C_10  and  C_11
REMARK    6  A    between atoms: C_19  and  N_20
REMARK    7  A    between atoms: N_20  and  C_21
REMARK                            x       y       z     vdW  Elec       q    Type
REMARK                         _______ _______ _______ _____ _____    ______ ____
ROOT
ATOM      1  C   UNL     1       3.505   4.372  19.208  0.00  0.00    +0.000 A 
ATOM      2  N   UNL     1       2.753   5.189  20.007  0.00  0.00    +0.000 NA
ATOM      3  C   UNL     1       2.438   6.390  19.522  0.00  0.00    +0.000 A 
ATOM      4  C   UNL     1       1.691   7.238  20.314  0.00  0.00    +0.000 A 
ATOM      5  C   UNL     1       1.402   8.547  19.913  0.00  0.00    +0.000 A 
ATOM      6  C   UNL     1       1.860   8.977  18.664  0.00  0.00    +0.000 A 
ATOM      7  C   UNL     1       2.582   8.100  17.843  0.00  0.00    +0.000 A 
ATOM      8  C   UNL     1       2.879   6.808  18.250  0.00  0.00    +0.000 A 
ATOM      9  N   UNL     1       3.569   5.974  17.457  0.00  0.00    +0.000 NA
ATOM     10  C   UNL     1       3.873   4.723  17.905  0.00  0.00    +0.000 A 
ENDROOT
BRANCH   5  11
ATOM     11  C   UNL     1       0.643   9.470  20.831  0.00  0.00    +0.000 C 
ATOM     12  F   UNL     1      -0.181  10.333  20.170  0.00  0.00    +0.000 F 
ATOM     13  F   UNL     1      -0.151   8.792  21.702  0.00  0.00    +0.000 F 
ATOM     14  F   UNL     1       1.464  10.245  21.588  0.00  0.00    +0.000 F 
ENDBRANCH   5  11
BRANCH   1  15
ATOM     15  C   UNL     1       3.911   3.082  19.825  0.00  0.00    +0.000 C 
ATOM     16  O   UNL     1       5.073   2.735  20.017  0.00  0.00    +0.000 OA
BRANCH  15  17
ATOM     17  O   UNL     1       2.800   2.366  20.132  0.00  0.00    +0.000 OA
BRANCH  17  19
ATOM     18  C   UNL     1       0.643   2.405  19.024  0.00  0.00    +0.000 C 
ATOM     19  C   UNL     1       2.040   1.815  19.056  0.00  0.00    +0.000 C 
ENDBRANCH  17  19
ENDBRANCH  15  17
ENDBRANCH   1  15
BRANCH  10  20
ATOM     20  N   UNL     1       4.440   3.806  16.994  0.00  0.00    +0.000 N 
ATOM     21  H   UNL     1       4.333   2.829  17.259  0.00  0.00    +0.000 HD
BRANCH  20  22
ATOM     22  C   UNL     1       5.445   4.097  16.048  0.00  0.00    +0.000 A 
ATOM     23  C   UNL     1       6.641   4.715  16.432  0.00  0.00    +0.000 A 
ATOM     24  C   UNL     1       7.555   5.150  15.462  0.00  0.00    +0.000 A 
ATOM     25  C   UNL     1       7.279   4.960  14.113  0.00  0.00    +0.000 A 
ATOM     26  F   UNL     1       8.126   5.429  13.189  0.00  0.00    +0.000 F 
ATOM     27  C   UNL     1       6.129   4.303  13.711  0.00  0.00    +0.000 A 
ATOM     28  C   UNL     1       5.226   3.866  14.678  0.00  0.00    +0.000 A 
ENDBRANCH  20  22
ENDBRANCH  10  20
TORSDOF 6
ENDMDL
MODEL 4
REMARK VINA RESULT:      -7.9      1.109      1.614
REMARK  Name = 
REMARK  7 active torsions:
REMARK  status: ('A' for Active; 'I' for Inactive)
REMARK    1  A    between atoms: C_1  and  C_2
REMARK    2  A    between atoms: C_2  and  O_3
REMARK    3  A    between atoms: O_3  and  C_4
REMARK    4  A    between atoms: C_4  and  C_6
REMARK    5  A    between atoms: C_10  and  C_11
REMARK    6  A    between atoms: C_19  and  N_20
REMARK    7  A    between atoms: N_20  and  C_21
REMARK                            x       y       z     vdW  Elec       q    Type
REMARK                         _______ _______ _______ _____ _____    ______ ____
ROOT
ATOM      1  C   UNL     1       6.391   5.836  17.903  0.00  0.00    +0.000 A 
ATOM      2  N   UNL     1       5.599   5.514  18.972  0.00  0.00    +0.000 NA
ATOM      3  C   UNL     1       4.432   4.930  18.706  0.00  0.00    +0.000 A 
ATOM      4  C   UNL     1       3.609   4.607  19.766  0.00  0.00    +0.000 A 
ATOM      5  C   UNL     1       2.329   4.078  19.563  0.00  0.00    +0.000 A 
ATOM      6  C   UNL     1       1.905   3.848  18.251  0.00  0.00    +0.000 A 
ATOM      7  C   UNL     1       2.759   4.136  17.178  0.00  0.00    +0.000 A 
ATOM      8  C   UNL     1       4.021   4.673  17.383  0.00  0.00    +0.000 A 
ATOM      9  N   UNL     1       4.833   4.945  16.350  0.00  0.00    +0.000 NA
ATOM     10  C   UNL     1       6.053   5.506  16.588  0.00  0.00    +0.000 A 
ENDROOT
BRANCH   5  11
ATOM     11  C   UNL     1       1.428   3.801  20.739  0.00  0.00    +0.000 C 
ATOM     12  F   UNL     1       0.936   2.529  20.755  0.00  0.00    +0.000 F 
ATOM     13  F   UNL     1       2.068   3.967  21.927  0.00  0.00    +0.000 F 
ATOM     14  F   UNL     1       0.344   4.621  20.772  0.00  0.00    +0.000 F 
ENDBRANCH   5  11
BRANCH   1  15
ATOM     15  C   UNL     1       7.640   6.570  18.239  0.00  0.00    +0.000 C 
ATOM     16  O   UNL     1       8.363   6.316  19.198  0.00  0.00    +0.000 OA
BRANCH  15  17
ATOM     17  O   UNL     1       7.839   7.553  17.325  0.00  0.00    +0.000 OA
BRANCH  17  19
ATOM     18  C   UNL     1       8.688   9.588  18.335  0.00  0.00    +0.000 C 
ATOM     19  C   UNL     1       7.504   8.890  17.696  0.00  0.00    +0.000 C 
ENDBRANCH  17  19
ENDBRANCH  15  17
ENDBRANCH   1  15
BRANCH  10  20
ATOM     20  N   UNL     1       6.958   5.619  15.510  0.00  0.00    +0.000 N 
ATOM     21  H   UNL     1       7.527   6.462  15.526  0.00  0.00    +0.000 HD
BRANCH  20  22
ATOM     22  C   UNL     1       6.858   4.948  14.273  0.00  0.00    +0.000 A 
ATOM     23  C   UNL     1       6.015   3.841  14.119  0.00  0.00    +0.000 A 
ATOM     24  C   UNL     1       6.051   3.083  12.940  0.00  0.00    +0.000 A 
ATOM     25  C   UNL     1       6.922   3.435  11.916  0.00  0.00    +0.000 A 
ATOM     26  F   UNL     1       6.997   2.676  10.816  0.00  0.00    +0.000 F 
ATOM     27  C   UNL     1       7.727   4.557  12.023  0.00  0.00    +0.000 A 
ATOM     28  C   UNL     1       7.682   5.311  13.193  0.00  0.00    +0.000 A 
ENDBRANCH  20  22
ENDBRANCH  10  20
TORSDOF 6
ENDMDL
MODEL 5
REMARK VINA RESULT:      -7.8      3.468      4.834
REMARK  Name = 
REMARK  7 active torsions:
REMARK  status: ('A' for Active; 'I' for Inactive)
REMARK    1  A    between atoms: C_1  and  C_2
REMARK    2  A    between atoms: C_2  and  O_3
REMARK    3  A    between atoms: O_3  and  C_4
REMARK    4  A    between atoms: C_4  and  C_6
REMARK    5  A    between atoms: C_10  and  C_11
REMARK    6  A    between atoms: C_19  and  N_20
REMARK    7  A    between atoms: N_20  and  C_21
REMARK                            x       y       z     vdW  Elec       q    Type
REMARK                         _______ _______ _______ _____ _____    ______ ____
ROOT
ATOM      1  C   UNL     1       3.614   4.409  19.177  0.00  0.00    +0.000 A 
ATOM      2  N   UNL     1       2.813   5.193  19.961  0.00  0.00    +0.000 NA
ATOM      3  C   UNL     1       2.506   6.403  19.496  0.00  0.00    +0.000 A 
ATOM      4  C   UNL     1       1.710   7.219  20.275  0.00  0.00    +0.000 A 
ATOM      5  C   UNL     1       1.422   8.535  19.897  0.00  0.00    +0.000 A 
ATOM      6  C   UNL     1       1.934   9.007  18.685  0.00  0.00    +0.000 A 
ATOM      7  C   UNL     1       2.707   8.164  17.875  0.00  0.00    +0.000 A 
ATOM      8  C   UNL     1       3.001   6.863  18.259  0.00  0.00    +0.000 A 
ATOM      9  N   UNL     1       3.740   6.062  17.477  0.00  0.00    +0.000 NA
ATOM     10  C   UNL     1       4.039   4.802  17.904  0.00  0.00    +0.000 A 
ENDROOT
BRANCH   5  11
ATOM     11  C   UNL     1       0.607   9.422  20.803  0.00  0.00    +0.000 C 
ATOM     12  F   UNL     1       1.211  10.614  21.079  0.00  0.00    +0.000 F 
ATOM     13  F   UNL     1      -0.602   9.734  20.265  0.00  0.00    +0.000 F 
ATOM     14  F   UNL     1       0.351   8.846  22.007  0.00  0.00    +0.000 F 
ENDBRANCH   5  11
BRANCH   1  15
ATOM     15  C   UNL     1       4.007   3.107  19.776  0.00  0.00    +0.000 C 
ATOM     16  O   UNL     1       5.165   2.750  19.974  0.00  0.00    +0.000 OA
BRANCH  15  17
ATOM     17  O   UNL     1       2.890   2.391  20.060  0.00  0.00    +0.000 OA
BRANCH  17  19
ATOM     18  C   UNL     1       0.754   2.381  18.912  0.00  0.00    +0.000 C 
ATOM     19  C   UNL     1       2.163   1.824  18.970  0.00  0.00    +0.000 C 
ENDBRANCH  17  19
ENDBRANCH  15  17
ENDBRANCH   1  15
BRANCH  10  20
ATOM     20  N   UNL     1       4.663   3.919  16.996  0.00  0.00    +0.000 N 
ATOM     21  H   UNL     1       4.831   2.986  17.366  0.00  0.00    +0.000 HD
BRANCH  20  22
ATOM     22  C   UNL     1       5.414   4.294  15.863  0.00  0.00    +0.000 A 
ATOM     23  C   UNL     1       5.014   3.917  14.575  0.00  0.00    +0.000 A 
ATOM     24  C   UNL     1       5.855   4.150  13.478  0.00  0.00    +0.000 A 
ATOM     25  C   UNL     1       7.088   4.764  13.666  0.00  0.00    +0.000 A 
ATOM     26  F   UNL     1       7.913   4.931  12.625  0.00  0.00    +0.000 F 
ATOM     27  C   UNL     1       7.482   5.194  14.921  0.00  0.00    +0.000 A 
ATOM     28  C   UNL     1       6.640   4.968  16.008  0.00  0.00    +0.000 A 
ENDBRANCH  20  22
ENDBRANCH  10  20
TORSDOF 6
ENDMDL
MODEL 6
REMARK VINA RESULT:      -7.7      1.347      7.238
REMARK  Name = 
REMARK  7 active torsions:
REMARK  status: ('A' for Active; 'I' for Inactive)
REMARK    1  A    between atoms: C_1  and  C_2
REMARK    2  A    between atoms: C_2  and  O_3
REMARK    3  A    between atoms: O_3  and  C_4
REMARK    4  A    between atoms: C_4  and  C_6
REMARK    5  A    between atoms: C_10  and  C_11
REMARK    6  A    between atoms: C_19  and  N_20
REMARK    7  A    between atoms: N_20  and  C_21
REMARK                            x       y       z     vdW  Elec       q    Type
REMARK                         _______ _______ _______ _____ _____    ______ ____
ROOT
ATOM      1  C   UNL     1       6.762   5.481  17.899  0.00  0.00    +0.000 A 
ATOM      2  N   UNL     1       7.335   5.430  16.657  0.00  0.00    +0.000 NA
ATOM      3  C   UNL     1       6.593   4.939  15.666  0.00  0.00    +0.000 A 
ATOM      4  C   UNL     1       7.153   4.864  14.407  0.00  0.00    +0.000 A 
ATOM      5  C   UNL     1       6.470   4.274  13.337  0.00  0.00    +0.000 A 
ATOM      6  C   UNL     1       5.180   3.785  13.560  0.00  0.00    +0.000 A 
ATOM      7  C   UNL     1       4.596   3.900  14.829  0.00  0.00    +0.000 A 
ATOM      8  C   UNL     1       5.281   4.474  15.890  0.00  0.00    +0.000 A 
ATOM      9  N   UNL     1       4.714   4.582  17.101  0.00  0.00    +0.000 NA
ATOM     10  C   UNL     1       5.432   5.118  18.130  0.00  0.00    +0.000 A 
ENDROOT
BRANCH   5  11
ATOM     11  C   UNL     1       7.137   4.146  11.992  0.00  0.00    +0.000 C 
ATOM     12  F   UNL     1       7.862   2.999  11.855  0.00  0.00    +0.000 F 
ATOM     13  F   UNL     1       6.238   4.140  10.971  0.00  0.00    +0.000 F 
ATOM     14  F   UNL     1       7.998   5.165  11.735  0.00  0.00    +0.000 F 
ENDBRANCH   5  11
BRANCH   1  15
ATOM     15  C   UNL     1       7.656   5.948  18.991  0.00  0.00    +0.000 C 
ATOM     16  O   UNL     1       7.721   5.439  20.106  0.00  0.00    +0.000 OA
BRANCH  15  17
ATOM     17  O   UNL     1       8.374   7.014  18.555  0.00  0.00    +0.000 OA
BRANCH  17  19
ATOM     18  C   UNL     1       8.442   9.400  18.124  0.00  0.00    +0.000 C 
ATOM     19  C   UNL     1       7.662   8.108  17.975  0.00  0.00    +0.000 C 
ENDBRANCH  17  19
ENDBRANCH  15  17
ENDBRANCH   1  15
BRANCH  10  20
ATOM     20  N   UNL     1       4.762   5.385  19.343  0.00  0.00    +0.000 N 
ATOM     21  H   UNL     1       5.291   5.958  19.998  0.00  0.00    +0.000 HD
BRANCH  20  22
ATOM     22  C   UNL     1       3.694   4.636  19.880  0.00  0.00    +0.000 A 
ATOM     23  C   UNL     1       2.463   5.239  20.167  0.00  0.00    +0.000 A 
ATOM     24  C   UNL     1       1.470   4.526  20.854  0.00  0.00    +0.000 A 
ATOM     25  C   UNL     1       1.704   3.213  21.246  0.00  0.00    +0.000 A 
ATOM     26  F   UNL     1       0.777   2.555  21.953  0.00  0.00    +0.000 F 
ATOM     27  C   UNL     1       2.892   2.579  20.927  0.00  0.00    +0.000 A 
ATOM     28  C   UNL     1       3.874   3.288  20.238  0.00  0.00    +0.000 A 
ENDBRANCH  20  22
ENDBRANCH  10  20
TORSDOF 6
ENDMDL
MODEL 7
REMARK VINA RESULT:      -7.6      4.251      8.196
REMARK  Name = 
REMARK  7 active torsions:
REMARK  status: ('A' for Active; 'I' for Inactive)
REMARK    1  A    between atoms: C_1  and  C_2
REMARK    2  A    between atoms: C_2  and  O_3
REMARK    3  A    between atoms: O_3  and  C_4
REMARK    4  A    between atoms: C_4  and  C_6
REMARK    5  A    between atoms: C_10  and  C_11
REMARK    6  A    between atoms: C_19  and  N_20
REMARK    7  A    between atoms: N_20  and  C_21
REMARK                            x       y       z     vdW  Elec       q    Type
REMARK                         _______ _______ _______ _____ _____    ______ ____
ROOT
ATOM      1  C   UNL     1       2.296   4.963  19.321  0.00  0.00    +0.000 A 
ATOM      2  N   UNL     1       2.968   4.298  18.332  0.00  0.00    +0.000 NA
ATOM      3  C   UNL     1       3.752   5.025  17.537  0.00  0.00    +0.000 A 
ATOM      4  C   UNL     1       4.430   4.379  16.523  0.00  0.00    +0.000 A 
ATOM      5  C   UNL     1       5.198   5.087  15.591  0.00  0.00    +0.000 A 
ATOM      6  C   UNL     1       5.295   6.475  15.726  0.00  0.00    +0.000 A 
ATOM      7  C   UNL     1       4.641   7.124  16.782  0.00  0.00    +0.000 A 
ATOM      8  C   UNL     1       3.870   6.420  17.696  0.00  0.00    +0.000 A 
ATOM      9  N   UNL     1       3.248   7.049  18.705  0.00  0.00    +0.000 NA
ATOM     10  C   UNL     1       2.469   6.329  19.562  0.00  0.00    +0.000 A 
ENDROOT
BRANCH   5  11
ATOM     11  C   UNL     1       5.869   4.361  14.454  0.00  0.00    +0.000 C 
ATOM     12  F   UNL     1       5.023   4.063  13.428  0.00  0.00    +0.000 F 
ATOM     13  F   UNL     1       6.879   5.088  13.904  0.00  0.00    +0.000 F 
ATOM     14  F   UNL     1       6.418   3.179  14.841  0.00  0.00    +0.000 F 
ENDBRANCH   5  11
BRANCH   1  15
ATOM     15  C   UNL     1       1.362   4.129  20.123  0.00  0.00    +0.000 C 
ATOM     16  O   UNL     1       0.323   3.637  19.694  0.00  0.00    +0.000 OA
BRANCH  15  17
ATOM     17  O   UNL     1       1.843   4.010  21.386  0.00  0.00    +0.000 OA
BRANCH  17  19
ATOM     18  C   UNL     1       3.433   2.194  21.151  0.00  0.00    +0.000 C 
ATOM     19  C   UNL     1       2.188   2.704  21.850  0.00  0.00    +0.000 C 
ENDBRANCH  17  19
ENDBRANCH  15  17
ENDBRANCH   1  15
BRANCH  10  20
ATOM     20  N   UNL     1       1.971   6.975  20.714  0.00  0.00    +0.000 N 
ATOM     21  H   UNL     1       1.735   6.347  21.479  0.00  0.00    +0.000 HD
BRANCH  20  22
ATOM     22  C   UNL     1       1.399   8.264  20.757  0.00  0.00    +0.000 A 
ATOM     23  C   UNL     1       1.018   8.844  21.973  0.00  0.00    +0.000 A 
ATOM     24  C   UNL     1       0.300  10.048  21.987  0.00  0.00    +0.000 A 
ATOM     25  C   UNL     1      -0.031  10.674  20.790  0.00  0.00    +0.000 A 
ATOM     26  F   UNL     1      -0.767  11.791  20.805  0.00  0.00    +0.000 F 
ATOM     27  C   UNL     1       0.382  10.147  19.578  0.00  0.00    +0.000 A 
ATOM     28  C   UNL     1       1.102   8.955  19.568  0.00  0.00    +0.000 A 
ENDBRANCH  20  22
ENDBRANCH  10  20
TORSDOF 6
ENDMDL
MODEL 8
REMARK VINA RESULT:      -7.6      1.013      1.113
REMARK  Name = 
REMARK  7 active torsions:
REMARK  status: ('A' for Active; 'I' for Inactive)
REMARK    1  A    between atoms: C_1  and  C_2
REMARK    2  A    between atoms: C_2  and  O_3
REMARK    3  A    between atoms: O_3  and  C_4
REMARK    4  A    between atoms: C_4  and  C_6
REMARK    5  A    between atoms: C_10  and  C_11
REMARK    6  A    between atoms: C_19  and  N_20
REMARK    7  A    between atoms: N_20  and  C_21
REMARK                            x       y       z     vdW  Elec       q    Type
REMARK                         _______ _______ _______ _____ _____    ______ ____
ROOT
ATOM      1  C   UNL     1       6.345   5.826  17.930  0.00  0.00    +0.000 A 
ATOM      2  N   UNL     1       5.644   5.375  19.015  0.00  0.00    +0.000 NA
ATOM      3  C   UNL     1       4.461   4.809  18.781  0.00  0.00    +0.000 A 
ATOM      4  C   UNL     1       3.728   4.359  19.860  0.00  0.00    +0.000 A 
ATOM      5  C   UNL     1       2.438   3.840  19.702  0.00  0.00    +0.000 A 
ATOM      6  C   UNL     1       1.908   3.754  18.411  0.00  0.00    +0.000 A 
ATOM      7  C   UNL     1       2.671   4.172  17.312  0.00  0.00    +0.000 A 
ATOM      8  C   UNL     1       3.944   4.699  17.474  0.00  0.00    +0.000 A 
ATOM      9  N   UNL     1       4.668   5.096  16.416  0.00  0.00    +0.000 NA
ATOM     10  C   UNL     1       5.902   5.641  16.617  0.00  0.00    +0.000 A 
ENDROOT
BRANCH   5  11
ATOM     11  C   UNL     1       1.637   3.421  20.907  0.00  0.00    +0.000 C 
ATOM     12  F   UNL     1       0.351   3.874  20.887  0.00  0.00    +0.000 F 
ATOM     13  F   UNL     1       1.552   2.068  21.023  0.00  0.00    +0.000 F 
ATOM     14  F   UNL     1       2.172   3.870  22.073  0.00  0.00    +0.000 F 
ENDBRANCH   5  11
BRANCH   1  15
ATOM     15  C   UNL     1       7.614   6.533  18.245  0.00  0.00    +0.000 C 
ATOM     16  O   UNL     1       8.345   6.266  19.195  0.00  0.00    +0.000 OA
BRANCH  15  17
ATOM     17  O   UNL     1       7.823   7.507  17.324  0.00  0.00    +0.000 OA
BRANCH  17  19
ATOM     18  C   UNL     1       8.634   9.620  18.194  0.00  0.00    +0.000 C 
ATOM     19  C   UNL     1       7.446   8.842  17.664  0.00  0.00    +0.000 C 
ENDBRANCH  17  19
ENDBRANCH  15  17
ENDBRANCH   1  15
BRANCH  10  20
ATOM     20  N   UNL     1       6.715   5.887  15.490  0.00  0.00    +0.000 N 
ATOM     21  H   UNL     1       6.967   6.864  15.358  0.00  0.00    +0.000 HD
BRANCH  20  22
ATOM     22  C   UNL     1       6.847   5.044  14.366  0.00  0.00    +0.000 A 
ATOM     23  C   UNL     1       7.626   5.424  13.267  0.00  0.00    +0.000 A 
ATOM     24  C   UNL     1       7.612   4.658  12.093  0.00  0.00    +0.000 A 
ATOM     25  C   UNL     1       6.828   3.513  12.020  0.00  0.00    +0.000 A 
ATOM     26  F   UNL     1       6.772   2.817  10.877  0.00  0.00    +0.000 F 
ATOM     27  C   UNL     1       6.091   3.088  13.112  0.00  0.00    +0.000 A 
ATOM     28  C   UNL     1       6.113   3.847  14.280  0.00  0.00    +0.000 A 
ENDBRANCH  20  22
ENDBRANCH  10  20
TORSDOF 6
ENDMDL
MODEL 9
REMARK VINA RESULT:      -7.6      4.338      8.230
REMARK  Name = 
REMARK  7 active torsions:
REMARK  status: ('A' for Active; 'I' for Inactive)
REMARK    1  A    between atoms: C_1  and  C_2
REMARK    2  A    between atoms: C_2  and  O_3
REMARK    3  A    between atoms: O_3  and  C_4
REMARK    4  A    between atoms: C_4  and  C_6
REMARK    5  A    between atoms: C_10  and  C_11
REMARK    6  A    between atoms: C_19  and  N_20
REMARK    7  A    between atoms: N_20  and  C_21
REMARK                            x       y       z     vdW  Elec       q    Type
REMARK                         _______ _______ _______ _____ _____    ______ ____
ROOT
ATOM      1  C   UNL     1       2.692   5.293  19.680  0.00  0.00    +0.000 A 
ATOM      2  N   UNL     1       3.382   4.556  18.757  0.00  0.00    +0.000 NA
ATOM      3  C   UNL     1       3.983   5.224  17.773  0.00  0.00    +0.000 A 
ATOM      4  C   UNL     1       4.674   4.501  16.821  0.00  0.00    +0.000 A 
ATOM      5  C   UNL     1       5.250   5.124  15.708  0.00  0.00    +0.000 A 
ATOM      6  C   UNL     1       5.142   6.512  15.591  0.00  0.00    +0.000 A 
ATOM      7  C   UNL     1       4.476   7.249  16.581  0.00  0.00    +0.000 A 
ATOM      8  C   UNL     1       3.895   6.627  17.676  0.00  0.00    +0.000 A 
ATOM      9  N   UNL     1       3.261   7.340  18.620  0.00  0.00    +0.000 NA
ATOM     10  C   UNL     1       2.670   6.691  19.663  0.00  0.00    +0.000 A 
ENDROOT
BRANCH   5  11
ATOM     11  C   UNL     1       5.938   4.299  14.651  0.00  0.00    +0.000 C 
ATOM     12  F   UNL     1       5.175   4.099  13.539  0.00  0.00    +0.000 F 
ATOM     13  F   UNL     1       7.088   4.879  14.213  0.00  0.00    +0.000 F 
ATOM     14  F   UNL     1       6.281   3.061  15.095  0.00  0.00    +0.000 F 
ENDBRANCH   5  11
BRANCH   1  15
ATOM     15  C   UNL     1       1.961   4.501  20.704  0.00  0.00    +0.000 C 
ATOM     16  O   UNL     1       2.358   4.304  21.849  0.00  0.00    +0.000 OA
BRANCH  15  17
ATOM     17  O   UNL     1       0.802   4.041  20.169  0.00  0.00    +0.000 OA
BRANCH  17  19
ATOM     18  C   UNL     1       0.809   2.215  18.572  0.00  0.00    +0.000 C 
ATOM     19  C   UNL     1       0.647   2.629  20.021  0.00  0.00    +0.000 C 
ENDBRANCH  17  19
ENDBRANCH  15  17
ENDBRANCH   1  15
BRANCH  10  20
ATOM     20  N   UNL     1       2.165   7.464  20.732  0.00  0.00    +0.000 N 
ATOM     21  H   UNL     1       2.279   7.038  21.649  0.00  0.00    +0.000 HD
BRANCH  20  22
ATOM     22  C   UNL     1       1.202   8.489  20.627  0.00  0.00    +0.000 A 
ATOM     23  C   UNL     1       1.070   9.237  19.451  0.00  0.00    +0.000 A 
ATOM     24  C   UNL     1       0.230  10.359  19.418  0.00  0.00    +0.000 A 
ATOM     25  C   UNL     1      -0.481  10.728  20.553  0.00  0.00    +0.000 A 
ATOM     26  F   UNL     1      -1.236  11.833  20.535  0.00  0.00    +0.000 F 
ATOM     27  C   UNL     1      -0.408   9.972  21.711  0.00  0.00    +0.000 A 
ATOM     28  C   UNL     1       0.421   8.854  21.739  0.00  0.00    +0.000 A 
ENDBRANCH  20  22
ENDBRANCH  10  20
TORSDOF 6
ENDMDL
