MODEL 1
REMARK VINA RESULT:      -6.8      0.000      0.000
REMARK  Name = 
REMARK  2 active torsions:
REMARK  status: ('A' for Active; 'I' for Inactive)
REMARK    1  A    between atoms: C_1  and  N_2
REMARK    2  A    between atoms: C_3  and  C_4
REMARK                            x       y       z     vdW  Elec       q    Type
REMARK                         _______ _______ _______ _____ _____    ______ ____
ROOT
ATOM      1  C   UNL     1       2.381   7.287  18.531  0.00  0.00    +0.000 C 
ATOM      2  O   UNL     1       2.370   8.278  17.806  0.00  0.00    +0.000 OA
ATOM      3  N   UNL     1       2.109   7.296  19.877  0.00  0.00    +0.000 N 
ATOM      4  C   UNL     1       1.602   8.365  20.581  0.00  0.00    +0.000 A 
ATOM      5  N   UNL     1       1.404   8.312  21.888  0.00  0.00    +0.000 NA
ATOM      6  C   UNL     1       0.752   9.458  22.255  0.00  0.00    +0.000 A 
ATOM      7  C   UNL     1       0.416  10.313  21.240  0.00  0.00    +0.000 A 
ATOM      8  S   UNL     1       1.018   9.789  19.781  0.00  0.00    +0.000 S 
ATOM      9  C   UNL     1      -0.631  11.290  21.616  0.00  0.00    +0.000 C 
ATOM     10  C   UNL     1      -1.238  10.518  22.836  0.00  0.00    +0.000 C 
ATOM     11  C   UNL     1      -0.020   9.779  23.481  0.00  0.00    +0.000 C 
ATOM     12  H   UNL     1       2.222   6.457  20.432  0.00  0.00    +0.000 HD
ENDROOT
BRANCH   1  15
ATOM     13  C   UNL     1       4.916   6.747  16.942  0.00  0.00    +0.000 C 
ATOM     14  N   UNL     1       3.937   5.743  17.320  0.00  0.00    +0.000 N 
ATOM     15  C   UNL     1       2.720   5.999  17.951  0.00  0.00    +0.000 A 
ATOM     16  C   UNL     1       2.024   4.793  17.959  0.00  0.00    +0.000 A 
ATOM     17  C   UNL     1       2.901   3.777  17.488  0.00  0.00    +0.000 A 
ATOM     18 CL   UNL     1       2.540   2.120  17.464  0.00  0.00    +0.000 Cl
ATOM     19  C   UNL     1       4.068   4.395  17.127  0.00  0.00    +0.000 A 
ATOM     20 CL   UNL     1       5.537   3.737  16.559  0.00  0.00    +0.000 Cl
ENDBRANCH   1  15
TORSDOF 1
ENDMDL
MODEL 2
REMARK VINA RESULT:      -6.6      3.924      7.417
REMARK  Name = 
REMARK  2 active torsions:
REMARK  status: ('A' for Active; 'I' for Inactive)
REMARK    1  A    between atoms: C_1  and  N_2
REMARK    2  A    between atoms: C_3  and  C_4
REMARK                            x       y       z     vdW  Elec       q    Type
REMARK                         _______ _______ _______ _____ _____    ______ ____
ROOT
ATOM      1  C   UNL     1       2.425   6.448  19.380  0.00  0.00    +0.000 C 
ATOM      2  O   UNL     1       1.681   5.587  18.918  0.00  0.00    +0.000 OA
ATOM      3  N   UNL     1       3.795   6.431  19.291  0.00  0.00    +0.000 N 
ATOM      4  C   UNL     1       4.533   5.562  18.519  0.00  0.00    +0.000 A 
ATOM      5  N   UNL     1       5.856   5.580  18.516  0.00  0.00    +0.000 NA
ATOM      6  C   UNL     1       6.280   4.717  17.542  0.00  0.00    +0.000 A 
ATOM      7  C   UNL     1       5.300   4.122  16.795  0.00  0.00    +0.000 A 
ATOM      8  S   UNL     1       3.785   4.509  17.362  0.00  0.00    +0.000 S 
ATOM      9  C   UNL     1       5.793   3.558  15.518  0.00  0.00    +0.000 C 
ATOM     10  C   UNL     1       7.109   4.397  15.390  0.00  0.00    +0.000 C 
ATOM     11  C   UNL     1       7.594   4.598  16.863  0.00  0.00    +0.000 C 
ATOM     12  H   UNL     1       4.352   7.128  19.771  0.00  0.00    +0.000 HD
ENDROOT
BRANCH   1  15
ATOM     13  C   UNL     1       1.833   9.146  18.113  0.00  0.00    +0.000 C 
ATOM     14  N   UNL     1       1.474   8.763  19.467  0.00  0.00    +0.000 N 
ATOM     15  C   UNL     1       1.839   7.571  20.092  0.00  0.00    +0.000 A 
ATOM     16  C   UNL     1       1.449   7.693  21.423  0.00  0.00    +0.000 A 
ATOM     17  C   UNL     1       0.693   8.891  21.550  0.00  0.00    +0.000 A 
ATOM     18 CL   UNL     1      -0.115   9.382  22.958  0.00  0.00    +0.000 Cl
ATOM     19  C   UNL     1       0.714   9.507  20.328  0.00  0.00    +0.000 A 
ATOM     20 CL   UNL     1      -0.057  10.933  19.795  0.00  0.00    +0.000 Cl
ENDBRANCH   1  15
TORSDOF 1
ENDMDL
MODEL 3
REMARK VINA RESULT:      -6.5      1.925      2.808
REMARK  Name = 
REMARK  2 active torsions:
REMARK  status: ('A' for Active; 'I' for Inactive)
REMARK    1  A    between atoms: C_1  and  N_2
REMARK    2  A    between atoms: C_3  and  C_4
REMARK                            x       y       z     vdW  Elec       q    Type
REMARK                         _______ _______ _______ _____ _____    ______ ____
ROOT
ATOM      1  C   UNL     1       3.020   6.056  19.523  0.00  0.00    +0.000 C 
ATOM      2  O   UNL     1       2.470   5.556  20.500  0.00  0.00    +0.000 OA
ATOM      3  N   UNL     1       2.654   7.244  18.938  0.00  0.00    +0.000 N 
ATOM      4  C   UNL     1       1.751   8.144  19.460  0.00  0.00    +0.000 A 
ATOM      5  N   UNL     1       1.417   9.251  18.818  0.00  0.00    +0.000 NA
ATOM      6  C   UNL     1       0.636   9.998  19.658  0.00  0.00    +0.000 A 
ATOM      7  C   UNL     1       0.446   9.491  20.915  0.00  0.00    +0.000 A 
ATOM      8  S   UNL     1       1.128   7.982  21.070  0.00  0.00    +0.000 S 
ATOM      9  C   UNL     1      -0.022  10.500  21.892  0.00  0.00    +0.000 C 
ATOM     10  C   UNL     1       0.446  11.788  21.135  0.00  0.00    +0.000 C 
ATOM     11  C   UNL     1       0.279  11.437  19.620  0.00  0.00    +0.000 C 
ATOM     12  H   UNL     1       3.094   7.555  18.081  0.00  0.00    +0.000 HD
ENDROOT
BRANCH   1  15
ATOM     13  C   UNL     1       2.728   4.057  17.252  0.00  0.00    +0.000 C 
ATOM     14  N   UNL     1       3.991   4.523  17.797  0.00  0.00    +0.000 N 
ATOM     15  C   UNL     1       4.133   5.353  18.909  0.00  0.00    +0.000 A 
ATOM     16  C   UNL     1       5.496   5.398  19.190  0.00  0.00    +0.000 A 
ATOM     17  C   UNL     1       6.183   4.735  18.137  0.00  0.00    +0.000 A 
ATOM     18 CL   UNL     1       7.870   4.667  17.971  0.00  0.00    +0.000 Cl
ATOM     19  C   UNL     1       5.229   4.230  17.294  0.00  0.00    +0.000 A 
ATOM     20 CL   UNL     1       5.390   3.398  15.813  0.00  0.00    +0.000 Cl
ENDBRANCH   1  15
TORSDOF 1
ENDMDL
MODEL 4
REMARK VINA RESULT:      -6.5      1.854      2.135
REMARK  Name = 
REMARK  2 active torsions:
REMARK  status: ('A' for Active; 'I' for Inactive)
REMARK    1  A    between atoms: C_1  and  N_2
REMARK    2  A    between atoms: C_3  and  C_4
REMARK                            x       y       z     vdW  Elec       q    Type
REMARK                         _______ _______ _______ _____ _____    ______ ____
ROOT
ATOM      1  C   UNL     1       2.565   6.986  18.480  0.00  0.00    +0.000 C 
ATOM      2  O   UNL     1       3.081   7.591  17.544  0.00  0.00    +0.000 OA
ATOM      3  N   UNL     1       1.911   7.579  19.532  0.00  0.00    +0.000 N 
ATOM      4  C   UNL     1       1.567   8.910  19.609  0.00  0.00    +0.000 A 
ATOM      5  N   UNL     1       0.972   9.419  20.676  0.00  0.00    +0.000 NA
ATOM      6  C   UNL     1       0.625  10.709  20.381  0.00  0.00    +0.000 A 
ATOM      7  C   UNL     1       0.895  11.131  19.107  0.00  0.00    +0.000 A 
ATOM      8  S   UNL     1       1.722   9.973  18.247  0.00  0.00    +0.000 S 
ATOM      9  C   UNL     1       0.136  12.339  18.714  0.00  0.00    +0.000 C 
ATOM     10  C   UNL     1      -1.021  12.236  19.764  0.00  0.00    +0.000 C 
ATOM     11  C   UNL     1      -0.347  11.621  21.034  0.00  0.00    +0.000 C 
ATOM     12  H   UNL     1       1.586   7.026  20.316  0.00  0.00    +0.000 HD
ENDROOT
BRANCH   1  15
ATOM     13  C   UNL     1       5.055   5.446  19.296  0.00  0.00    +0.000 C 
ATOM     14  N   UNL     1       3.766   4.849  18.993  0.00  0.00    +0.000 N 
ATOM     15  C   UNL     1       2.652   5.536  18.511  0.00  0.00    +0.000 A 
ATOM     16  C   UNL     1       1.707   4.567  18.186  0.00  0.00    +0.000 A 
ATOM     17  C   UNL     1       2.193   3.310  18.640  0.00  0.00    +0.000 A 
ATOM     18 CL   UNL     1       1.316   1.859  18.598  0.00  0.00    +0.000 Cl
ATOM     19  C   UNL     1       3.447   3.527  19.145  0.00  0.00    +0.000 A 
ATOM     20 CL   UNL     1       4.533   2.454  19.907  0.00  0.00    +0.000 Cl
ENDBRANCH   1  15
TORSDOF 1
ENDMDL
MODEL 5
REMARK VINA RESULT:      -6.5      1.969      2.207
REMARK  Name = 
REMARK  2 active torsions:
REMARK  status: ('A' for Active; 'I' for Inactive)
REMARK    1  A    between atoms: C_1  and  N_2
REMARK    2  A    between atoms: C_3  and  C_4
REMARK                            x       y       z     vdW  Elec       q    Type
REMARK                         _______ _______ _______ _____ _____    ______ ____
ROOT
ATOM      1  C   UNL     1       1.934   7.595  19.899  0.00  0.00    +0.000 C 
ATOM      2  O   UNL     1       2.114   8.192  18.841  0.00  0.00    +0.000 OA
ATOM      3  N   UNL     1       1.443   8.164  21.049  0.00  0.00    +0.000 N 
ATOM      4  C   UNL     1       0.905   9.428  21.146  0.00  0.00    +0.000 A 
ATOM      5  N   UNL     1       0.489   9.924  22.300  0.00  0.00    +0.000 NA
ATOM      6  C   UNL     1      -0.130  11.116  22.038  0.00  0.00    +0.000 A 
ATOM      7  C   UNL     1      -0.231  11.468  20.719  0.00  0.00    +0.000 A 
ATOM      8  S   UNL     1       0.565  10.385  19.740  0.00  0.00    +0.000 S 
ATOM      9  C   UNL     1      -1.253  12.508  20.464  0.00  0.00    +0.000 C 
ATOM     10  C   UNL     1      -2.108  12.314  21.762  0.00  0.00    +0.000 C 
ATOM     11  C   UNL     1      -1.069  11.917  22.862  0.00  0.00    +0.000 C 
ATOM     12  H   UNL     1       1.403   7.634  21.910  0.00  0.00    +0.000 HD
ENDROOT
BRANCH   1  15
ATOM     13  C   UNL     1       4.034   6.253  18.160  0.00  0.00    +0.000 C 
ATOM     14  N   UNL     1       3.313   5.609  19.244  0.00  0.00    +0.000 N 
ATOM     15  C   UNL     1       2.271   6.184  19.972  0.00  0.00    +0.000 A 
ATOM     16  C   UNL     1       1.752   5.171  20.774  0.00  0.00    +0.000 A 
ATOM     17  C   UNL     1       2.600   4.036  20.652  0.00  0.00    +0.000 A 
ATOM     18 CL   UNL     1       2.450   2.611  21.559  0.00  0.00    +0.000 Cl
ATOM     19  C   UNL     1       3.554   4.351  19.722  0.00  0.00    +0.000 A 
ATOM     20 CL   UNL     1       4.903   3.458  19.175  0.00  0.00    +0.000 Cl
ENDBRANCH   1  15
TORSDOF 1
ENDMDL
MODEL 6
REMARK VINA RESULT:      -6.4      1.612      1.682
REMARK  Name = 
REMARK  2 active torsions:
REMARK  status: ('A' for Active; 'I' for Inactive)
REMARK    1  A    between atoms: C_1  and  N_2
REMARK    2  A    between atoms: C_3  and  C_4
REMARK                            x       y       z     vdW  Elec       q    Type
REMARK                         _______ _______ _______ _____ _____    ______ ____
ROOT
ATOM      1  C   UNL     1       2.281   6.820  19.117  0.00  0.00    +0.000 C 
ATOM      2  O   UNL     1       2.580   7.540  18.168  0.00  0.00    +0.000 OA
ATOM      3  N   UNL     1       1.788   7.268  20.318  0.00  0.00    +0.000 N 
ATOM      4  C   UNL     1       1.377   8.557  20.580  0.00  0.00    +0.000 A 
ATOM      5  N   UNL     1       0.951   8.925  21.777  0.00  0.00    +0.000 NA
ATOM      6  C   UNL     1       0.472  10.203  21.671  0.00  0.00    +0.000 A 
ATOM      7  C   UNL     1       0.481  10.749  20.416  0.00  0.00    +0.000 A 
ATOM      8  S   UNL     1       1.216   9.737  19.319  0.00  0.00    +0.000 S 
ATOM      9  C   UNL     1      -0.413  11.920  20.277  0.00  0.00    +0.000 C 
ATOM     10  C   UNL     1      -1.354  11.637  21.496  0.00  0.00    +0.000 C 
ATOM     11  C   UNL     1      -0.425  10.975  22.566  0.00  0.00    +0.000 C 
ATOM     12  H   UNL     1       1.646   6.628  21.089  0.00  0.00    +0.000 HD
ENDROOT
BRANCH   1  15
ATOM     13  C   UNL     1       4.953   5.413  19.462  0.00  0.00    +0.000 C 
ATOM     14  N   UNL     1       3.678   4.746  19.263  0.00  0.00    +0.000 N 
ATOM     15  C   UNL     1       2.467   5.385  18.993  0.00  0.00    +0.000 A 
ATOM     16  C   UNL     1       1.554   4.377  18.695  0.00  0.00    +0.000 A 
ATOM     17  C   UNL     1       2.178   3.127  18.958  0.00  0.00    +0.000 A 
ATOM     18 CL   UNL     1       1.401   1.621  18.883  0.00  0.00    +0.000 Cl
ATOM     19  C   UNL     1       3.470   3.396  19.323  0.00  0.00    +0.000 A 
ATOM     20 CL   UNL     1       4.715   2.347  19.835  0.00  0.00    +0.000 Cl
ENDBRANCH   1  15
TORSDOF 1
ENDMDL
MODEL 7
REMARK VINA RESULT:      -6.3      2.239      2.595
REMARK  Name = 
REMARK  2 active torsions:
REMARK  status: ('A' for Active; 'I' for Inactive)
REMARK    1  A    between atoms: C_1  and  N_2
REMARK    2  A    between atoms: C_3  and  C_4
REMARK                            x       y       z     vdW  Elec       q    Type
REMARK                         _______ _______ _______ _____ _____    ______ ____
ROOT
ATOM      1  C   UNL     1       2.151   6.931  19.492  0.00  0.00    +0.000 C 
ATOM      2  O   UNL     1       2.482   7.286  18.365  0.00  0.00    +0.000 OA
ATOM      3  N   UNL     1       1.704   7.772  20.482  0.00  0.00    +0.000 N 
ATOM      4  C   UNL     1       1.380   9.100  20.314  0.00  0.00    +0.000 A 
ATOM      5  N   UNL     1       0.996   9.860  21.326  0.00  0.00    +0.000 NA
ATOM      6  C   UNL     1       0.599  11.064  20.812  0.00  0.00    +0.000 A 
ATOM      7  C   UNL     1       0.626  11.177  19.448  0.00  0.00    +0.000 A 
ATOM      8  S   UNL     1       1.278   9.821  18.740  0.00  0.00    +0.000 S 
ATOM      9  C   UNL     1      -0.194  12.298  18.934  0.00  0.00    +0.000 C 
ATOM     10  C   UNL     1      -1.134  12.482  20.172  0.00  0.00    +0.000 C 
ATOM     11  C   UNL     1      -0.234  12.140  21.405  0.00  0.00    +0.000 C 
ATOM     12  H   UNL     1       1.532   7.423  21.417  0.00  0.00    +0.000 HD
ENDROOT
BRANCH   1  15
ATOM     13  C   UNL     1       4.388   5.093  18.569  0.00  0.00    +0.000 C 
ATOM     14  N   UNL     1       3.333   4.723  19.496  0.00  0.00    +0.000 N 
ATOM     15  C   UNL     1       2.242   5.522  19.837  0.00  0.00    +0.000 A 
ATOM     16  C   UNL     1       1.395   4.721  20.598  0.00  0.00    +0.000 A 
ATOM     17  C   UNL     1       2.066   3.494  20.856  0.00  0.00    +0.000 A 
ATOM     18 CL   UNL     1       1.483   2.265  21.870  0.00  0.00    +0.000 Cl
ATOM     19  C   UNL     1       3.256   3.542  20.182  0.00  0.00    +0.000 A 
ATOM     20 CL   UNL     1       4.547   2.426  20.137  0.00  0.00    +0.000 Cl
ENDBRANCH   1  15
TORSDOF 1
ENDMDL
MODEL 8
REMARK VINA RESULT:      -6.2      4.459      7.362
REMARK  Name = 
REMARK  2 active torsions:
REMARK  status: ('A' for Active; 'I' for Inactive)
REMARK    1  A    between atoms: C_1  and  N_2
REMARK    2  A    between atoms: C_3  and  C_4
REMARK                            x       y       z     vdW  Elec       q    Type
REMARK                         _______ _______ _______ _____ _____    ______ ____
ROOT
ATOM      1  C   UNL     1       1.031   9.144  19.411  0.00  0.00    +0.000 C 
ATOM      2  O   UNL     1       1.066   8.629  20.525  0.00  0.00    +0.000 OA
ATOM      3  N   UNL     1       1.862   8.816  18.367  0.00  0.00    +0.000 N 
ATOM      4  C   UNL     1       2.726   7.743  18.343  0.00  0.00    +0.000 A 
ATOM      5  N   UNL     1       3.527   7.514  17.316  0.00  0.00    +0.000 NA
ATOM      6  C   UNL     1       4.132   6.304  17.525  0.00  0.00    +0.000 A 
ATOM      7  C   UNL     1       3.744   5.621  18.645  0.00  0.00    +0.000 A 
ATOM      8  S   UNL     1       2.694   6.518  19.571  0.00  0.00    +0.000 S 
ATOM      9  C   UNL     1       4.085   4.181  18.604  0.00  0.00    +0.000 C 
ATOM     10  C   UNL     1       4.245   4.027  17.054  0.00  0.00    +0.000 C 
ATOM     11  C   UNL     1       4.830   5.398  16.580  0.00  0.00    +0.000 C 
ATOM     12  H   UNL     1       1.837   9.342  17.503  0.00  0.00    +0.000 HD
ENDROOT
BRANCH   1  15
ATOM     13  C   UNL     1       1.572  12.107  19.818  0.00  0.00    +0.000 C 
ATOM     14  N   UNL     1       0.361  11.551  19.242  0.00  0.00    +0.000 N 
ATOM     15  C   UNL     1       0.059  10.192  19.154  0.00  0.00    +0.000 A 
ATOM     16  C   UNL     1      -1.259  10.114  18.711  0.00  0.00    +0.000 A 
ATOM     17  C   UNL     1      -1.685  11.426  18.367  0.00  0.00    +0.000 A 
ATOM     18 CL   UNL     1      -3.170  11.804  17.640  0.00  0.00    +0.000 Cl
ATOM     19  C   UNL     1      -0.659  12.275  18.687  0.00  0.00    +0.000 A 
ATOM     20 CL   UNL     1      -0.505  13.959  18.458  0.00  0.00    +0.000 Cl
ENDBRANCH   1  15
TORSDOF 1
ENDMDL
MODEL 9
REMARK VINA RESULT:      -6.1      4.017      7.766
REMARK  Name = 
REMARK  2 active torsions:
REMARK  status: ('A' for Active; 'I' for Inactive)
REMARK    1  A    between atoms: C_1  and  N_2
REMARK    2  A    between atoms: C_3  and  C_4
REMARK                            x       y       z     vdW  Elec       q    Type
REMARK                         _______ _______ _______ _____ _____    ______ ____
ROOT
ATOM      1  C   UNL     1       2.644   7.388  18.544  0.00  0.00    +0.000 C 
ATOM      2  O   UNL     1       2.346   6.328  19.086  0.00  0.00    +0.000 OA
ATOM      3  N   UNL     1       3.712   7.566  17.700  0.00  0.00    +0.000 N 
ATOM      4  C   UNL     1       4.496   6.558  17.183  0.00  0.00    +0.000 A 
ATOM      5  N   UNL     1       5.537   6.809  16.407  0.00  0.00    +0.000 NA
ATOM      6  C   UNL     1       6.002   5.611  15.936  0.00  0.00    +0.000 A 
ATOM      7  C   UNL     1       5.288   4.502  16.300  0.00  0.00    +0.000 A 
ATOM      8  S   UNL     1       4.069   4.886  17.363  0.00  0.00    +0.000 S 
ATOM      9  C   UNL     1       5.557   3.323  15.446  0.00  0.00    +0.000 C 
ATOM     10  C   UNL     1       6.130   4.070  14.196  0.00  0.00    +0.000 C 
ATOM     11  C   UNL     1       6.889   5.304  14.787  0.00  0.00    +0.000 C 
ATOM     12  H   UNL     1       3.952   8.488  17.357  0.00  0.00    +0.000 HD
ENDROOT
BRANCH   1  15
ATOM     13  C   UNL     1       1.221   7.916  21.177  0.00  0.00    +0.000 C 
ATOM     14  N   UNL     1       1.277   8.841  20.059  0.00  0.00    +0.000 N 
ATOM     15  C   UNL     1       1.831   8.563  18.809  0.00  0.00    +0.000 A 
ATOM     16  C   UNL     1       1.511   9.644  17.992  0.00  0.00    +0.000 A 
ATOM     17  C   UNL     1       0.915  10.647  18.806  0.00  0.00    +0.000 A 
ATOM     18 CL   UNL     1       0.497  12.202  18.275  0.00  0.00    +0.000 Cl
ATOM     19  C   UNL     1       0.808  10.125  20.067  0.00  0.00    +0.000 A 
ATOM     20 CL   UNL     1       0.250  10.838  21.514  0.00  0.00    +0.000 Cl
ENDBRANCH   1  15
TORSDOF 1
ENDMDL
