MODEL 1
REMARK VINA RESULT:      -7.4      0.000      0.000
REMARK  Name = 
REMARK  7 active torsions:
REMARK  status: ('A' for Active; 'I' for Inactive)
REMARK    1  A    between atoms: C_1  and  C_2
REMARK    2  A    between atoms: C_2  and  C_3
REMARK    3  A    between atoms: C_2  and  O_4
REMARK    4  A    between atoms: O_4  and  C_5
REMARK    5  A    between atoms: C_5  and  C_7
REMARK    6  A    between atoms: C_13  and  C_14
REMARK    7  A    between atoms: N_21  and  C_22
REMARK                            x       y       z     vdW  Elec       q    Type
REMARK                         _______ _______ _______ _____ _____    ______ ____
ROOT
ATOM      1  C   UNL     1       4.610   4.577  17.691  0.00  0.00    +0.000 C 
ATOM      2  C   UNL     1       5.732   4.084  16.774  0.00  0.00    +0.000 C 
ATOM      3  C   UNL     1       7.104   4.794  16.876  0.00  0.00    +0.000 C 
ATOM      4  C   UNL     1       7.131   5.807  15.731  0.00  0.00    +0.000 C 
ATOM      5  C   UNL     1       5.669   5.833  15.299  0.00  0.00    +0.000 C 
ATOM      6  C   UNL     1       4.894   6.731  16.341  0.00  0.00    +0.000 C 
ATOM      7  C   UNL     1       3.943   5.905  17.229  0.00  0.00    +0.000 C 
ATOM      8  N   UNL     1       5.273   4.400  15.412  0.00  0.00    +0.000 NA
ATOM      9  C   UNL     1       5.902   3.490  14.444  0.00  0.00    +0.000 C 
ENDROOT
BRANCH   7  10
ATOM     10  C   UNL     1       3.159   6.611  18.332  0.00  0.00    +0.000 A 
ATOM     11  C   UNL     1       2.813   7.961  18.148  0.00  0.00    +0.000 A 
ATOM     12  C   UNL     1       2.007   8.642  19.067  0.00  0.00    +0.000 A 
ATOM     13  C   UNL     1       1.523   7.969  20.185  0.00  0.00    +0.000 A 
ATOM     14  I   UNL     1       0.292   8.961  21.536  0.00  0.00    +0.000 I 
ATOM     15  C   UNL     1       1.852   6.630  20.390  0.00  0.00    +0.000 A 
ATOM     16  C   UNL     1       2.674   5.958  19.473  0.00  0.00    +0.000 A 
ENDBRANCH   7  10
BRANCH   1  17
ATOM     17  C   UNL     1       5.124   4.519  19.104  0.00  0.00    +0.000 C 
ATOM     18  O   UNL     1       5.733   5.390  19.703  0.00  0.00    +0.000 OA
BRANCH  17  19
ATOM     19  O   UNL     1       4.872   3.267  19.593  0.00  0.00    +0.000 OA
BRANCH  19  21
ATOM     20  C   UNL     1       3.632   1.416  18.717  0.00  0.00    +0.000 C 
ATOM     21  C   UNL     1       3.543   2.760  19.419  0.00  0.00    +0.000 C 
ATOM     22  C   UNL     1       2.935   2.611  20.807  0.00  0.00    +0.000 C 
ENDBRANCH  19  21
ENDBRANCH  17  19
ENDBRANCH   1  17
TORSDOF 4
ENDMDL
MODEL 2
REMARK VINA RESULT:      -7.3      2.205      4.143
REMARK  Name = 
REMARK  7 active torsions:
REMARK  status: ('A' for Active; 'I' for Inactive)
REMARK    1  A    between atoms: C_1  and  C_2
REMARK    2  A    between atoms: C_2  and  C_3
REMARK    3  A    between atoms: C_2  and  O_4
REMARK    4  A    between atoms: O_4  and  C_5
REMARK    5  A    between atoms: C_5  and  C_7
REMARK    6  A    between atoms: C_13  and  C_14
REMARK    7  A    between atoms: N_21  and  C_22
REMARK                            x       y       z     vdW  Elec       q    Type
REMARK                         _______ _______ _______ _____ _____    ______ ____
ROOT
ATOM      1  C   UNL     1       4.210   5.170  19.092  0.00  0.00    +0.000 C 
ATOM      2  C   UNL     1       4.622   3.712  18.868  0.00  0.00    +0.000 C 
ATOM      3  C   UNL     1       4.198   3.046  17.536  0.00  0.00    +0.000 C 
ATOM      4  C   UNL     1       2.939   2.241  17.860  0.00  0.00    +0.000 C 
ATOM      5  C   UNL     1       2.561   2.786  19.233  0.00  0.00    +0.000 C 
ATOM      6  C   UNL     1       1.854   4.177  19.001  0.00  0.00    +0.000 C 
ATOM      7  C   UNL     1       2.717   5.359  19.488  0.00  0.00    +0.000 C 
ATOM      8  N   UNL     1       3.889   2.951  19.891  0.00  0.00    +0.000 NA
ATOM      9  C   UNL     1       4.603   1.704  20.199  0.00  0.00    +0.000 C 
ENDROOT
BRANCH   7  10
ATOM     10  C   UNL     1       2.206   6.783  19.284  0.00  0.00    +0.000 A 
ATOM     11  C   UNL     1       1.800   7.516  20.412  0.00  0.00    +0.000 A 
ATOM     12  C   UNL     1       1.420   8.859  20.314  0.00  0.00    +0.000 A 
ATOM     13  C   UNL     1       1.455   9.493  19.076  0.00  0.00    +0.000 A 
ATOM     14  I   UNL     1       0.930  11.500  18.927  0.00  0.00    +0.000 I 
ATOM     15  C   UNL     1       1.854   8.788  17.942  0.00  0.00    +0.000 A 
ATOM     16  C   UNL     1       2.217   7.436  18.045  0.00  0.00    +0.000 A 
ENDBRANCH   7  10
BRANCH   1  17
ATOM     17  C   UNL     1       4.720   5.967  17.923  0.00  0.00    +0.000 C 
ATOM     18  O   UNL     1       4.370   5.873  16.758  0.00  0.00    +0.000 OA
BRANCH  17  19
ATOM     19  O   UNL     1       5.728   6.775  18.371  0.00  0.00    +0.000 OA
BRANCH  19  21
ATOM     20  C   UNL     1       7.699   7.831  17.515  0.00  0.00    +0.000 C 
ATOM     21  C   UNL     1       7.043   6.507  17.870  0.00  0.00    +0.000 C 
ATOM     22  C   UNL     1       7.810   5.799  18.978  0.00  0.00    +0.000 C 
ENDBRANCH  19  21
ENDBRANCH  17  19
ENDBRANCH   1  17
TORSDOF 4
ENDMDL
MODEL 3
REMARK VINA RESULT:      -7.3      2.197      4.049
REMARK  Name = 
REMARK  7 active torsions:
REMARK  status: ('A' for Active; 'I' for Inactive)
REMARK    1  A    between atoms: C_1  and  C_2
REMARK    2  A    between atoms: C_2  and  C_3
REMARK    3  A    between atoms: C_2  and  O_4
REMARK    4  A    between atoms: O_4  and  C_5
REMARK    5  A    between atoms: C_5  and  C_7
REMARK    6  A    between atoms: C_13  and  C_14
REMARK    7  A    between atoms: N_21  and  C_22
REMARK                            x       y       z     vdW  Elec       q    Type
REMARK                         _______ _______ _______ _____ _____    ______ ____
ROOT
ATOM      1  C   UNL     1       4.214   5.254  19.036  0.00  0.00    +0.000 C 
ATOM      2  C   UNL     1       4.559   3.800  18.699  0.00  0.00    +0.000 C 
ATOM      3  C   UNL     1       4.077   3.249  17.335  0.00  0.00    +0.000 C 
ATOM      4  C   UNL     1       2.792   2.475  17.633  0.00  0.00    +0.000 C 
ATOM      5  C   UNL     1       2.470   2.935  19.051  0.00  0.00    +0.000 C 
ATOM      6  C   UNL     1       1.817   4.367  18.937  0.00  0.00    +0.000 C 
ATOM      7  C   UNL     1       2.740   5.474  19.483  0.00  0.00    +0.000 C 
ATOM      8  N   UNL     1       3.818   2.998  19.685  0.00  0.00    +0.000 NA
ATOM      9  C   UNL     1       4.486   1.703  19.885  0.00  0.00    +0.000 C 
ENDROOT
BRANCH   7  10
ATOM     10  C   UNL     1       2.286   6.929  19.395  0.00  0.00    +0.000 A 
ATOM     11  C   UNL     1       2.203   7.528  18.127  0.00  0.00    +0.000 A 
ATOM     12  C   UNL     1       1.695   8.821  17.960  0.00  0.00    +0.000 A 
ATOM     13  C   UNL     1       1.249   9.531  19.070  0.00  0.00    +0.000 A 
ATOM     14  I   UNL     1       0.457  11.439  18.827  0.00  0.00    +0.000 I 
ATOM     15  C   UNL     1       1.321   8.959  20.339  0.00  0.00    +0.000 A 
ATOM     16  C   UNL     1       1.847   7.668  20.501  0.00  0.00    +0.000 A 
ENDBRANCH   7  10
BRANCH   1  17
ATOM     17  C   UNL     1       4.731   6.111  17.914  0.00  0.00    +0.000 C 
ATOM     18  O   UNL     1       4.359   6.107  16.753  0.00  0.00    +0.000 OA
BRANCH  17  19
ATOM     19  O   UNL     1       5.773   6.854  18.396  0.00  0.00    +0.000 OA
BRANCH  19  21
ATOM     20  C   UNL     1       7.756   7.891  17.546  0.00  0.00    +0.000 C 
ATOM     21  C   UNL     1       7.071   6.572  17.861  0.00  0.00    +0.000 C 
ATOM     22  C   UNL     1       7.838   5.801  18.926  0.00  0.00    +0.000 C 
ENDBRANCH  19  21
ENDBRANCH  17  19
ENDBRANCH   1  17
TORSDOF 4
ENDMDL
MODEL 4
REMARK VINA RESULT:      -7.2      1.469      2.005
REMARK  Name = 
REMARK  7 active torsions:
REMARK  status: ('A' for Active; 'I' for Inactive)
REMARK    1  A    between atoms: C_1  and  C_2
REMARK    2  A    between atoms: C_2  and  C_3
REMARK    3  A    between atoms: C_2  and  O_4
REMARK    4  A    between atoms: O_4  and  C_5
REMARK    5  A    between atoms: C_5  and  C_7
REMARK    6  A    between atoms: C_13  and  C_14
REMARK    7  A    between atoms: N_21  and  C_22
REMARK                            x       y       z     vdW  Elec       q    Type
REMARK                         _______ _______ _______ _____ _____    ______ ____
ROOT
ATOM      1  C   UNL     1       3.893   5.118  17.302  0.00  0.00    +0.000 C 
ATOM      2  C   UNL     1       5.145   4.355  16.862  0.00  0.00    +0.000 C 
ATOM      3  C   UNL     1       6.316   4.260  17.870  0.00  0.00    +0.000 C 
ATOM      4  C   UNL     1       7.303   5.354  17.459  0.00  0.00    +0.000 C 
ATOM      5  C   UNL     1       6.466   6.186  16.493  0.00  0.00    +0.000 C 
ATOM      6  C   UNL     1       5.516   7.094  17.366  0.00  0.00    +0.000 C 
ATOM      7  C   UNL     1       4.039   6.666  17.257  0.00  0.00    +0.000 C 
ATOM      8  N   UNL     1       5.699   5.145  15.751  0.00  0.00    +0.000 NA
ATOM      9  C   UNL     1       6.493   4.282  14.865  0.00  0.00    +0.000 C 
ENDROOT
BRANCH   7  10
ATOM     10  C   UNL     1       2.991   7.404  18.086  0.00  0.00    +0.000 A 
ATOM     11  C   UNL     1       2.826   7.041  19.433  0.00  0.00    +0.000 A 
ATOM     12  C   UNL     1       1.960   7.741  20.280  0.00  0.00    +0.000 A 
ATOM     13  C   UNL     1       1.252   8.833  19.786  0.00  0.00    +0.000 A 
ATOM     14  I   UNL     1      -0.007   9.905  21.047  0.00  0.00    +0.000 I 
ATOM     15  C   UNL     1       1.398   9.213  18.453  0.00  0.00    +0.000 A 
ATOM     16  C   UNL     1       2.255   8.495  17.605  0.00  0.00    +0.000 A 
ENDBRANCH   7  10
BRANCH   1  17
ATOM     17  C   UNL     1       3.423   4.507  18.593  0.00  0.00    +0.000 C 
ATOM     18  O   UNL     1       4.061   4.385  19.626  0.00  0.00    +0.000 OA
BRANCH  17  19
ATOM     19  O   UNL     1       2.162   4.016  18.394  0.00  0.00    +0.000 OA
BRANCH  19  21
ATOM     20  C   UNL     1       0.850   4.066  20.395  0.00  0.00    +0.000 C 
ATOM     21  C   UNL     1       1.621   3.185  19.427  0.00  0.00    +0.000 C 
ATOM     22  C   UNL     1       0.698   2.177  18.755  0.00  0.00    +0.000 C 
ENDBRANCH  19  21
ENDBRANCH  17  19
ENDBRANCH   1  17
TORSDOF 4
ENDMDL
MODEL 5
REMARK VINA RESULT:      -7.1      1.411      1.704
REMARK  Name = 
REMARK  7 active torsions:
REMARK  status: ('A' for Active; 'I' for Inactive)
REMARK    1  A    between atoms: C_1  and  C_2
REMARK    2  A    between atoms: C_2  and  C_3
REMARK    3  A    between atoms: C_2  and  O_4
REMARK    4  A    between atoms: O_4  and  C_5
REMARK    5  A    between atoms: C_5  and  C_7
REMARK    6  A    between atoms: C_13  and  C_14
REMARK    7  A    between atoms: N_21  and  C_22
REMARK                            x       y       z     vdW  Elec       q    Type
REMARK                         _______ _______ _______ _____ _____    ______ ____
ROOT
ATOM      1  C   UNL     1       3.731   5.107  17.406  0.00  0.00    +0.000 C 
ATOM      2  C   UNL     1       4.881   4.248  16.872  0.00  0.00    +0.000 C 
ATOM      3  C   UNL     1       6.144   4.114  17.758  0.00  0.00    +0.000 C 
ATOM      4  C   UNL     1       7.148   5.125  17.202  0.00  0.00    +0.000 C 
ATOM      5  C   UNL     1       6.267   5.975  16.293  0.00  0.00    +0.000 C 
ATOM      6  C   UNL     1       5.470   6.973  17.219  0.00  0.00    +0.000 C 
ATOM      7  C   UNL     1       3.966   6.640  17.280  0.00  0.00    +0.000 C 
ATOM      8  N   UNL     1       5.363   4.960  15.679  0.00  0.00    +0.000 NA
ATOM      9  C   UNL     1       6.005   4.016  14.753  0.00  0.00    +0.000 C 
ENDROOT
BRANCH   7  10
ATOM     10  C   UNL     1       3.058   7.473  18.180  0.00  0.00    +0.000 A 
ATOM     11  C   UNL     1       2.411   8.592  17.628  0.00  0.00    +0.000 A 
ATOM     12  C   UNL     1       1.485   9.339  18.364  0.00  0.00    +0.000 A 
ATOM     13  C   UNL     1       1.184   8.964  19.669  0.00  0.00    +0.000 A 
ATOM     14  I   UNL     1      -0.221  10.046  20.757  0.00  0.00    +0.000 I 
ATOM     15  C   UNL     1       1.812   7.859  20.241  0.00  0.00    +0.000 A 
ATOM     16  C   UNL     1       2.752   7.124  19.502  0.00  0.00    +0.000 A 
ENDBRANCH   7  10
BRANCH   1  17
ATOM     17  C   UNL     1       3.363   4.575  18.763  0.00  0.00    +0.000 C 
ATOM     18  O   UNL     1       4.094   4.461  19.733  0.00  0.00    +0.000 OA
BRANCH  17  19
ATOM     19  O   UNL     1       2.067   4.143  18.710  0.00  0.00    +0.000 OA
BRANCH  19  21
ATOM     20  C   UNL     1       1.124   3.539  20.826  0.00  0.00    +0.000 C 
ATOM     21  C   UNL     1       1.724   3.020  19.530  0.00  0.00    +0.000 C 
ATOM     22  C   UNL     1       0.711   2.190  18.755  0.00  0.00    +0.000 C 
ENDBRANCH  19  21
ENDBRANCH  17  19
ENDBRANCH   1  17
TORSDOF 4
ENDMDL
MODEL 6
REMARK VINA RESULT:      -7.0      3.382      5.834
REMARK  Name = 
REMARK  7 active torsions:
REMARK  status: ('A' for Active; 'I' for Inactive)
REMARK    1  A    between atoms: C_1  and  C_2
REMARK    2  A    between atoms: C_2  and  C_3
REMARK    3  A    between atoms: C_2  and  O_4
REMARK    4  A    between atoms: O_4  and  C_5
REMARK    5  A    between atoms: C_5  and  C_7
REMARK    6  A    between atoms: C_13  and  C_14
REMARK    7  A    between atoms: N_21  and  C_22
REMARK                            x       y       z     vdW  Elec       q    Type
REMARK                         _______ _______ _______ _____ _____    ______ ____
ROOT
ATOM      1  C   UNL     1       3.915   4.857  18.952  0.00  0.00    +0.000 C 
ATOM      2  C   UNL     1       2.965   4.266  19.998  0.00  0.00    +0.000 C 
ATOM      3  C   UNL     1       3.019   2.736  20.229  0.00  0.00    +0.000 C 
ATOM      4  C   UNL     1       1.866   2.154  19.411  0.00  0.00    +0.000 C 
ATOM      5  C   UNL     1       1.481   3.335  18.526  0.00  0.00    +0.000 C 
ATOM      6  C   UNL     1       2.540   3.404  17.358  0.00  0.00    +0.000 C 
ATOM      7  C   UNL     1       3.464   4.632  17.480  0.00  0.00    +0.000 C 
ATOM      8  N   UNL     1       1.617   4.493  19.456  0.00  0.00    +0.000 NA
ATOM      9  C   UNL     1       0.636   4.546  20.549  0.00  0.00    +0.000 C 
ENDROOT
BRANCH   7  10
ATOM     10  C   UNL     1       4.586   4.819  16.462  0.00  0.00    +0.000 A 
ATOM     11  C   UNL     1       5.210   3.675  15.935  0.00  0.00    +0.000 A 
ATOM     12  C   UNL     1       6.171   3.766  14.923  0.00  0.00    +0.000 A 
ATOM     13  C   UNL     1       6.514   5.015  14.413  0.00  0.00    +0.000 A 
ATOM     14  I   UNL     1       7.913   5.157  12.881  0.00  0.00    +0.000 I 
ATOM     15  C   UNL     1       5.909   6.165  14.918  0.00  0.00    +0.000 A 
ATOM     16  C   UNL     1       4.958   6.067  15.945  0.00  0.00    +0.000 A 
ENDBRANCH   7  10
BRANCH   1  17
ATOM     17  C   UNL     1       5.310   4.433  19.319  0.00  0.00    +0.000 C 
ATOM     18  O   UNL     1       5.710   3.295  19.502  0.00  0.00    +0.000 OA
BRANCH  17  19
ATOM     19  O   UNL     1       6.059   5.561  19.507  0.00  0.00    +0.000 OA
BRANCH  19  21
ATOM     20  C   UNL     1       7.563   6.833  18.146  0.00  0.00    +0.000 C 
ATOM     21  C   UNL     1       7.381   5.560  18.955  0.00  0.00    +0.000 C 
ATOM     22  C   UNL     1       8.355   5.515  20.124  0.00  0.00    +0.000 C 
ENDBRANCH  19  21
ENDBRANCH  17  19
ENDBRANCH   1  17
TORSDOF 4
ENDMDL
MODEL 7
REMARK VINA RESULT:      -6.8      1.797      2.547
REMARK  Name = 
REMARK  7 active torsions:
REMARK  status: ('A' for Active; 'I' for Inactive)
REMARK    1  A    between atoms: C_1  and  C_2
REMARK    2  A    between atoms: C_2  and  C_3
REMARK    3  A    between atoms: C_2  and  O_4
REMARK    4  A    between atoms: O_4  and  C_5
REMARK    5  A    between atoms: C_5  and  C_7
REMARK    6  A    between atoms: C_13  and  C_14
REMARK    7  A    between atoms: N_21  and  C_22
REMARK                            x       y       z     vdW  Elec       q    Type
REMARK                         _______ _______ _______ _____ _____    ______ ____
ROOT
ATOM      1  C   UNL     1       3.185   5.279  17.151  0.00  0.00    +0.000 C 
ATOM      2  C   UNL     1       4.216   4.168  16.930  0.00  0.00    +0.000 C 
ATOM      3  C   UNL     1       4.652   3.343  18.165  0.00  0.00    +0.000 C 
ATOM      4  C   UNL     1       5.976   3.956  18.625  0.00  0.00    +0.000 C 
ATOM      5  C   UNL     1       6.002   5.267  17.848  0.00  0.00    +0.000 C 
ATOM      6  C   UNL     1       5.045   6.272  18.599  0.00  0.00    +0.000 C 
ATOM      7  C   UNL     1       3.765   6.572  17.794  0.00  0.00    +0.000 C 
ATOM      8  N   UNL     1       5.445   4.868  16.523  0.00  0.00    +0.000 NA
ATOM      9  C   UNL     1       6.292   3.974  15.722  0.00  0.00    +0.000 C 
ENDROOT
BRANCH   7  10
ATOM     10  C   UNL     1       2.702   7.481  18.404  0.00  0.00    +0.000 A 
ATOM     11  C   UNL     1       2.401   7.337  19.769  0.00  0.00    +0.000 A 
ATOM     12  C   UNL     1       1.515   8.204  20.419  0.00  0.00    +0.000 A 
ATOM     13  C   UNL     1       0.924   9.242  19.705  0.00  0.00    +0.000 A 
ATOM     14  I   UNL     1      -0.363  10.559  20.671  0.00  0.00    +0.000 I 
ATOM     15  C   UNL     1       1.206   9.406  18.349  0.00  0.00    +0.000 A 
ATOM     16  C   UNL     1       2.083   8.523  17.701  0.00  0.00    +0.000 A 
ENDBRANCH   7  10
BRANCH   1  17
ATOM     17  C   UNL     1       1.987   4.657  17.813  0.00  0.00    +0.000 C 
ATOM     18  O   UNL     1       0.871   4.522  17.339  0.00  0.00    +0.000 OA
BRANCH  17  19
ATOM     19  O   UNL     1       2.333   4.338  19.096  0.00  0.00    +0.000 OA
BRANCH  19  21
ATOM     20  C   UNL     1       1.451   2.131  19.385  0.00  0.00    +0.000 C 
ATOM     21  C   UNL     1       1.383   3.575  19.852  0.00  0.00    +0.000 C 
ATOM     22  C   UNL     1       1.777   3.693  21.317  0.00  0.00    +0.000 C 
ENDBRANCH  19  21
ENDBRANCH  17  19
ENDBRANCH   1  17
TORSDOF 4
ENDMDL
MODEL 8
REMARK VINA RESULT:      -6.8      0.193      1.044
REMARK  Name = 
REMARK  7 active torsions:
REMARK  status: ('A' for Active; 'I' for Inactive)
REMARK    1  A    between atoms: C_1  and  C_2
REMARK    2  A    between atoms: C_2  and  C_3
REMARK    3  A    between atoms: C_2  and  O_4
REMARK    4  A    between atoms: O_4  and  C_5
REMARK    5  A    between atoms: C_5  and  C_7
REMARK    6  A    between atoms: C_13  and  C_14
REMARK    7  A    between atoms: N_21  and  C_22
REMARK                            x       y       z     vdW  Elec       q    Type
REMARK                         _______ _______ _______ _____ _____    ______ ____
ROOT
ATOM      1  C   UNL     1       4.481   4.648  17.652  0.00  0.00    +0.000 C 
ATOM      2  C   UNL     1       5.668   4.128  16.837  0.00  0.00    +0.000 C 
ATOM      3  C   UNL     1       7.032   4.835  17.030  0.00  0.00    +0.000 C 
ATOM      4  C   UNL     1       7.155   5.820  15.867  0.00  0.00    +0.000 C 
ATOM      5  C   UNL     1       5.731   5.842  15.322  0.00  0.00    +0.000 C 
ATOM      6  C   UNL     1       4.882   6.767  16.278  0.00  0.00    +0.000 C 
ATOM      7  C   UNL     1       3.860   5.967  17.108  0.00  0.00    +0.000 C 
ATOM      8  N   UNL     1       5.319   4.414  15.437  0.00  0.00    +0.000 NA
ATOM      9  C   UNL     1       6.016   3.479  14.543  0.00  0.00    +0.000 C 
ENDROOT
BRANCH   7  10
ATOM     10  C   UNL     1       2.996   6.703  18.129  0.00  0.00    +0.000 A 
ATOM     11  C   UNL     1       2.533   5.994  19.250  0.00  0.00    +0.000 A 
ATOM     12  C   UNL     1       1.826   6.628  20.278  0.00  0.00    +0.000 A 
ATOM     13  C   UNL     1       1.583   7.996  20.199  0.00  0.00    +0.000 A 
ATOM     14  I   UNL     1       0.567   8.954  21.741  0.00  0.00    +0.000 I 
ATOM     15  C   UNL     1       2.031   8.722  19.098  0.00  0.00    +0.000 A 
ATOM     16  C   UNL     1       2.725   8.076  18.063  0.00  0.00    +0.000 A 
ENDBRANCH   7  10
BRANCH   1  17
ATOM     17  C   UNL     1       4.882   4.622  19.101  0.00  0.00    +0.000 C 
ATOM     18  O   UNL     1       5.381   5.530  19.745  0.00  0.00    +0.000 OA
BRANCH  17  19
ATOM     19  O   UNL     1       4.676   3.355  19.573  0.00  0.00    +0.000 OA
BRANCH  19  21
ATOM     20  C   UNL     1       3.540   1.432  18.710  0.00  0.00    +0.000 C 
ATOM     21  C   UNL     1       3.375   2.792  19.368  0.00  0.00    +0.000 C 
ATOM     22  C   UNL     1       2.723   2.658  20.737  0.00  0.00    +0.000 C 
ENDBRANCH  19  21
ENDBRANCH  17  19
ENDBRANCH   1  17
TORSDOF 4
ENDMDL
MODEL 9
REMARK VINA RESULT:      -6.8      3.359      5.776
REMARK  Name = 
REMARK  7 active torsions:
REMARK  status: ('A' for Active; 'I' for Inactive)
REMARK    1  A    between atoms: C_1  and  C_2
REMARK    2  A    between atoms: C_2  and  C_3
REMARK    3  A    between atoms: C_2  and  O_4
REMARK    4  A    between atoms: O_4  and  C_5
REMARK    5  A    between atoms: C_5  and  C_7
REMARK    6  A    between atoms: C_13  and  C_14
REMARK    7  A    between atoms: N_21  and  C_22
REMARK                            x       y       z     vdW  Elec       q    Type
REMARK                         _______ _______ _______ _____ _____    ______ ____
ROOT
ATOM      1  C   UNL     1       3.901   4.877  18.819  0.00  0.00    +0.000 C 
ATOM      2  C   UNL     1       3.028   4.343  19.958  0.00  0.00    +0.000 C 
ATOM      3  C   UNL     1       3.166   2.845  20.322  0.00  0.00    +0.000 C 
ATOM      4  C   UNL     1       2.007   2.140  19.615  0.00  0.00    +0.000 C 
ATOM      5  C   UNL     1       1.527   3.218  18.648  0.00  0.00    +0.000 C 
ATOM      6  C   UNL     1       2.529   3.227  17.429  0.00  0.00    +0.000 C 
ATOM      7  C   UNL     1       3.397   4.500  17.396  0.00  0.00    +0.000 C 
ATOM      8  N   UNL     1       1.648   4.460  19.463  0.00  0.00    +0.000 NA
ATOM      9  C   UNL     1       0.715   4.570  20.594  0.00  0.00    +0.000 C 
ENDROOT
BRANCH   7  10
ATOM     10  C   UNL     1       4.463   4.642  16.313  0.00  0.00    +0.000 A 
ATOM     11  C   UNL     1       4.831   5.934  15.901  0.00  0.00    +0.000 A 
ATOM     12  C   UNL     1       5.872   6.144  14.990  0.00  0.00    +0.000 A 
ATOM     13  C   UNL     1       6.573   5.052  14.486  0.00  0.00    +0.000 A 
ATOM     14  I   UNL     1       8.148   5.356  13.162  0.00  0.00    +0.000 I 
ATOM     15  C   UNL     1       6.227   3.760  14.879  0.00  0.00    +0.000 A 
ATOM     16  C   UNL     1       5.171   3.556  15.780  0.00  0.00    +0.000 A 
ENDBRANCH   7  10
BRANCH   1  17
ATOM     17  C   UNL     1       5.330   4.550  19.155  0.00  0.00    +0.000 C 
ATOM     18  O   UNL     1       5.793   3.451  19.412  0.00  0.00    +0.000 OA
BRANCH  17  19
ATOM     19  O   UNL     1       6.029   5.724  19.215  0.00  0.00    +0.000 OA
BRANCH  19  21
ATOM     20  C   UNL     1       7.640   7.006  17.992  0.00  0.00    +0.000 C 
ATOM     21  C   UNL     1       7.375   5.701  18.725  0.00  0.00    +0.000 C 
ATOM     22  C   UNL     1       8.290   5.560  19.933  0.00  0.00    +0.000 C 
ENDBRANCH  19  21
ENDBRANCH  17  19
ENDBRANCH   1  17
TORSDOF 4
ENDMDL
