MODEL 1
REMARK VINA RESULT:      -7.0      0.000      0.000
REMARK  Name = 
REMARK  5 active torsions:
REMARK  status: ('A' for Active; 'I' for Inactive)
REMARK    1  A    between atoms: C_1  and  O_2
REMARK    2  A    between atoms: O_2  and  C_3
REMARK    3  A    between atoms: C_6  and  O_7
REMARK    4  A    between atoms: O_7  and  C_8
REMARK    5  A    between atoms: C_9  and  C_10
REMARK                            x       y       z     vdW  Elec       q    Type
REMARK                         _______ _______ _______ _____ _____    ______ ____
ROOT
ATOM      1  C   UNL     1       3.001   3.436  17.963  0.00  0.00    +0.000 A 
ATOM      2  C   UNL     1       1.981   4.345  18.223  0.00  0.00    +0.000 A 
ATOM      3  C   UNL     1       2.218   5.718  18.148  0.00  0.00    +0.000 A 
ATOM      4  C   UNL     1       3.474   6.207  17.766  0.00  0.00    +0.000 A 
ATOM      5  C   UNL     1       4.516   5.304  17.494  0.00  0.00    +0.000 A 
ATOM      6  C   UNL     1       4.266   3.918  17.631  0.00  0.00    +0.000 A 
ENDROOT
BRANCH   5   7
ATOM      7  C   UNL     1       5.898   5.717  17.044  0.00  0.00    +0.000 C 
ATOM      8  O   UNL     1       6.000   5.809  15.617  0.00  0.00    +0.000 OA
ATOM      9  C   UNL     1       7.175   5.234  15.239  0.00  0.00    +0.000 C 
ATOM     10  O   UNL     1       7.638   5.297  14.113  0.00  0.00    +0.000 OA
ATOM     11  N   UNL     1       7.760   4.624  16.282  0.00  0.00    +0.000 N 
ATOM     12  C   UNL     1       7.062   4.839  17.420  0.00  0.00    +0.000 C 
ATOM     13  O   UNL     1       7.392   4.464  18.533  0.00  0.00    +0.000 OA
ATOM     14  H   UNL     1       8.637   4.137  16.229  0.00  0.00    +0.000 HD
ENDBRANCH   5   7
BRANCH   1  16
ATOM     15  C   UNL     1       3.623   1.190  18.447  0.00  0.00    +0.000 C 
ATOM     16  O   UNL     1       2.628   2.125  18.052  0.00  0.00    +0.000 OA
ENDBRANCH   1  16
BRANCH   4  17
ATOM     17  O   UNL     1       3.754   7.545  17.666  0.00  0.00    +0.000 OA
ATOM     18  C   UNL     1       2.636   8.416  17.836  0.00  0.00    +0.000 C 
ENDBRANCH   4  17
TORSDOF 3
ENDMDL
MODEL 2
REMARK VINA RESULT:      -6.9      2.288      4.833
REMARK  Name = 
REMARK  5 active torsions:
REMARK  status: ('A' for Active; 'I' for Inactive)
REMARK    1  A    between atoms: C_1  and  O_2
REMARK    2  A    between atoms: O_2  and  C_3
REMARK    3  A    between atoms: C_6  and  O_7
REMARK    4  A    between atoms: O_7  and  C_8
REMARK    5  A    between atoms: C_9  and  C_10
REMARK                            x       y       z     vdW  Elec       q    Type
REMARK                         _______ _______ _______ _____ _____    ______ ____
ROOT
ATOM      1  C   UNL     1       5.970   5.471  16.120  0.00  0.00    +0.000 A 
ATOM      2  C   UNL     1       5.465   6.699  16.533  0.00  0.00    +0.000 A 
ATOM      3  C   UNL     1       4.293   6.767  17.287  0.00  0.00    +0.000 A 
ATOM      4  C   UNL     1       3.626   5.598  17.678  0.00  0.00    +0.000 A 
ATOM      5  C   UNL     1       4.124   4.348  17.274  0.00  0.00    +0.000 A 
ATOM      6  C   UNL     1       5.284   4.308  16.464  0.00  0.00    +0.000 A 
ENDROOT
BRANCH   5   7
ATOM      7  C   UNL     1       3.507   3.025  17.664  0.00  0.00    +0.000 C 
ATOM      8  O   UNL     1       2.097   2.984  17.402  0.00  0.00    +0.000 OA
ATOM      9  C   UNL     1       1.485   2.409  18.473  0.00  0.00    +0.000 C 
ATOM     10  O   UNL     1       0.312   2.076  18.496  0.00  0.00    +0.000 OA
ATOM     11  N   UNL     1       2.357   2.233  19.479  0.00  0.00    +0.000 N 
ATOM     12  C   UNL     1       3.606   2.588  19.102  0.00  0.00    +0.000 C 
ATOM     13  O   UNL     1       4.610   2.472  19.785  0.00  0.00    +0.000 OA
ATOM     14  H   UNL     1       2.118   1.823  20.364  0.00  0.00    +0.000 HD
ENDBRANCH   5   7
BRANCH   1  16
ATOM     15  C   UNL     1       7.190   4.844  14.174  0.00  0.00    +0.000 C 
ATOM     16  O   UNL     1       7.133   5.548  15.407  0.00  0.00    +0.000 OA
ENDBRANCH   1  16
BRANCH   4  17
ATOM     17  O   UNL     1       2.479   5.611  18.428  0.00  0.00    +0.000 OA
ATOM     18  C   UNL     1       2.610   6.169  19.735  0.00  0.00    +0.000 C 
ENDBRANCH   4  17
TORSDOF 3
ENDMDL
MODEL 3
REMARK VINA RESULT:      -6.8      2.579      5.025
REMARK  Name = 
REMARK  5 active torsions:
REMARK  status: ('A' for Active; 'I' for Inactive)
REMARK    1  A    between atoms: C_1  and  O_2
REMARK    2  A    between atoms: O_2  and  C_3
REMARK    3  A    between atoms: C_6  and  O_7
REMARK    4  A    between atoms: O_7  and  C_8
REMARK    5  A    between atoms: C_9  and  C_10
REMARK                            x       y       z     vdW  Elec       q    Type
REMARK                         _______ _______ _______ _____ _____    ______ ____
ROOT
ATOM      1  C   UNL     1       5.052   4.585  16.656  0.00  0.00    +0.000 A 
ATOM      2  C   UNL     1       5.181   5.939  16.367  0.00  0.00    +0.000 A 
ATOM      3  C   UNL     1       4.351   6.877  16.982  0.00  0.00    +0.000 A 
ATOM      4  C   UNL     1       3.402   6.479  17.933  0.00  0.00    +0.000 A 
ATOM      5  C   UNL     1       3.261   5.116  18.242  0.00  0.00    +0.000 A 
ATOM      6  C   UNL     1       4.076   4.178  17.565  0.00  0.00    +0.000 A 
ENDROOT
BRANCH   5   7
ATOM      7  C   UNL     1       2.296   4.577  19.272  0.00  0.00    +0.000 C 
ATOM      8  O   UNL     1       2.947   4.255  20.509  0.00  0.00    +0.000 OA
ATOM      9  C   UNL     1       2.463   3.057  20.941  0.00  0.00    +0.000 C 
ATOM     10  O   UNL     1       2.687   2.583  22.042  0.00  0.00    +0.000 OA
ATOM     11  N   UNL     1       1.684   2.495  20.003  0.00  0.00    +0.000 N 
ATOM     12  C   UNL     1       1.529   3.323  18.945  0.00  0.00    +0.000 C 
ATOM     13  O   UNL     1       0.821   3.107  17.975  0.00  0.00    +0.000 OA
ATOM     14  H   UNL     1       1.222   1.610  20.112  0.00  0.00    +0.000 HD
ENDBRANCH   5   7
BRANCH   1  16
ATOM     15  C   UNL     1       6.445   4.243  14.756  0.00  0.00    +0.000 C 
ATOM     16  O   UNL     1       5.939   3.779  16.001  0.00  0.00    +0.000 OA
ENDBRANCH   1  16
BRANCH   4  17
ATOM     17  O   UNL     1       2.573   7.363  18.572  0.00  0.00    +0.000 OA
ATOM     18  C   UNL     1       2.306   8.573  17.863  0.00  0.00    +0.000 C 
ENDBRANCH   4  17
TORSDOF 3
ENDMDL
MODEL 4
REMARK VINA RESULT:      -6.8      2.403      5.123
REMARK  Name = 
REMARK  5 active torsions:
REMARK  status: ('A' for Active; 'I' for Inactive)
REMARK    1  A    between atoms: C_1  and  O_2
REMARK    2  A    between atoms: O_2  and  C_3
REMARK    3  A    between atoms: C_6  and  O_7
REMARK    4  A    between atoms: O_7  and  C_8
REMARK    5  A    between atoms: C_9  and  C_10
REMARK                            x       y       z     vdW  Elec       q    Type
REMARK                         _______ _______ _______ _____ _____    ______ ____
ROOT
ATOM      1  C   UNL     1       5.549   4.243  15.127  0.00  0.00    +0.000 A 
ATOM      2  C   UNL     1       6.857   4.593  15.445  0.00  0.00    +0.000 A 
ATOM      3  C   UNL     1       7.248   4.743  16.777  0.00  0.00    +0.000 A 
ATOM      4  C   UNL     1       6.342   4.502  17.818  0.00  0.00    +0.000 A 
ATOM      5  C   UNL     1       5.018   4.143  17.517  0.00  0.00    +0.000 A 
ATOM      6  C   UNL     1       4.632   4.051  16.158  0.00  0.00    +0.000 A 
ENDROOT
BRANCH   5   7
ATOM      7  C   UNL     1       3.968   3.829  18.557  0.00  0.00    +0.000 C 
ATOM      8  O   UNL     1       3.026   2.850  18.100  0.00  0.00    +0.000 OA
ATOM      9  C   UNL     1       1.780   3.261  18.463  0.00  0.00    +0.000 C 
ATOM     10  O   UNL     1       0.776   2.574  18.372  0.00  0.00    +0.000 OA
ATOM     11  N   UNL     1       1.819   4.507  18.963  0.00  0.00    +0.000 N 
ATOM     12  C   UNL     1       3.093   4.952  19.049  0.00  0.00    +0.000 C 
ATOM     13  O   UNL     1       3.438   6.020  19.527  0.00  0.00    +0.000 OA
ATOM     14  H   UNL     1       1.013   5.005  19.295  0.00  0.00    +0.000 HD
ENDBRANCH   5   7
BRANCH   1  16
ATOM     15  C   UNL     1       6.397   3.710  12.967  0.00  0.00    +0.000 C 
ATOM     16  O   UNL     1       5.308   4.110  13.789  0.00  0.00    +0.000 OA
ENDBRANCH   1  16
BRANCH   4  17
ATOM     17  O   UNL     1       6.680   4.624  19.141  0.00  0.00    +0.000 OA
ATOM     18  C   UNL     1       7.566   5.701  19.448  0.00  0.00    +0.000 C 
ENDBRANCH   4  17
TORSDOF 3
ENDMDL
MODEL 5
REMARK VINA RESULT:      -6.7      2.873      5.379
REMARK  Name = 
REMARK  5 active torsions:
REMARK  status: ('A' for Active; 'I' for Inactive)
REMARK    1  A    between atoms: C_1  and  O_2
REMARK    2  A    between atoms: O_2  and  C_3
REMARK    3  A    between atoms: C_6  and  O_7
REMARK    4  A    between atoms: O_7  and  C_8
REMARK    5  A    between atoms: C_9  and  C_10
REMARK                            x       y       z     vdW  Elec       q    Type
REMARK                         _______ _______ _______ _____ _____    ______ ____
ROOT
ATOM      1  C   UNL     1       5.734   5.226  18.572  0.00  0.00    +0.000 A 
ATOM      2  C   UNL     1       5.684   6.333  17.731  0.00  0.00    +0.000 A 
ATOM      3  C   UNL     1       4.467   6.955  17.450  0.00  0.00    +0.000 A 
ATOM      4  C   UNL     1       3.279   6.504  18.041  0.00  0.00    +0.000 A 
ATOM      5  C   UNL     1       3.311   5.390  18.897  0.00  0.00    +0.000 A 
ATOM      6  C   UNL     1       4.549   4.744  19.124  0.00  0.00    +0.000 A 
ENDROOT
BRANCH   5   7
ATOM      7  C   UNL     1       2.100   4.839  19.614  0.00  0.00    +0.000 C 
ATOM      8  O   UNL     1       2.401   4.435  20.956  0.00  0.00    +0.000 OA
ATOM      9  C   UNL     1       1.794   3.237  21.182  0.00  0.00    +0.000 C 
ATOM     10  O   UNL     1       1.716   2.703  22.276  0.00  0.00    +0.000 OA
ATOM     11  N   UNL     1       1.271   2.750  20.045  0.00  0.00    +0.000 N 
ATOM     12  C   UNL     1       1.415   3.632  19.031  0.00  0.00    +0.000 C 
ATOM     13  O   UNL     1       0.976   3.489  17.902  0.00  0.00    +0.000 OA
ATOM     14  H   UNL     1       0.776   1.878  19.983  0.00  0.00    +0.000 HD
ENDBRANCH   5   7
BRANCH   1  16
ATOM     15  C   UNL     1       7.986   5.638  19.224  0.00  0.00    +0.000 C 
ATOM     16  O   UNL     1       6.989   4.729  18.779  0.00  0.00    +0.000 OA
ENDBRANCH   1  16
BRANCH   4  17
ATOM     17  O   UNL     1       2.062   7.088  17.806  0.00  0.00    +0.000 OA
ATOM     18  C   UNL     1       2.049   8.515  17.857  0.00  0.00    +0.000 C 
ENDBRANCH   4  17
TORSDOF 3
ENDMDL
MODEL 6
REMARK VINA RESULT:      -6.7      2.349      5.214
REMARK  Name = 
REMARK  5 active torsions:
REMARK  status: ('A' for Active; 'I' for Inactive)
REMARK    1  A    between atoms: C_1  and  O_2
REMARK    2  A    between atoms: O_2  and  C_3
REMARK    3  A    between atoms: C_6  and  O_7
REMARK    4  A    between atoms: O_7  and  C_8
REMARK    5  A    between atoms: C_9  and  C_10
REMARK                            x       y       z     vdW  Elec       q    Type
REMARK                         _______ _______ _______ _____ _____    ______ ____
ROOT
ATOM      1  C   UNL     1       3.873   6.950  17.461  0.00  0.00    +0.000 A 
ATOM      2  C   UNL     1       4.873   7.118  16.508  0.00  0.00    +0.000 A 
ATOM      3  C   UNL     1       5.477   6.011  15.912  0.00  0.00    +0.000 A 
ATOM      4  C   UNL     1       5.061   4.711  16.230  0.00  0.00    +0.000 A 
ATOM      5  C   UNL     1       4.049   4.522  17.186  0.00  0.00    +0.000 A 
ATOM      6  C   UNL     1       3.489   5.659  17.816  0.00  0.00    +0.000 A 
ENDROOT
BRANCH   5   7
ATOM      7  C   UNL     1       3.499   3.171  17.581  0.00  0.00    +0.000 C 
ATOM      8  O   UNL     1       2.086   3.074  17.360  0.00  0.00    +0.000 OA
ATOM      9  C   UNL     1       1.531   2.464  18.444  0.00  0.00    +0.000 C 
ATOM     10  O   UNL     1       0.374   2.082  18.499  0.00  0.00    +0.000 OA
ATOM     11  N   UNL     1       2.440   2.315  19.421  0.00  0.00    +0.000 N 
ATOM     12  C   UNL     1       3.661   2.726  19.011  0.00  0.00    +0.000 C 
ATOM     13  O   UNL     1       4.690   2.645  19.661  0.00  0.00    +0.000 OA
ATOM     14  H   UNL     1       2.246   1.887  20.309  0.00  0.00    +0.000 HD
ENDBRANCH   5   7
BRANCH   1  16
ATOM     15  C   UNL     1       1.939   8.205  18.053  0.00  0.00    +0.000 C 
ATOM     16  O   UNL     1       3.354   8.116  17.948  0.00  0.00    +0.000 OA
ENDBRANCH   1  16
BRANCH   4  17
ATOM     17  O   UNL     1       5.614   3.593  15.664  0.00  0.00    +0.000 OA
ATOM     18  C   UNL     1       6.234   3.794  14.393  0.00  0.00    +0.000 C 
ENDBRANCH   4  17
TORSDOF 3
ENDMDL
MODEL 7
REMARK VINA RESULT:      -6.6      1.637      1.691
REMARK  Name = 
REMARK  5 active torsions:
REMARK  status: ('A' for Active; 'I' for Inactive)
REMARK    1  A    between atoms: C_1  and  O_2
REMARK    2  A    between atoms: O_2  and  C_3
REMARK    3  A    between atoms: C_6  and  O_7
REMARK    4  A    between atoms: O_7  and  C_8
REMARK    5  A    between atoms: C_9  and  C_10
REMARK                            x       y       z     vdW  Elec       q    Type
REMARK                         _______ _______ _______ _____ _____    ______ ____
ROOT
ATOM      1  C   UNL     1       2.945   3.731  19.741  0.00  0.00    +0.000 A 
ATOM      2  C   UNL     1       1.814   4.472  19.415  0.00  0.00    +0.000 A 
ATOM      3  C   UNL     1       1.929   5.667  18.704  0.00  0.00    +0.000 A 
ATOM      4  C   UNL     1       3.180   6.121  18.267  0.00  0.00    +0.000 A 
ATOM      5  C   UNL     1       4.334   5.384  18.582  0.00  0.00    +0.000 A 
ATOM      6  C   UNL     1       4.197   4.204  19.351  0.00  0.00    +0.000 A 
ENDROOT
BRANCH   5   7
ATOM      7  C   UNL     1       5.727   5.761  18.135  0.00  0.00    +0.000 C 
ATOM      8  O   UNL     1       6.006   5.325  16.798  0.00  0.00    +0.000 OA
ATOM      9  C   UNL     1       7.260   4.796  16.780  0.00  0.00    +0.000 C 
ATOM     10  O   UNL     1       7.861   4.488  15.764  0.00  0.00    +0.000 OA
ATOM     11  N   UNL     1       7.750   4.694  18.026  0.00  0.00    +0.000 N 
ATOM     12  C   UNL     1       6.896   5.234  18.925  0.00  0.00    +0.000 C 
ATOM     13  O   UNL     1       7.106   5.345  20.122  0.00  0.00    +0.000 OA
ATOM     14  H   UNL     1       8.661   4.331  18.245  0.00  0.00    +0.000 HD
ENDBRANCH   5   7
BRANCH   1  16
ATOM     15  C   UNL     1       1.885   2.668  21.588  0.00  0.00    +0.000 C 
ATOM     16  O   UNL     1       2.688   2.574  20.420  0.00  0.00    +0.000 OA
ENDBRANCH   1  16
BRANCH   4  17
ATOM     17  O   UNL     1       3.344   7.281  17.556  0.00  0.00    +0.000 OA
ATOM     18  C   UNL     1       2.558   8.387  18.001  0.00  0.00    +0.000 C 
ENDBRANCH   4  17
TORSDOF 3
ENDMDL
MODEL 8
REMARK VINA RESULT:      -6.6      2.111      3.755
REMARK  Name = 
REMARK  5 active torsions:
REMARK  status: ('A' for Active; 'I' for Inactive)
REMARK    1  A    between atoms: C_1  and  O_2
REMARK    2  A    between atoms: O_2  and  C_3
REMARK    3  A    between atoms: C_6  and  O_7
REMARK    4  A    between atoms: O_7  and  C_8
REMARK    5  A    between atoms: C_9  and  C_10
REMARK                            x       y       z     vdW  Elec       q    Type
REMARK                         _______ _______ _______ _____ _____    ______ ____
ROOT
ATOM      1  C   UNL     1       1.933   5.970  20.414  0.00  0.00    +0.000 A 
ATOM      2  C   UNL     1       1.588   4.674  20.779  0.00  0.00    +0.000 A 
ATOM      3  C   UNL     1       2.328   3.585  20.315  0.00  0.00    +0.000 A 
ATOM      4  C   UNL     1       3.457   3.779  19.510  0.00  0.00    +0.000 A 
ATOM      5  C   UNL     1       3.825   5.082  19.134  0.00  0.00    +0.000 A 
ATOM      6  C   UNL     1       3.027   6.166  19.572  0.00  0.00    +0.000 A 
ENDROOT
BRANCH   5   7
ATOM      7  C   UNL     1       5.040   5.411  18.297  0.00  0.00    +0.000 C 
ATOM      8  O   UNL     1       4.966   4.840  16.984  0.00  0.00    +0.000 OA
ATOM      9  C   UNL     1       6.184   4.312  16.685  0.00  0.00    +0.000 C 
ATOM     10  O   UNL     1       6.502   3.901  15.581  0.00  0.00    +0.000 OA
ATOM     11  N   UNL     1       6.989   4.338  17.760  0.00  0.00    +0.000 N 
ATOM     12  C   UNL     1       6.390   4.967  18.795  0.00  0.00    +0.000 C 
ATOM     13  O   UNL     1       6.906   5.201  19.876  0.00  0.00    +0.000 OA
ATOM     14  H   UNL     1       7.935   4.000  17.762  0.00  0.00    +0.000 HD
ENDBRANCH   5   7
BRANCH   1  16
ATOM     15  C   UNL     1       1.476   8.292  20.668  0.00  0.00    +0.000 C 
ATOM     16  O   UNL     1       1.139   6.941  20.953  0.00  0.00    +0.000 OA
ENDBRANCH   1  16
BRANCH   4  17
ATOM     17  O   UNL     1       4.223   2.745  19.039  0.00  0.00    +0.000 OA
ATOM     18  C   UNL     1       3.522   1.764  18.276  0.00  0.00    +0.000 C 
ENDBRANCH   4  17
TORSDOF 3
ENDMDL
MODEL 9
REMARK VINA RESULT:      -6.6      2.380      4.528
REMARK  Name = 
REMARK  5 active torsions:
REMARK  status: ('A' for Active; 'I' for Inactive)
REMARK    1  A    between atoms: C_1  and  O_2
REMARK    2  A    between atoms: O_2  and  C_3
REMARK    3  A    between atoms: C_6  and  O_7
REMARK    4  A    between atoms: O_7  and  C_8
REMARK    5  A    between atoms: C_9  and  C_10
REMARK                            x       y       z     vdW  Elec       q    Type
REMARK                         _______ _______ _______ _____ _____    ______ ____
ROOT
ATOM      1  C   UNL     1       5.675   4.327  15.495  0.00  0.00    +0.000 A 
ATOM      2  C   UNL     1       5.560   5.661  15.122  0.00  0.00    +0.000 A 
ATOM      3  C   UNL     1       4.980   6.592  15.985  0.00  0.00    +0.000 A 
ATOM      4  C   UNL     1       4.542   6.210  17.260  0.00  0.00    +0.000 A 
ATOM      5  C   UNL     1       4.654   4.866  17.657  0.00  0.00    +0.000 A 
ATOM      6  C   UNL     1       5.195   3.931  16.743  0.00  0.00    +0.000 A 
ENDROOT
BRANCH   5   7
ATOM      7  C   UNL     1       4.245   4.349  19.016  0.00  0.00    +0.000 C 
ATOM      8  O   UNL     1       5.207   3.435  19.561  0.00  0.00    +0.000 OA
ATOM      9  C   UNL     1       4.531   2.385  20.103  0.00  0.00    +0.000 C 
ATOM     10  O   UNL     1       5.045   1.520  20.792  0.00  0.00    +0.000 OA
ATOM     11  N   UNL     1       3.224   2.456  19.802  0.00  0.00    +0.000 N 
ATOM     12  C   UNL     1       2.945   3.597  19.132  0.00  0.00    +0.000 C 
ATOM     13  O   UNL     1       1.833   3.962  18.789  0.00  0.00    +0.000 OA
ATOM     14  H   UNL     1       2.541   1.784  20.102  0.00  0.00    +0.000 HD
ENDBRANCH   5   7
BRANCH   1  16
ATOM     15  C   UNL     1       6.058   3.839  13.197  0.00  0.00    +0.000 C 
ATOM     16  O   UNL     1       6.279   3.528  14.567  0.00  0.00    +0.000 OA
ENDBRANCH   1  16
BRANCH   4  17
ATOM     17  O   UNL     1       3.978   7.087  18.147  0.00  0.00    +0.000 OA
ATOM     18  C   UNL     1       2.803   7.754  17.684  0.00  0.00    +0.000 C 
ENDBRANCH   4  17
TORSDOF 3
ENDMDL
