MODEL 1
REMARK VINA RESULT:      -7.5      0.000      0.000
REMARK  Name = 
REMARK  1 active torsions:
REMARK  status: ('A' for Active; 'I' for Inactive)
REMARK    1  A    between atoms: N_4  and  N_5
REMARK                            x       y       z     vdW  Elec       q    Type
REMARK                         _______ _______ _______ _____ _____    ______ ____
ROOT
ATOM      1  N   UNL     1       5.222   3.666  18.242  0.00  0.00    +0.000 NA
ATOM      2  C   UNL     1       3.938   3.849  18.313  0.00  0.00    +0.000 C 
ATOM      3  C   UNL     1       3.044   4.518  17.292  0.00  0.00    +0.000 C 
ATOM      4  C   UNL     1       1.620   4.401  17.854  0.00  0.00    +0.000 C 
ATOM      5  C   UNL     1       1.808   3.784  19.201  0.00  0.00    +0.000 A 
ATOM      6  C   UNL     1       0.827   3.512  20.143  0.00  0.00    +0.000 A 
ATOM      7  C   UNL     1       1.202   2.887  21.336  0.00  0.00    +0.000 A 
ATOM      8  C   UNL     1       2.542   2.538  21.574  0.00  0.00    +0.000 A 
ATOM      9  C   UNL     1       3.528   2.818  20.625  0.00  0.00    +0.000 A 
ATOM     10  C   UNL     1       3.132   3.441  19.455  0.00  0.00    +0.000 A 
ENDROOT
BRANCH   1  14
ATOM     11  N   UNL     1       7.581   4.869  15.808  0.00  0.00    +0.000 NA
ATOM     12  C   UNL     1       7.123   4.459  16.939  0.00  0.00    +0.000 C 
ATOM     13  N   UNL     1       7.872   4.393  18.061  0.00  0.00    +0.000 N 
ATOM     14  N   UNL     1       5.826   4.079  17.089  0.00  0.00    +0.000 N 
ATOM     15  H   UNL     1       8.577   5.065  15.927  0.00  0.00    +0.000 HD
ATOM     16  H   UNL     1       8.545   5.138  18.170  0.00  0.00    +0.000 HD
ATOM     17  H   UNL     1       7.263   4.288  18.867  0.00  0.00    +0.000 HD
ATOM     18  H   UNL     1       5.323   4.105  16.207  0.00  0.00    +0.000 HD
ENDBRANCH   1  14
TORSDOF 1
ENDMDL
MODEL 2
REMARK VINA RESULT:      -7.1      1.253      1.270
REMARK  Name = 
REMARK  1 active torsions:
REMARK  status: ('A' for Active; 'I' for Inactive)
REMARK    1  A    between atoms: N_4  and  N_5
REMARK                            x       y       z     vdW  Elec       q    Type
REMARK                         _______ _______ _______ _____ _____    ______ ____
ROOT
ATOM      1  N   UNL     1       5.100   3.857  17.358  0.00  0.00    +0.000 NA
ATOM      2  C   UNL     1       4.218   4.590  17.967  0.00  0.00    +0.000 C 
ATOM      3  C   UNL     1       3.806   6.008  17.634  0.00  0.00    +0.000 C 
ATOM      4  C   UNL     1       2.689   6.355  18.628  0.00  0.00    +0.000 C 
ATOM      5  C   UNL     1       2.618   5.167  19.530  0.00  0.00    +0.000 A 
ATOM      6  C   UNL     1       1.798   5.001  20.635  0.00  0.00    +0.000 A 
ATOM      7  C   UNL     1       1.851   3.789  21.330  0.00  0.00    +0.000 A 
ATOM      8  C   UNL     1       2.712   2.759  20.914  0.00  0.00    +0.000 A 
ATOM      9  C   UNL     1       3.541   2.932  19.803  0.00  0.00    +0.000 A 
ATOM     10  C   UNL     1       3.474   4.143  19.137  0.00  0.00    +0.000 A 
ENDROOT
BRANCH   1  14
ATOM     11  N   UNL     1       7.454   5.246  15.019  0.00  0.00    +0.000 NA
ATOM     12  C   UNL     1       7.010   4.681  16.087  0.00  0.00    +0.000 C 
ATOM     13  N   UNL     1       7.803   4.332  17.124  0.00  0.00    +0.000 N 
ATOM     14  N   UNL     1       5.687   4.414  16.257  0.00  0.00    +0.000 N 
ATOM     15  H   UNL     1       8.470   5.314  15.102  0.00  0.00    +0.000 HD
ATOM     16  H   UNL     1       8.560   4.971  17.317  0.00  0.00    +0.000 HD
ATOM     17  H   UNL     1       7.227   4.141  17.939  0.00  0.00    +0.000 HD
ATOM     18  H   UNL     1       5.147   4.655  15.432  0.00  0.00    +0.000 HD
ENDBRANCH   1  14
TORSDOF 1
ENDMDL
MODEL 3
REMARK VINA RESULT:      -7.1      1.868      2.329
REMARK  Name = 
REMARK  1 active torsions:
REMARK  status: ('A' for Active; 'I' for Inactive)
REMARK    1  A    between atoms: N_4  and  N_5
REMARK                            x       y       z     vdW  Elec       q    Type
REMARK                         _______ _______ _______ _____ _____    ______ ____
ROOT
ATOM      1  N   UNL     1       5.231   3.943  16.376  0.00  0.00    +0.000 NA
ATOM      2  C   UNL     1       4.308   4.521  17.084  0.00  0.00    +0.000 C 
ATOM      3  C   UNL     1       4.167   5.997  17.389  0.00  0.00    +0.000 C 
ATOM      4  C   UNL     1       2.873   6.127  18.204  0.00  0.00    +0.000 C 
ATOM      5  C   UNL     1       2.427   4.716  18.410  0.00  0.00    +0.000 A 
ATOM      6  C   UNL     1       1.328   4.282  19.134  0.00  0.00    +0.000 A 
ATOM      7  C   UNL     1       1.052   2.912  19.172  0.00  0.00    +0.000 A 
ATOM      8  C   UNL     1       1.869   1.995  18.488  0.00  0.00    +0.000 A 
ATOM      9  C   UNL     1       2.978   2.436  17.764  0.00  0.00    +0.000 A 
ATOM     10  C   UNL     1       3.232   3.796  17.746  0.00  0.00    +0.000 A 
ENDROOT
BRANCH   1  14
ATOM     11  N   UNL     1       7.618   5.439  14.141  0.00  0.00    +0.000 NA
ATOM     12  C   UNL     1       6.730   4.616  14.576  0.00  0.00    +0.000 C 
ATOM     13  N   UNL     1       6.319   3.534  13.880  0.00  0.00    +0.000 N 
ATOM     14  N   UNL     1       6.151   4.770  15.797  0.00  0.00    +0.000 N 
ATOM     15  H   UNL     1       7.882   5.144  13.198  0.00  0.00    +0.000 HD
ATOM     16  H   UNL     1       7.041   3.069  13.347  0.00  0.00    +0.000 HD
ATOM     17  H   UNL     1       5.817   2.904  14.500  0.00  0.00    +0.000 HD
ATOM     18  H   UNL     1       6.462   5.621  16.255  0.00  0.00    +0.000 HD
ENDBRANCH   1  14
TORSDOF 1
ENDMDL
MODEL 4
REMARK VINA RESULT:      -7.0      1.444      1.659
REMARK  Name = 
REMARK  1 active torsions:
REMARK  status: ('A' for Active; 'I' for Inactive)
REMARK    1  A    between atoms: N_4  and  N_5
REMARK                            x       y       z     vdW  Elec       q    Type
REMARK                         _______ _______ _______ _____ _____    ______ ____
ROOT
ATOM      1  N   UNL     1       4.549   4.082  16.657  0.00  0.00    +0.000 NA
ATOM      2  C   UNL     1       3.792   4.644  17.550  0.00  0.00    +0.000 C 
ATOM      3  C   UNL     1       3.799   6.093  17.987  0.00  0.00    +0.000 C 
ATOM      4  C   UNL     1       2.664   6.219  19.013  0.00  0.00    +0.000 C 
ATOM      5  C   UNL     1       2.166   4.821  19.181  0.00  0.00    +0.000 A 
ATOM      6  C   UNL     1       1.171   4.384  20.042  0.00  0.00    +0.000 A 
ATOM      7  C   UNL     1       0.816   3.032  20.020  0.00  0.00    +0.000 A 
ATOM      8  C   UNL     1       1.449   2.137  19.140  0.00  0.00    +0.000 A 
ATOM      9  C   UNL     1       2.455   2.580  18.279  0.00  0.00    +0.000 A 
ATOM     10  C   UNL     1       2.791   3.921  18.324  0.00  0.00    +0.000 A 
ENDROOT
BRANCH   1  14
ATOM     11  N   UNL     1       7.471   5.875  15.571  0.00  0.00    +0.000 NA
ATOM     12  C   UNL     1       6.751   5.035  16.229  0.00  0.00    +0.000 C 
ATOM     13  N   UNL     1       7.243   4.239  17.202  0.00  0.00    +0.000 N 
ATOM     14  N   UNL     1       5.416   4.907  15.999  0.00  0.00    +0.000 N 
ATOM     15  H   UNL     1       8.437   5.772  15.889  0.00  0.00    +0.000 HD
ATOM     16  H   UNL     1       7.958   4.661  17.778  0.00  0.00    +0.000 HD
ATOM     17  H   UNL     1       6.475   3.853  17.743  0.00  0.00    +0.000 HD
ATOM     18  H   UNL     1       5.110   5.493  15.229  0.00  0.00    +0.000 HD
ENDBRANCH   1  14
TORSDOF 1
ENDMDL
MODEL 5
REMARK VINA RESULT:      -6.9      2.208      2.731
REMARK  Name = 
REMARK  1 active torsions:
REMARK  status: ('A' for Active; 'I' for Inactive)
REMARK    1  A    between atoms: N_4  and  N_5
REMARK                            x       y       z     vdW  Elec       q    Type
REMARK                         _______ _______ _______ _____ _____    ______ ____
ROOT
ATOM      1  N   UNL     1       5.751   5.607  17.000  0.00  0.00    +0.000 NA
ATOM      2  C   UNL     1       4.521   5.672  17.412  0.00  0.00    +0.000 C 
ATOM      3  C   UNL     1       3.730   6.912  17.766  0.00  0.00    +0.000 C 
ATOM      4  C   UNL     1       2.323   6.414  18.125  0.00  0.00    +0.000 C 
ATOM      5  C   UNL     1       2.436   4.926  18.067  0.00  0.00    +0.000 A 
ATOM      6  C   UNL     1       1.448   3.999  18.361  0.00  0.00    +0.000 A 
ATOM      7  C   UNL     1       1.739   2.640  18.203  0.00  0.00    +0.000 A 
ATOM      8  C   UNL     1       3.004   2.224  17.752  0.00  0.00    +0.000 A 
ATOM      9  C   UNL     1       3.998   3.161  17.463  0.00  0.00    +0.000 A 
ATOM     10  C   UNL     1       3.686   4.498  17.632  0.00  0.00    +0.000 A 
ENDROOT
BRANCH   1  14
ATOM     11  N   UNL     1       7.914   8.463  17.318  0.00  0.00    +0.000 NA
ATOM     12  C   UNL     1       7.411   7.302  17.557  0.00  0.00    +0.000 C 
ATOM     13  N   UNL     1       7.834   6.505  18.561  0.00  0.00    +0.000 N 
ATOM     14  N   UNL     1       6.386   6.802  16.815  0.00  0.00    +0.000 N 
ATOM     15  H   UNL     1       8.684   8.610  17.974  0.00  0.00    +0.000 HD
ATOM     16  H   UNL     1       8.097   6.988  19.408  0.00  0.00    +0.000 HD
ATOM     17  H   UNL     1       7.149   5.771  18.720  0.00  0.00    +0.000 HD
ATOM     18  H   UNL     1       6.141   7.421  16.048  0.00  0.00    +0.000 HD
ENDBRANCH   1  14
TORSDOF 1
ENDMDL
MODEL 6
REMARK VINA RESULT:      -6.8      1.275      1.373
REMARK  Name = 
REMARK  1 active torsions:
REMARK  status: ('A' for Active; 'I' for Inactive)
REMARK    1  A    between atoms: N_4  and  N_5
REMARK                            x       y       z     vdW  Elec       q    Type
REMARK                         _______ _______ _______ _____ _____    ______ ____
ROOT
ATOM      1  N   UNL     1       4.849   5.515  17.932  0.00  0.00    +0.000 NA
ATOM      2  C   UNL     1       3.953   4.574  17.922  0.00  0.00    +0.000 C 
ATOM      3  C   UNL     1       3.652   3.597  16.806  0.00  0.00    +0.000 C 
ATOM      4  C   UNL     1       2.554   2.674  17.354  0.00  0.00    +0.000 C 
ATOM      5  C   UNL     1       2.221   3.254  18.689  0.00  0.00    +0.000 A 
ATOM      6  C   UNL     1       1.247   2.816  19.573  0.00  0.00    +0.000 A 
ATOM      7  C   UNL     1       1.117   3.470  20.802  0.00  0.00    +0.000 A 
ATOM      8  C   UNL     1       1.960   4.545  21.136  0.00  0.00    +0.000 A 
ATOM      9  C   UNL     1       2.936   4.987  20.240  0.00  0.00    +0.000 A 
ATOM     10  C   UNL     1       3.040   4.326  19.030  0.00  0.00    +0.000 A 
ENDROOT
BRANCH   1  14
ATOM     11  N   UNL     1       7.579   5.246  15.605  0.00  0.00    +0.000 NA
ATOM     12  C   UNL     1       6.897   5.078  16.684  0.00  0.00    +0.000 C 
ATOM     13  N   UNL     1       7.363   4.404  17.758  0.00  0.00    +0.000 N 
ATOM     14  N   UNL     1       5.647   5.596  16.826  0.00  0.00    +0.000 N 
ATOM     15  H   UNL     1       8.463   4.746  15.715  0.00  0.00    +0.000 HD
ATOM     16  H   UNL     1       8.348   4.529  17.945  0.00  0.00    +0.000 HD
ATOM     17  H   UNL     1       6.778   4.607  18.563  0.00  0.00    +0.000 HD
ATOM     18  H   UNL     1       5.330   6.050  15.975  0.00  0.00    +0.000 HD
ENDBRANCH   1  14
TORSDOF 1
ENDMDL
MODEL 7
REMARK VINA RESULT:      -6.8      2.673      5.203
REMARK  Name = 
REMARK  1 active torsions:
REMARK  status: ('A' for Active; 'I' for Inactive)
REMARK    1  A    between atoms: N_4  and  N_5
REMARK                            x       y       z     vdW  Elec       q    Type
REMARK                         _______ _______ _______ _____ _____    ______ ____
ROOT
ATOM      1  N   UNL     1       4.260   3.755  19.314  0.00  0.00    +0.000 NA
ATOM      2  C   UNL     1       4.509   4.752  18.519  0.00  0.00    +0.000 C 
ATOM      3  C   UNL     1       3.605   5.330  17.452  0.00  0.00    +0.000 C 
ATOM      4  C   UNL     1       4.372   6.525  16.868  0.00  0.00    +0.000 C 
ATOM      5  C   UNL     1       5.699   6.478  17.551  0.00  0.00    +0.000 A 
ATOM      6  C   UNL     1       6.782   7.317  17.337  0.00  0.00    +0.000 A 
ATOM      7  C   UNL     1       7.931   7.136  18.114  0.00  0.00    +0.000 A 
ATOM      8  C   UNL     1       7.984   6.130  19.094  0.00  0.00    +0.000 A 
ATOM      9  C   UNL     1       6.893   5.284  19.303  0.00  0.00    +0.000 A 
ATOM     10  C   UNL     1       5.771   5.480  18.518  0.00  0.00    +0.000 A 
ENDROOT
BRANCH   1  14
ATOM     11  N   UNL     1       1.501   1.543  18.654  0.00  0.00    +0.000 NA
ATOM     12  C   UNL     1       2.718   1.955  18.747  0.00  0.00    +0.000 C 
ATOM     13  N   UNL     1       3.782   1.209  18.379  0.00  0.00    +0.000 N 
ATOM     14  N   UNL     1       3.017   3.199  19.209  0.00  0.00    +0.000 N 
ATOM     15  H   UNL     1       1.524   0.578  18.318  0.00  0.00    +0.000 HD
ATOM     16  H   UNL     1       3.637   0.631  17.565  0.00  0.00    +0.000 HD
ATOM     17  H   UNL     1       4.600   1.806  18.301  0.00  0.00    +0.000 HD
ATOM     18  H   UNL     1       2.185   3.696  19.513  0.00  0.00    +0.000 HD
ENDBRANCH   1  14
TORSDOF 1
ENDMDL
MODEL 8
REMARK VINA RESULT:      -6.8      1.953      2.327
REMARK  Name = 
REMARK  1 active torsions:
REMARK  status: ('A' for Active; 'I' for Inactive)
REMARK    1  A    between atoms: N_4  and  N_5
REMARK                            x       y       z     vdW  Elec       q    Type
REMARK                         _______ _______ _______ _____ _____    ______ ____
ROOT
ATOM      1  N   UNL     1       5.980   4.758  18.197  0.00  0.00    +0.000 NA
ATOM      2  C   UNL     1       4.701   4.988  18.199  0.00  0.00    +0.000 C 
ATOM      3  C   UNL     1       4.005   6.330  18.132  0.00  0.00    +0.000 C 
ATOM      4  C   UNL     1       2.503   6.013  18.100  0.00  0.00    +0.000 C 
ATOM      5  C   UNL     1       2.439   4.530  18.268  0.00  0.00    +0.000 A 
ATOM      6  C   UNL     1       1.300   3.745  18.357  0.00  0.00    +0.000 A 
ATOM      7  C   UNL     1       1.450   2.359  18.470  0.00  0.00    +0.000 A 
ATOM      8  C   UNL     1       2.729   1.775  18.487  0.00  0.00    +0.000 A 
ATOM      9  C   UNL     1       3.874   2.569  18.402  0.00  0.00    +0.000 A 
ATOM     10  C   UNL     1       3.697   3.937  18.297  0.00  0.00    +0.000 A 
ENDROOT
BRANCH   1  14
ATOM     11  N   UNL     1       8.443   7.325  18.728  0.00  0.00    +0.000 NA
ATOM     12  C   UNL     1       7.763   6.250  18.928  0.00  0.00    +0.000 C 
ATOM     13  N   UNL     1       7.942   5.450  20.002  0.00  0.00    +0.000 N 
ATOM     14  N   UNL     1       6.787   5.853  18.068  0.00  0.00    +0.000 N 
ATOM     15  H   UNL     1       9.134   7.401  19.478  0.00  0.00    +0.000 HD
ATOM     16  H   UNL     1       8.154   5.933  20.863  0.00  0.00    +0.000 HD
ATOM     17  H   UNL     1       7.151   4.818  20.086  0.00  0.00    +0.000 HD
ATOM     18  H   UNL     1       6.728   6.463  17.259  0.00  0.00    +0.000 HD
ENDBRANCH   1  14
TORSDOF 1
ENDMDL
MODEL 9
REMARK VINA RESULT:      -6.8      1.495      1.918
REMARK  Name = 
REMARK  1 active torsions:
REMARK  status: ('A' for Active; 'I' for Inactive)
REMARK    1  A    between atoms: N_4  and  N_5
REMARK                            x       y       z     vdW  Elec       q    Type
REMARK                         _______ _______ _______ _____ _____    ______ ____
ROOT
ATOM      1  N   UNL     1       5.175   5.115  17.977  0.00  0.00    +0.000 NA
ATOM      2  C   UNL     1       4.227   4.229  18.036  0.00  0.00    +0.000 C 
ATOM      3  C   UNL     1       4.068   2.989  17.184  0.00  0.00    +0.000 C 
ATOM      4  C   UNL     1       2.818   2.278  17.722  0.00  0.00    +0.000 C 
ATOM      5  C   UNL     1       2.284   3.211  18.759  0.00  0.00    +0.000 A 
ATOM      6  C   UNL     1       1.130   3.056  19.510  0.00  0.00    +0.000 A 
ATOM      7  C   UNL     1       0.821   4.027  20.468  0.00  0.00    +0.000 A 
ATOM      8  C   UNL     1       1.665   5.133  20.667  0.00  0.00    +0.000 A 
ATOM      9  C   UNL     1       2.825   5.288  19.904  0.00  0.00    +0.000 A 
ATOM     10  C   UNL     1       3.104   4.316  18.960  0.00  0.00    +0.000 A 
ENDROOT
BRANCH   1  14
ATOM     11  N   UNL     1       7.383   5.233  15.141  0.00  0.00    +0.000 NA
ATOM     12  C   UNL     1       6.438   5.576  15.944  0.00  0.00    +0.000 C 
ATOM     13  N   UNL     1       5.628   6.635  15.726  0.00  0.00    +0.000 N 
ATOM     14  N   UNL     1       6.171   4.869  17.076  0.00  0.00    +0.000 N 
ATOM     15  H   UNL     1       7.417   5.923  14.387  0.00  0.00    +0.000 HD
ATOM     16  H   UNL     1       5.382   6.793  14.760  0.00  0.00    +0.000 HD
ATOM     17  H   UNL     1       4.818   6.571  16.336  0.00  0.00    +0.000 HD
ATOM     18  H   UNL     1       6.837   4.115  17.212  0.00  0.00    +0.000 HD
ENDBRANCH   1  14
TORSDOF 1
ENDMDL
