MODEL 1
REMARK VINA RESULT:      -8.1      0.000      0.000
REMARK  Name = 
REMARK  4 active torsions:
REMARK  status: ('A' for Active; 'I' for Inactive)
REMARK    1  A    between atoms: C_1  and  C_2
REMARK    2  A    between atoms: C_3  and  C_4
REMARK    3  A    between atoms: N_9  and  C_10
REMARK    4  A    between atoms: C_13  and  N_14
REMARK                            x       y       z     vdW  Elec       q    Type
REMARK                         _______ _______ _______ _____ _____    ______ ____
ROOT
ATOM      1  C   UNL     1       0.592  11.632  19.052  0.00  0.00    +0.000 C 
ATOM      2  O   UNL     1       0.618  12.214  17.966  0.00  0.00    +0.000 OA
ATOM      3  N   UNL     1       1.010  10.297  19.179  0.00  0.00    +0.000 N 
ATOM      4  C   UNL     1       1.473   9.627  17.951  0.00  0.00    +0.000 C 
ATOM      5  C   UNL     1       2.532   8.557  18.264  0.00  0.00    +0.000 C 
ATOM      6  N   UNL     1       1.956   7.559  19.187  0.00  0.00    +0.000 N 
ATOM      7  C   UNL     1       1.485   8.151  20.454  0.00  0.00    +0.000 C 
ATOM      8  C   UNL     1       0.536   9.345  20.206  0.00  0.00    +0.000 C 
ENDROOT
BRANCH   1  11
ATOM      9  C   UNL     1       2.614  13.605  20.224  0.00  0.00    +0.000 C 
ATOM     10  C   UNL     1       1.237  13.363  20.772  0.00  0.00    +0.000 A 
ATOM     11  C   UNL     1       0.275  12.478  20.227  0.00  0.00    +0.000 A 
ATOM     12  N   UNL     1      -1.027  12.476  20.707  0.00  0.00    +0.000 N 
ATOM     13  O   UNL     1      -1.970  11.839  20.129  0.00  0.00    +0.000 OA
ATOM     14  C   UNL     1      -1.345  13.235  21.861  0.00  0.00    +0.000 A 
ATOM     15  C   UNL     1      -2.642  13.211  22.426  0.00  0.00    +0.000 A 
ATOM     16  C   UNL     1      -2.972  14.001  23.533  0.00  0.00    +0.000 A 
ATOM     17 CL   UNL     1      -4.592  13.922  24.124  0.00  0.00    +0.000 Cl
ATOM     18  C   UNL     1      -2.005  14.825  24.109  0.00  0.00    +0.000 A 
ATOM     19 CL   UNL     1      -2.345  15.868  25.441  0.00  0.00    +0.000 Cl
ATOM     20  C   UNL     1      -0.710  14.834  23.588  0.00  0.00    +0.000 A 
ATOM     21  C   UNL     1      -0.366  14.048  22.463  0.00  0.00    +0.000 A 
ATOM     22  N   UNL     1       0.927  14.099  21.915  0.00  0.00    +0.000 N 
ATOM     23  O   UNL     1       1.814  14.822  22.477  0.00  0.00    +0.000 OA
ENDBRANCH   1  11
BRANCH   6  24
ATOM     24  C   UNL     1       2.593   6.319  19.315  0.00  0.00    +0.000 A 
ATOM     25  C   UNL     1       3.667   5.912  18.519  0.00  0.00    +0.000 A 
ATOM     26  C   UNL     1       4.220   4.632  18.631  0.00  0.00    +0.000 A 
ATOM     27  C   UNL     1       3.684   3.738  19.563  0.00  0.00    +0.000 A 
ATOM     28  C   UNL     1       2.628   4.114  20.383  0.00  0.00    +0.000 A 
ATOM     29  C   UNL     1       2.091   5.402  20.262  0.00  0.00    +0.000 A 
BRANCH  27  30
ATOM     30  N   UNL     1       4.229   2.370  19.657  0.00  0.00    +0.000 N 
ATOM     31  O   UNL     1       3.774   1.510  18.884  0.00  0.00    +0.000 OA
ATOM     32  O   UNL     1       5.116   2.157  20.494  0.00  0.00    +0.000 OA
ENDBRANCH  27  30
ENDBRANCH   6  24
TORSDOF 3
ENDMDL
MODEL 2
REMARK VINA RESULT:      -7.8      5.678     11.000
REMARK  Name = 
REMARK  4 active torsions:
REMARK  status: ('A' for Active; 'I' for Inactive)
REMARK    1  A    between atoms: C_1  and  C_2
REMARK    2  A    between atoms: C_3  and  C_4
REMARK    3  A    between atoms: N_9  and  C_10
REMARK    4  A    between atoms: C_13  and  N_14
REMARK                            x       y       z     vdW  Elec       q    Type
REMARK                         _______ _______ _______ _____ _____    ______ ____
ROOT
ATOM      1  C   UNL     1       3.617   4.664  19.075  0.00  0.00    +0.000 C 
ATOM      2  O   UNL     1       3.682   3.641  19.759  0.00  0.00    +0.000 OA
ATOM      3  N   UNL     1       2.828   5.759  19.467  0.00  0.00    +0.000 N 
ATOM      4  C   UNL     1       2.079   5.619  20.728  0.00  0.00    +0.000 C 
ATOM      5  C   UNL     1       1.888   6.981  21.417  0.00  0.00    +0.000 C 
ATOM      6  N   UNL     1       1.161   7.887  20.506  0.00  0.00    +0.000 N 
ATOM      7  C   UNL     1       1.859   8.095  19.222  0.00  0.00    +0.000 C 
ATOM      8  C   UNL     1       2.228   6.752  18.552  0.00  0.00    +0.000 C 
ENDROOT
BRANCH   1  11
ATOM      9  C   UNL     1       6.497   5.643  19.399  0.00  0.00    +0.000 C 
ATOM     10  C   UNL     1       5.877   5.219  18.098  0.00  0.00    +0.000 A 
ATOM     11  C   UNL     1       4.557   4.734  17.932  0.00  0.00    +0.000 A 
ATOM     12  N   UNL     1       4.155   4.196  16.717  0.00  0.00    +0.000 N 
ATOM     13  O   UNL     1       3.048   3.579  16.572  0.00  0.00    +0.000 OA
ATOM     14  C   UNL     1       5.014   4.297  15.593  0.00  0.00    +0.000 A 
ATOM     15  C   UNL     1       4.621   3.824  14.319  0.00  0.00    +0.000 A 
ATOM     16  C   UNL     1       5.487   3.874  13.221  0.00  0.00    +0.000 A 
ATOM     17 CL   UNL     1       4.920   3.239  11.719  0.00  0.00    +0.000 Cl
ATOM     18  C   UNL     1       6.765   4.411  13.372  0.00  0.00    +0.000 A 
ATOM     19 CL   UNL     1       7.911   4.460  12.082  0.00  0.00    +0.000 Cl
ATOM     20  C   UNL     1       7.158   4.916  14.612  0.00  0.00    +0.000 A 
ATOM     21  C   UNL     1       6.296   4.863  15.733  0.00  0.00    +0.000 A 
ATOM     22  N   UNL     1       6.715   5.329  16.990  0.00  0.00    +0.000 N 
ATOM     23  O   UNL     1       7.871   5.858  17.105  0.00  0.00    +0.000 OA
ENDBRANCH   1  11
BRANCH   6  24
ATOM     24  C   UNL     1       0.556   9.031  21.041  0.00  0.00    +0.000 A 
ATOM     25  C   UNL     1       0.590  10.286  20.428  0.00  0.00    +0.000 A 
ATOM     26  C   UNL     1       0.039  11.417  21.040  0.00  0.00    +0.000 A 
ATOM     27  C   UNL     1      -0.562  11.287  22.295  0.00  0.00    +0.000 A 
ATOM     28  C   UNL     1      -0.631  10.051  22.926  0.00  0.00    +0.000 A 
ATOM     29  C   UNL     1      -0.079   8.928  22.296  0.00  0.00    +0.000 A 
BRANCH  27  30
ATOM     30  N   UNL     1      -1.104  12.482  22.971  0.00  0.00    +0.000 N 
ATOM     31  O   UNL     1      -0.323  13.418  23.211  0.00  0.00    +0.000 OA
ATOM     32  O   UNL     1      -2.310  12.489  23.252  0.00  0.00    +0.000 OA
ENDBRANCH  27  30
ENDBRANCH   6  24
TORSDOF 3
ENDMDL
MODEL 3
REMARK VINA RESULT:      -7.7      1.272      1.657
REMARK  Name = 
REMARK  4 active torsions:
REMARK  status: ('A' for Active; 'I' for Inactive)
REMARK    1  A    between atoms: C_1  and  C_2
REMARK    2  A    between atoms: C_3  and  C_4
REMARK    3  A    between atoms: N_9  and  C_10
REMARK    4  A    between atoms: C_13  and  N_14
REMARK                            x       y       z     vdW  Elec       q    Type
REMARK                         _______ _______ _______ _____ _____    ______ ____
ROOT
ATOM      1  C   UNL     1      -0.681  11.997  19.004  0.00  0.00    +0.000 C 
ATOM      2  O   UNL     1      -0.963  12.503  17.916  0.00  0.00    +0.000 OA
ATOM      3  N   UNL     1       0.009  10.776  19.088  0.00  0.00    +0.000 N 
ATOM      4  C   UNL     1       0.369  10.129  17.815  0.00  0.00    +0.000 C 
ATOM      5  C   UNL     1       1.657   9.300  17.955  0.00  0.00    +0.000 C 
ATOM      6  N   UNL     1       1.462   8.273  18.997  0.00  0.00    +0.000 N 
ATOM      7  C   UNL     1       1.117   8.845  20.312  0.00  0.00    +0.000 C 
ATOM      8  C   UNL     1      -0.078   9.820  20.212  0.00  0.00    +0.000 C 
ENDROOT
BRANCH   1  11
ATOM      9  C   UNL     1       1.524  13.628  20.359  0.00  0.00    +0.000 C 
ATOM     10  C   UNL     1       0.097  13.565  20.823  0.00  0.00    +0.000 A 
ATOM     11  C   UNL     1      -0.945  12.842  20.192  0.00  0.00    +0.000 A 
ATOM     12  N   UNL     1      -2.261  13.008  20.603  0.00  0.00    +0.000 N 
ATOM     13  O   UNL     1      -3.247  12.529  19.951  0.00  0.00    +0.000 OA
ATOM     14  C   UNL     1      -2.537  13.767  21.768  0.00  0.00    +0.000 A 
ATOM     15  C   UNL     1      -3.854  13.908  22.262  0.00  0.00    +0.000 A 
ATOM     16  C   UNL     1      -4.136  14.701  23.380  0.00  0.00    +0.000 A 
ATOM     17 CL   UNL     1      -5.783  14.832  23.880  0.00  0.00    +0.000 Cl
ATOM     18  C   UNL     1      -3.099  15.362  24.038  0.00  0.00    +0.000 A 
ATOM     19 CL   UNL     1      -3.368  16.400  25.390  0.00  0.00    +0.000 Cl
ATOM     20  C   UNL     1      -1.787  15.206  23.587  0.00  0.00    +0.000 A 
ATOM     21  C   UNL     1      -1.490  14.415  22.452  0.00  0.00    +0.000 A 
ATOM     22  N   UNL     1      -0.174  14.301  21.975  0.00  0.00    +0.000 N 
ATOM     23  O   UNL     1       0.772  14.874  22.612  0.00  0.00    +0.000 OA
ENDBRANCH   1  11
BRANCH   6  24
ATOM     24  C   UNL     1       2.344   7.186  19.038  0.00  0.00    +0.000 A 
ATOM     25  C   UNL     1       2.315   6.200  20.028  0.00  0.00    +0.000 A 
ATOM     26  C   UNL     1       3.267   5.176  20.073  0.00  0.00    +0.000 A 
ATOM     27  C   UNL     1       4.272   5.139  19.102  0.00  0.00    +0.000 A 
ATOM     28  C   UNL     1       4.321   6.091  18.092  0.00  0.00    +0.000 A 
ATOM     29  C   UNL     1       3.356   7.106  18.059  0.00  0.00    +0.000 A 
BRANCH  27  30
ATOM     30  N   UNL     1       5.309   4.091  19.167  0.00  0.00    +0.000 N 
ATOM     31  O   UNL     1       6.451   4.379  18.771  0.00  0.00    +0.000 OA
ATOM     32  O   UNL     1       4.987   2.985  19.622  0.00  0.00    +0.000 OA
ENDBRANCH  27  30
ENDBRANCH   6  24
TORSDOF 3
ENDMDL
MODEL 4
REMARK VINA RESULT:      -7.4      1.189      1.284
REMARK  Name = 
REMARK  4 active torsions:
REMARK  status: ('A' for Active; 'I' for Inactive)
REMARK    1  A    between atoms: C_1  and  C_2
REMARK    2  A    between atoms: C_3  and  C_4
REMARK    3  A    between atoms: N_9  and  C_10
REMARK    4  A    between atoms: C_13  and  N_14
REMARK                            x       y       z     vdW  Elec       q    Type
REMARK                         _______ _______ _______ _____ _____    ______ ____
ROOT
ATOM      1  C   UNL     1      -0.632  12.166  19.332  0.00  0.00    +0.000 C 
ATOM      2  O   UNL     1      -1.116  12.612  18.290  0.00  0.00    +0.000 OA
ATOM      3  N   UNL     1       0.033  10.929  19.362  0.00  0.00    +0.000 N 
ATOM      4  C   UNL     1       0.114  10.189  18.090  0.00  0.00    +0.000 C 
ATOM      5  C   UNL     1       1.384   9.325  18.027  0.00  0.00    +0.000 C 
ATOM      6  N   UNL     1       1.380   8.373  19.155  0.00  0.00    +0.000 N 
ATOM      7  C   UNL     1       1.320   9.040  20.470  0.00  0.00    +0.000 C 
ATOM      8  C   UNL     1       0.152  10.049  20.543  0.00  0.00    +0.000 C 
ENDROOT
BRANCH   1  11
ATOM      9  C   UNL     1       1.928  13.508  20.336  0.00  0.00    +0.000 C 
ATOM     10  C   UNL     1       0.571  13.681  20.955  0.00  0.00    +0.000 A 
ATOM     11  C   UNL     1      -0.631  13.094  20.488  0.00  0.00    +0.000 A 
ATOM     12  N   UNL     1      -1.852  13.473  21.028  0.00  0.00    +0.000 N 
ATOM     13  O   UNL     1      -2.966  13.119  20.518  0.00  0.00    +0.000 OA
ATOM     14  C   UNL     1      -1.878  14.317  22.166  0.00  0.00    +0.000 A 
ATOM     15  C   UNL     1      -3.095  14.676  22.791  0.00  0.00    +0.000 A 
ATOM     16  C   UNL     1      -3.127  15.552  23.882  0.00  0.00    +0.000 A 
ATOM     17 CL   UNL     1      -4.668  15.951  24.549  0.00  0.00    +0.000 Cl
ATOM     18  C   UNL     1      -1.937  16.079  24.381  0.00  0.00    +0.000 A 
ATOM     19 CL   UNL     1      -1.894  17.206  25.688  0.00  0.00    +0.000 Cl
ATOM     20  C   UNL     1      -0.723  15.708  23.801  0.00  0.00    +0.000 A 
ATOM     21  C   UNL     1      -0.677  14.831  22.691  0.00  0.00    +0.000 A 
ATOM     22  N   UNL     1       0.545  14.500  22.082  0.00  0.00    +0.000 N 
ATOM     23  O   UNL     1       1.631  14.953  22.576  0.00  0.00    +0.000 OA
ENDBRANCH   1  11
BRANCH   6  24
ATOM     24  C   UNL     1       2.227   7.260  19.095  0.00  0.00    +0.000 A 
ATOM     25  C   UNL     1       3.134   7.029  18.058  0.00  0.00    +0.000 A 
ATOM     26  C   UNL     1       3.904   5.862  18.001  0.00  0.00    +0.000 A 
ATOM     27  C   UNL     1       3.761   4.904  19.008  0.00  0.00    +0.000 A 
ATOM     28  C   UNL     1       2.883   5.108  20.065  0.00  0.00    +0.000 A 
ATOM     29  C   UNL     1       2.125   6.284  20.109  0.00  0.00    +0.000 A 
BRANCH  27  30
ATOM     30  N   UNL     1       4.533   3.648  18.933  0.00  0.00    +0.000 N 
ATOM     31  O   UNL     1       3.990   2.664  18.403  0.00  0.00    +0.000 OA
ATOM     32  O   UNL     1       5.682   3.647  19.394  0.00  0.00    +0.000 OA
ENDBRANCH  27  30
ENDBRANCH   6  24
TORSDOF 3
ENDMDL
MODEL 5
REMARK VINA RESULT:      -7.4      1.330      1.758
REMARK  Name = 
REMARK  4 active torsions:
REMARK  status: ('A' for Active; 'I' for Inactive)
REMARK    1  A    between atoms: C_1  and  C_2
REMARK    2  A    between atoms: C_3  and  C_4
REMARK    3  A    between atoms: N_9  and  C_10
REMARK    4  A    between atoms: C_13  and  N_14
REMARK                            x       y       z     vdW  Elec       q    Type
REMARK                         _______ _______ _______ _____ _____    ______ ____
ROOT
ATOM      1  C   UNL     1      -0.418  12.099  19.131  0.00  0.00    +0.000 C 
ATOM      2  O   UNL     1      -1.013  12.438  18.107  0.00  0.00    +0.000 OA
ATOM      3  N   UNL     1       0.241  10.862  19.221  0.00  0.00    +0.000 N 
ATOM      4  C   UNL     1       0.177   9.989  18.036  0.00  0.00    +0.000 C 
ATOM      5  C   UNL     1       1.430   9.103  17.926  0.00  0.00    +0.000 C 
ATOM      6  N   UNL     1       1.547   8.277  19.145  0.00  0.00    +0.000 N 
ATOM      7  C   UNL     1       1.637   9.082  20.379  0.00  0.00    +0.000 C 
ATOM      8  C   UNL     1       0.488  10.112  20.470  0.00  0.00    +0.000 C 
ENDROOT
BRANCH   1  11
ATOM      9  C   UNL     1       1.509  14.456  18.829  0.00  0.00    +0.000 C 
ATOM     10  C   UNL     1       0.636  14.211  20.026  0.00  0.00    +0.000 A 
ATOM     11  C   UNL     1      -0.285  13.145  20.173  0.00  0.00    +0.000 A 
ATOM     12  N   UNL     1      -1.171  13.125  21.241  0.00  0.00    +0.000 N 
ATOM     13  O   UNL     1      -2.137  12.295  21.315  0.00  0.00    +0.000 OA
ATOM     14  C   UNL     1      -1.032  14.081  22.278  0.00  0.00    +0.000 A 
ATOM     15  C   UNL     1      -1.869  14.059  23.419  0.00  0.00    +0.000 A 
ATOM     16  C   UNL     1      -1.770  15.034  24.418  0.00  0.00    +0.000 A 
ATOM     17 CL   UNL     1      -2.861  14.934  25.751  0.00  0.00    +0.000 Cl
ATOM     18  C   UNL     1      -0.819  16.048  24.303  0.00  0.00    +0.000 A 
ATOM     19 CL   UNL     1      -0.667  17.317  25.464  0.00  0.00    +0.000 Cl
ATOM     20  C   UNL     1       0.040  16.065  23.203  0.00  0.00    +0.000 A 
ATOM     21  C   UNL     1      -0.056  15.091  22.181  0.00  0.00    +0.000 A 
ATOM     22  N   UNL     1       0.779  15.143  21.053  0.00  0.00    +0.000 N 
ATOM     23  O   UNL     1       1.674  16.049  20.981  0.00  0.00    +0.000 OA
ENDBRANCH   1  11
BRANCH   6  24
ATOM     24  C   UNL     1       2.378   7.151  19.112  0.00  0.00    +0.000 A 
ATOM     25  C   UNL     1       2.314   6.111  20.044  0.00  0.00    +0.000 A 
ATOM     26  C   UNL     1       3.218   5.044  20.018  0.00  0.00    +0.000 A 
ATOM     27  C   UNL     1       4.210   5.018  19.033  0.00  0.00    +0.000 A 
ATOM     28  C   UNL     1       4.293   6.024  18.079  0.00  0.00    +0.000 A 
ATOM     29  C   UNL     1       3.375   7.081  18.117  0.00  0.00    +0.000 A 
BRANCH  27  30
ATOM     30  N   UNL     1       5.198   3.921  19.024  0.00  0.00    +0.000 N 
ATOM     31  O   UNL     1       6.275   4.116  18.435  0.00  0.00    +0.000 OA
ATOM     32  O   UNL     1       4.904   2.872  19.613  0.00  0.00    +0.000 OA
ENDBRANCH  27  30
ENDBRANCH   6  24
TORSDOF 3
ENDMDL
MODEL 6
REMARK VINA RESULT:      -7.3      2.141      2.817
REMARK  Name = 
REMARK  4 active torsions:
REMARK  status: ('A' for Active; 'I' for Inactive)
REMARK    1  A    between atoms: C_1  and  C_2
REMARK    2  A    between atoms: C_3  and  C_4
REMARK    3  A    between atoms: N_9  and  C_10
REMARK    4  A    between atoms: C_13  and  N_14
REMARK                            x       y       z     vdW  Elec       q    Type
REMARK                         _______ _______ _______ _____ _____    ______ ____
ROOT
ATOM      1  C   UNL     1      -0.664  12.662  19.270  0.00  0.00    +0.000 C 
ATOM      2  O   UNL     1      -0.356  13.674  18.638  0.00  0.00    +0.000 OA
ATOM      3  N   UNL     1       0.021  11.449  19.091  0.00  0.00    +0.000 N 
ATOM      4  C   UNL     1       1.117  11.445  18.107  0.00  0.00    +0.000 C 
ATOM      5  C   UNL     1       2.206  10.428  18.488  0.00  0.00    +0.000 C 
ATOM      6  N   UNL     1       1.606   9.082  18.566  0.00  0.00    +0.000 N 
ATOM      7  C   UNL     1       0.508   8.998  19.549  0.00  0.00    +0.000 C 
ATOM      8  C   UNL     1      -0.547  10.103  19.319  0.00  0.00    +0.000 C 
ENDROOT
BRANCH   1  11
ATOM      9  C   UNL     1       0.069  13.951  21.946  0.00  0.00    +0.000 C 
ATOM     10  C   UNL     1      -1.294  13.428  21.591  0.00  0.00    +0.000 A 
ATOM     11  C   UNL     1      -1.661  12.857  20.348  0.00  0.00    +0.000 A 
ATOM     12  N   UNL     1      -2.993  12.580  20.070  0.00  0.00    +0.000 N 
ATOM     13  O   UNL     1      -3.395  12.246  18.907  0.00  0.00    +0.000 OA
ATOM     14  C   UNL     1      -3.960  12.707  21.099  0.00  0.00    +0.000 A 
ATOM     15  C   UNL     1      -5.317  12.373  20.882  0.00  0.00    +0.000 A 
ATOM     16  C   UNL     1      -6.283  12.549  21.879  0.00  0.00    +0.000 A 
ATOM     17 CL   UNL     1      -7.917  12.141  21.499  0.00  0.00    +0.000 Cl
ATOM     18  C   UNL     1      -5.908  13.052  23.124  0.00  0.00    +0.000 A 
ATOM     19 CL   UNL     1      -7.045  13.347  24.389  0.00  0.00    +0.000 Cl
ATOM     20  C   UNL     1      -4.567  13.353  23.370  0.00  0.00    +0.000 A 
ATOM     21  C   UNL     1      -3.582  13.189  22.367  0.00  0.00    +0.000 A 
ATOM     22  N   UNL     1      -2.243  13.540  22.606  0.00  0.00    +0.000 N 
ATOM     23  O   UNL     1      -1.905  13.957  23.763  0.00  0.00    +0.000 OA
ENDBRANCH   1  11
BRANCH   6  24
ATOM     24  C   UNL     1       2.453   7.968  18.531  0.00  0.00    +0.000 A 
ATOM     25  C   UNL     1       3.395   7.740  17.523  0.00  0.00    +0.000 A 
ATOM     26  C   UNL     1       4.164   6.572  17.488  0.00  0.00    +0.000 A 
ATOM     27  C   UNL     1       3.987   5.610  18.486  0.00  0.00    +0.000 A 
ATOM     28  C   UNL     1       3.074   5.811  19.513  0.00  0.00    +0.000 A 
ATOM     29  C   UNL     1       2.317   6.989  19.537  0.00  0.00    +0.000 A 
BRANCH  27  30
ATOM     30  N   UNL     1       4.760   4.354  18.432  0.00  0.00    +0.000 N 
ATOM     31  O   UNL     1       4.736   3.703  17.374  0.00  0.00    +0.000 OA
ATOM     32  O   UNL     1       5.397   4.024  19.441  0.00  0.00    +0.000 OA
ENDBRANCH  27  30
ENDBRANCH   6  24
TORSDOF 3
ENDMDL
MODEL 7
REMARK VINA RESULT:      -7.2      2.142      2.898
REMARK  Name = 
REMARK  4 active torsions:
REMARK  status: ('A' for Active; 'I' for Inactive)
REMARK    1  A    between atoms: C_1  and  C_2
REMARK    2  A    between atoms: C_3  and  C_4
REMARK    3  A    between atoms: N_9  and  C_10
REMARK    4  A    between atoms: C_13  and  N_14
REMARK                            x       y       z     vdW  Elec       q    Type
REMARK                         _______ _______ _______ _____ _____    ______ ____
ROOT
ATOM      1  C   UNL     1      -0.658  12.382  18.977  0.00  0.00    +0.000 C 
ATOM      2  O   UNL     1      -0.390  13.336  18.244  0.00  0.00    +0.000 OA
ATOM      3  N   UNL     1       0.042  11.168  18.886  0.00  0.00    +0.000 N 
ATOM      4  C   UNL     1       1.103  11.088  17.867  0.00  0.00    +0.000 C 
ATOM      5  C   UNL     1       2.222  10.126  18.300  0.00  0.00    +0.000 C 
ATOM      6  N   UNL     1       1.648   8.785  18.524  0.00  0.00    +0.000 N 
ATOM      7  C   UNL     1       0.587   8.777  19.550  0.00  0.00    +0.000 C 
ATOM      8  C   UNL     1      -0.494   9.841  19.258  0.00  0.00    +0.000 C 
ENDROOT
BRANCH   1  11
ATOM      9  C   UNL     1       0.205  13.685  21.607  0.00  0.00    +0.000 C 
ATOM     10  C   UNL     1      -1.194  13.239  21.291  0.00  0.00    +0.000 A 
ATOM     11  C   UNL     1      -1.619  12.663  20.069  0.00  0.00    +0.000 A 
ATOM     12  N   UNL     1      -2.971  12.462  19.822  0.00  0.00    +0.000 N 
ATOM     13  O   UNL     1      -3.416  12.125  18.675  0.00  0.00    +0.000 OA
ATOM     14  C   UNL     1      -3.908  12.671  20.865  0.00  0.00    +0.000 A 
ATOM     15  C   UNL     1      -5.287  12.415  20.681  0.00  0.00    +0.000 A 
ATOM     16  C   UNL     1      -6.220  12.672  21.692  0.00  0.00    +0.000 A 
ATOM     17 CL   UNL     1      -7.882  12.357  21.352  0.00  0.00    +0.000 Cl
ATOM     18  C   UNL     1      -5.790  13.180  22.918  0.00  0.00    +0.000 A 
ATOM     19 CL   UNL     1      -6.882  13.574  24.195  0.00  0.00    +0.000 Cl
ATOM     20  C   UNL     1      -4.429  13.404  23.131  0.00  0.00    +0.000 A 
ATOM     21  C   UNL     1      -3.476  13.158  22.114  0.00  0.00    +0.000 A 
ATOM     22  N   UNL     1      -2.114  13.432  22.319  0.00  0.00    +0.000 N 
ATOM     23  O   UNL     1      -1.728  13.854  23.460  0.00  0.00    +0.000 OA
ENDBRANCH   1  11
BRANCH   6  24
ATOM     24  C   UNL     1       2.513   7.684  18.561  0.00  0.00    +0.000 A 
ATOM     25  C   UNL     1       2.507   6.725  19.576  0.00  0.00    +0.000 A 
ATOM     26  C   UNL     1       3.443   5.686  19.611  0.00  0.00    +0.000 A 
ATOM     27  C   UNL     1       4.408   5.606  18.603  0.00  0.00    +0.000 A 
ATOM     28  C   UNL     1       4.433   6.531  17.567  0.00  0.00    +0.000 A 
ATOM     29  C   UNL     1       3.484   7.561  17.545  0.00  0.00    +0.000 A 
BRANCH  27  30
ATOM     30  N   UNL     1       5.430   4.542  18.655  0.00  0.00    +0.000 N 
ATOM     31  O   UNL     1       5.271   3.625  19.479  0.00  0.00    +0.000 OA
ATOM     32  O   UNL     1       6.383   4.616  17.868  0.00  0.00    +0.000 OA
ENDBRANCH  27  30
ENDBRANCH   6  24
TORSDOF 3
ENDMDL
MODEL 8
REMARK VINA RESULT:      -6.8      3.301      4.509
REMARK  Name = 
REMARK  4 active torsions:
REMARK  status: ('A' for Active; 'I' for Inactive)
REMARK    1  A    between atoms: C_1  and  C_2
REMARK    2  A    between atoms: C_3  and  C_4
REMARK    3  A    between atoms: N_9  and  C_10
REMARK    4  A    between atoms: C_13  and  N_14
REMARK                            x       y       z     vdW  Elec       q    Type
REMARK                         _______ _______ _______ _____ _____    ______ ____
ROOT
ATOM      1  C   UNL     1      -2.079  12.242  22.714  0.00  0.00    +0.000 C 
ATOM      2  O   UNL     1      -2.528  11.879  23.802  0.00  0.00    +0.000 OA
ATOM      3  N   UNL     1      -1.168  11.451  21.995  0.00  0.00    +0.000 N 
ATOM      4  C   UNL     1      -0.771  10.173  22.610  0.00  0.00    +0.000 C 
ATOM      5  C   UNL     1      -0.430   9.121  21.540  0.00  0.00    +0.000 C 
ATOM      6  N   UNL     1       0.670   9.628  20.695  0.00  0.00    +0.000 N 
ATOM      7  C   UNL     1       0.341  10.901  20.026  0.00  0.00    +0.000 C 
ATOM      8  C   UNL     1      -0.167  11.958  21.032  0.00  0.00    +0.000 C 
ENDROOT
BRANCH   1  11
ATOM      9  C   UNL     1      -0.789  15.005  22.970  0.00  0.00    +0.000 C 
ATOM     10  C   UNL     1      -2.101  14.732  22.293  0.00  0.00    +0.000 A 
ATOM     11  C   UNL     1      -2.700  13.458  22.137  0.00  0.00    +0.000 A 
ATOM     12  N   UNL     1      -3.821  13.304  21.332  0.00  0.00    +0.000 N 
ATOM     13  O   UNL     1      -4.282  12.159  21.010  0.00  0.00    +0.000 OA
ATOM     14  C   UNL     1      -4.467  14.454  20.811  0.00  0.00    +0.000 A 
ATOM     15  C   UNL     1      -5.649  14.351  20.041  0.00  0.00    +0.000 A 
ATOM     16  C   UNL     1      -6.258  15.479  19.481  0.00  0.00    +0.000 A 
ATOM     17 CL   UNL     1      -7.679  15.239  18.531  0.00  0.00    +0.000 Cl
ATOM     18  C   UNL     1      -5.702  16.741  19.689  0.00  0.00    +0.000 A 
ATOM     19 CL   UNL     1      -6.360  18.175  18.990  0.00  0.00    +0.000 Cl
ATOM     20  C   UNL     1      -4.556  16.867  20.476  0.00  0.00    +0.000 A 
ATOM     21  C   UNL     1      -3.925  15.733  21.041  0.00  0.00    +0.000 A 
ATOM     22  N   UNL     1      -2.744  15.862  21.791  0.00  0.00    +0.000 N 
ATOM     23  O   UNL     1      -2.270  17.026  22.012  0.00  0.00    +0.000 OA
ENDBRANCH   1  11
BRANCH   6  24
ATOM     24  C   UNL     1       1.386   8.716  19.911  0.00  0.00    +0.000 A 
ATOM     25  C   UNL     1       1.840   7.479  20.377  0.00  0.00    +0.000 A 
ATOM     26  C   UNL     1       2.621   6.636  19.580  0.00  0.00    +0.000 A 
ATOM     27  C   UNL     1       2.954   7.041  18.284  0.00  0.00    +0.000 A 
ATOM     28  C   UNL     1       2.505   8.255  17.781  0.00  0.00    +0.000 A 
ATOM     29  C   UNL     1       1.719   9.084  18.591  0.00  0.00    +0.000 A 
BRANCH  27  30
ATOM     30  N   UNL     1       3.816   6.180  17.451  0.00  0.00    +0.000 N 
ATOM     31  O   UNL     1       4.809   6.700  16.913  0.00  0.00    +0.000 OA
ATOM     32  O   UNL     1       3.509   4.986  17.343  0.00  0.00    +0.000 OA
ENDBRANCH  27  30
ENDBRANCH   6  24
TORSDOF 3
ENDMDL
MODEL 9
REMARK VINA RESULT:      -6.8      2.122      3.058
REMARK  Name = 
REMARK  4 active torsions:
REMARK  status: ('A' for Active; 'I' for Inactive)
REMARK    1  A    between atoms: C_1  and  C_2
REMARK    2  A    between atoms: C_3  and  C_4
REMARK    3  A    between atoms: N_9  and  C_10
REMARK    4  A    between atoms: C_13  and  N_14
REMARK                            x       y       z     vdW  Elec       q    Type
REMARK                         _______ _______ _______ _____ _____    ______ ____
ROOT
ATOM      1  C   UNL     1      -0.395  12.393  19.357  0.00  0.00    +0.000 C 
ATOM      2  O   UNL     1      -0.771  12.828  18.268  0.00  0.00    +0.000 OA
ATOM      3  N   UNL     1       0.165  11.111  19.482  0.00  0.00    +0.000 N 
ATOM      4  C   UNL     1       0.270  10.311  18.250  0.00  0.00    +0.000 C 
ATOM      5  C   UNL     1       1.469   9.349  18.309  0.00  0.00    +0.000 C 
ATOM      6  N   UNL     1       1.313   8.451  19.471  0.00  0.00    +0.000 N 
ATOM      7  C   UNL     1       1.219   9.179  20.752  0.00  0.00    +0.000 C 
ATOM      8  C   UNL     1       0.134  10.279  20.703  0.00  0.00    +0.000 C 
ENDROOT
BRANCH   1  11
ATOM      9  C   UNL     1      -2.774  12.686  21.259  0.00  0.00    +0.000 C 
ATOM     10  C   UNL     1      -1.519  13.509  21.323  0.00  0.00    +0.000 A 
ATOM     11  C   UNL     1      -0.395  13.369  20.473  0.00  0.00    +0.000 A 
ATOM     12  N   UNL     1       0.779  14.058  20.744  0.00  0.00    +0.000 N 
ATOM     13  O   UNL     1       1.870  13.824  20.125  0.00  0.00    +0.000 OA
ATOM     14  C   UNL     1       0.791  15.036  21.771  0.00  0.00    +0.000 A 
ATOM     15  C   UNL     1       1.945  15.810  22.039  0.00  0.00    +0.000 A 
ATOM     16  C   UNL     1       1.976  16.737  23.087  0.00  0.00    +0.000 A 
ATOM     17 CL   UNL     1       3.445  17.605  23.349  0.00  0.00    +0.000 Cl
ATOM     18  C   UNL     1       0.846  16.920  23.883  0.00  0.00    +0.000 A 
ATOM     19 CL   UNL     1       0.820  18.003  25.226  0.00  0.00    +0.000 Cl
ATOM     20  C   UNL     1      -0.313  16.192  23.611  0.00  0.00    +0.000 A 
ATOM     21  C   UNL     1      -0.355  15.244  22.561  0.00  0.00    +0.000 A 
ATOM     22  N   UNL     1      -1.510  14.480  22.323  0.00  0.00    +0.000 N 
ATOM     23  O   UNL     1      -2.551  14.688  23.030  0.00  0.00    +0.000 OA
ENDBRANCH   1  11
BRANCH   6  24
ATOM     24  C   UNL     1       2.069   7.274  19.515  0.00  0.00    +0.000 A 
ATOM     25  C   UNL     1       3.036   6.937  18.564  0.00  0.00    +0.000 A 
ATOM     26  C   UNL     1       3.711   5.712  18.606  0.00  0.00    +0.000 A 
ATOM     27  C   UNL     1       3.411   4.804  19.625  0.00  0.00    +0.000 A 
ATOM     28  C   UNL     1       2.469   5.113  20.598  0.00  0.00    +0.000 A 
ATOM     29  C   UNL     1       1.807   6.346  20.544  0.00  0.00    +0.000 A 
BRANCH  27  30
ATOM     30  N   UNL     1       4.083   3.490  19.651  0.00  0.00    +0.000 N 
ATOM     31  O   UNL     1       5.305   3.459  19.429  0.00  0.00    +0.000 OA
ATOM     32  O   UNL     1       3.393   2.493  19.904  0.00  0.00    +0.000 OA
ENDBRANCH  27  30
ENDBRANCH   6  24
TORSDOF 3
ENDMDL
