MODEL 1
REMARK VINA RESULT:      -7.0      0.000      0.000
REMARK  Name = 
REMARK  8 active torsions:
REMARK  status: ('A' for Active; 'I' for Inactive)
REMARK    1  A    between atoms: C_1  and  O_2
REMARK    2  A    between atoms: O_2  and  C_3
REMARK    3  A    between atoms: C_5  and  O_6
REMARK    4  A    between atoms: O_6  and  C_7
REMARK    5  A    between atoms: N_13  and  S_14
REMARK    6  A    between atoms: S_14  and  C_17
REMARK    7  A    between atoms: C_21  and  C_22
REMARK    8  A    between atoms: C_22  and  C_23
REMARK                            x       y       z     vdW  Elec       q    Type
REMARK                         _______ _______ _______ _____ _____    ______ ____
ROOT
ATOM      1  C   UNL     1       1.047   8.948  20.753  0.00  0.00    +0.000 A 
ATOM      2  C   UNL     1       1.562   9.287  19.522  0.00  0.00    +0.000 A 
ATOM      3  C   UNL     1       2.109   8.252  18.810  0.00  0.00    +0.000 A 
ATOM      4  N   UNL     1       2.176   7.004  19.299  0.00  0.00    +0.000 NA
ATOM      5  C   UNL     1       1.651   6.780  20.508  0.00  0.00    +0.000 A 
ATOM      6  N   UNL     1       1.745   5.519  21.060  0.00  0.00    +0.000 N 
ATOM      7  C   UNL     1       2.530   4.490  20.642  0.00  0.00    +0.000 C 
ATOM      8  O   UNL     1       2.513   3.430  21.260  0.00  0.00    +0.000 OA
ATOM      9  N   UNL     1       3.347   4.688  19.542  0.00  0.00    +0.000 N 
ATOM     10  N   UNL     1       1.053   7.703  21.258  0.00  0.00    +0.000 NA
ATOM     11  H   UNL     1       1.254   5.381  21.928  0.00  0.00    +0.000 HD
ATOM     12  H   UNL     1       3.236   5.537  18.981  0.00  0.00    +0.000 HD
ENDROOT
BRANCH   9  13
ATOM     13  S   UNL     1       4.383   3.563  18.918  0.00  0.00    +0.000 S 
ATOM     14  O   UNL     1       5.056   2.927  20.030  0.00  0.00    +0.000 OA
ATOM     15  O   UNL     1       3.675   2.775  17.933  0.00  0.00    +0.000 OA
BRANCH  13  16
ATOM     16  C   UNL     1       5.651   4.457  18.030  0.00  0.00    +0.000 A 
ATOM     17  S   UNL     1       6.658   5.402  19.055  0.00  0.00    +0.000 S 
ATOM     18  C   UNL     1       7.486   6.083  17.737  0.00  0.00    +0.000 A 
ATOM     19  C   UNL     1       7.038   5.583  16.537  0.00  0.00    +0.000 A 
ATOM     20  C   UNL     1       5.968   4.628  16.684  0.00  0.00    +0.000 A 
BRANCH  20  21
ATOM     21  C   UNL     1       5.267   3.993  15.510  0.00  0.00    +0.000 C 
BRANCH  21  22
ATOM     22  C   UNL     1       6.066   4.108  14.276  0.00  0.00    +0.000 C 
ATOM     23  N   UNL     1       6.698   4.222  13.308  0.00  0.00    +0.000 NA
ENDBRANCH  21  22
ENDBRANCH  20  21
ENDBRANCH  13  16
ENDBRANCH   9  13
BRANCH   1  25
ATOM     24  C   UNL     1      -0.103   9.558  22.706  0.00  0.00    +0.000 C 
ATOM     25  O   UNL     1       0.505   9.984  21.489  0.00  0.00    +0.000 OA
ENDBRANCH   1  25
BRANCH   3  26
ATOM     26  O   UNL     1       2.653   8.328  17.565  0.00  0.00    +0.000 OA
ATOM     27  C   UNL     1       3.763   7.494  17.279  0.00  0.00    +0.000 C 
ENDBRANCH   3  26
TORSDOF 6
ENDMDL
MODEL 2
REMARK VINA RESULT:      -6.9      1.528      2.163
REMARK  Name = 
REMARK  8 active torsions:
REMARK  status: ('A' for Active; 'I' for Inactive)
REMARK    1  A    between atoms: C_1  and  O_2
REMARK    2  A    between atoms: O_2  and  C_3
REMARK    3  A    between atoms: C_5  and  O_6
REMARK    4  A    between atoms: O_6  and  C_7
REMARK    5  A    between atoms: N_13  and  S_14
REMARK    6  A    between atoms: S_14  and  C_17
REMARK    7  A    between atoms: C_21  and  C_22
REMARK    8  A    between atoms: C_22  and  C_23
REMARK                            x       y       z     vdW  Elec       q    Type
REMARK                         _______ _______ _______ _____ _____    ______ ____
ROOT
ATOM      1  C   UNL     1       1.158   9.007  20.567  0.00  0.00    +0.000 A 
ATOM      2  C   UNL     1       1.631   9.305  19.310  0.00  0.00    +0.000 A 
ATOM      3  C   UNL     1       2.150   8.247  18.611  0.00  0.00    +0.000 A 
ATOM      4  N   UNL     1       2.229   7.014  19.136  0.00  0.00    +0.000 NA
ATOM      5  C   UNL     1       1.745   6.830  20.368  0.00  0.00    +0.000 A 
ATOM      6  N   UNL     1       1.854   5.585  20.955  0.00  0.00    +0.000 N 
ATOM      7  C   UNL     1       2.619   4.540  20.543  0.00  0.00    +0.000 C 
ATOM      8  O   UNL     1       2.620   3.499  21.192  0.00  0.00    +0.000 OA
ATOM      9  N   UNL     1       3.398   4.701  19.409  0.00  0.00    +0.000 N 
ATOM     10  N   UNL     1       1.177   7.778  21.110  0.00  0.00    +0.000 NA
ATOM     11  H   UNL     1       1.392   5.477  21.843  0.00  0.00    +0.000 HD
ATOM     12  H   UNL     1       3.272   5.532  18.826  0.00  0.00    +0.000 HD
ENDROOT
BRANCH   9  13
ATOM     13  S   UNL     1       4.408   3.552  18.785  0.00  0.00    +0.000 S 
ATOM     14  O   UNL     1       5.338   3.176  19.827  0.00  0.00    +0.000 OA
ATOM     15  O   UNL     1       3.612   2.552  18.108  0.00  0.00    +0.000 OA
BRANCH  13  16
ATOM     16  C   UNL     1       5.390   4.351  17.522  0.00  0.00    +0.000 A 
ATOM     17  S   UNL     1       4.846   4.014  15.926  0.00  0.00    +0.000 S 
ATOM     18  C   UNL     1       6.155   4.844  15.226  0.00  0.00    +0.000 A 
ATOM     19  C   UNL     1       6.976   5.400  16.179  0.00  0.00    +0.000 A 
ATOM     20  C   UNL     1       6.547   5.128  17.528  0.00  0.00    +0.000 A 
BRANCH  20  21
ATOM     21  C   UNL     1       7.322   5.574  18.742  0.00  0.00    +0.000 C 
BRANCH  21  22
ATOM     22  C   UNL     1       7.907   6.913  18.548  0.00  0.00    +0.000 C 
ATOM     23  N   UNL     1       8.370   7.971  18.420  0.00  0.00    +0.000 NA
ENDBRANCH  21  22
ENDBRANCH  20  21
ENDBRANCH  13  16
ENDBRANCH   9  13
BRANCH   1  25
ATOM     24  C   UNL     1       0.139   9.691  22.568  0.00  0.00    +0.000 C 
ATOM     25  O   UNL     1       0.646  10.068  21.289  0.00  0.00    +0.000 OA
ENDBRANCH   1  25
BRANCH   3  26
ATOM     26  O   UNL     1       2.650   8.282  17.347  0.00  0.00    +0.000 OA
ATOM     27  C   UNL     1       3.841   7.557  17.089  0.00  0.00    +0.000 C 
ENDBRANCH   3  26
TORSDOF 6
ENDMDL
MODEL 3
REMARK VINA RESULT:      -6.8      3.315      6.970
REMARK  Name = 
REMARK  8 active torsions:
REMARK  status: ('A' for Active; 'I' for Inactive)
REMARK    1  A    between atoms: C_1  and  O_2
REMARK    2  A    between atoms: O_2  and  C_3
REMARK    3  A    between atoms: C_5  and  O_6
REMARK    4  A    between atoms: O_6  and  C_7
REMARK    5  A    between atoms: N_13  and  S_14
REMARK    6  A    between atoms: S_14  and  C_17
REMARK    7  A    between atoms: C_21  and  C_22
REMARK    8  A    between atoms: C_22  and  C_23
REMARK                            x       y       z     vdW  Elec       q    Type
REMARK                         _______ _______ _______ _____ _____    ______ ____
ROOT
ATOM      1  C   UNL     1       7.662   5.185  13.947  0.00  0.00    +0.000 A 
ATOM      2  C   UNL     1       6.763   4.527  13.140  0.00  0.00    +0.000 A 
ATOM      3  C   UNL     1       5.669   4.007  13.781  0.00  0.00    +0.000 A 
ATOM      4  N   UNL     1       5.509   4.098  15.110  0.00  0.00    +0.000 NA
ATOM      5  C   UNL     1       6.444   4.755  15.806  0.00  0.00    +0.000 A 
ATOM      6  N   UNL     1       6.334   4.825  17.180  0.00  0.00    +0.000 N 
ATOM      7  C   UNL     1       5.513   4.098  17.983  0.00  0.00    +0.000 C 
ATOM      8  O   UNL     1       5.552   4.268  19.197  0.00  0.00    +0.000 OA
ATOM      9  N   UNL     1       4.674   3.166  17.396  0.00  0.00    +0.000 N 
ATOM     10  N   UNL     1       7.516   5.338  15.274  0.00  0.00    +0.000 NA
ATOM     11  H   UNL     1       7.011   5.407  17.645  0.00  0.00    +0.000 HD
ATOM     12  H   UNL     1       4.578   3.147  16.377  0.00  0.00    +0.000 HD
ENDROOT
BRANCH   9  13
ATOM     13  S   UNL     1       3.635   2.178  18.218  0.00  0.00    +0.000 S 
ATOM     14  O   UNL     1       2.608   1.756  17.290  0.00  0.00    +0.000 OA
ATOM     15  O   UNL     1       4.408   1.206  18.960  0.00  0.00    +0.000 OA
BRANCH  13  16
ATOM     16  C   UNL     1       2.805   3.193  19.434  0.00  0.00    +0.000 A 
ATOM     17  S   UNL     1       2.823   2.511  21.012  0.00  0.00    +0.000 S 
ATOM     18  C   UNL     1       1.830   3.742  21.636  0.00  0.00    +0.000 A 
ATOM     19  C   UNL     1       1.513   4.677  20.679  0.00  0.00    +0.000 A 
ATOM     20  C   UNL     1       2.075   4.379  19.385  0.00  0.00    +0.000 A 
BRANCH  20  21
ATOM     21  C   UNL     1       1.811   5.220  18.162  0.00  0.00    +0.000 C 
BRANCH  21  22
ATOM     22  C   UNL     1       2.863   6.233  17.964  0.00  0.00    +0.000 C 
ATOM     23  N   UNL     1       3.703   7.025  17.830  0.00  0.00    +0.000 NA
ENDBRANCH  21  22
ENDBRANCH  20  21
ENDBRANCH  13  16
ENDBRANCH   9  13
BRANCH   1  25
ATOM     24  C   UNL     1       8.499   6.253  12.031  0.00  0.00    +0.000 C 
ATOM     25  O   UNL     1       8.778   5.701  13.316  0.00  0.00    +0.000 OA
ENDBRANCH   1  25
BRANCH   3  26
ATOM     26  O   UNL     1       4.634   3.343  13.201  0.00  0.00    +0.000 OA
ATOM     27  C   UNL     1       4.573   3.324  11.784  0.00  0.00    +0.000 C 
ENDBRANCH   3  26
TORSDOF 6
ENDMDL
MODEL 4
REMARK VINA RESULT:      -6.5      0.992      1.090
REMARK  Name = 
REMARK  8 active torsions:
REMARK  status: ('A' for Active; 'I' for Inactive)
REMARK    1  A    between atoms: C_1  and  O_2
REMARK    2  A    between atoms: O_2  and  C_3
REMARK    3  A    between atoms: C_5  and  O_6
REMARK    4  A    between atoms: O_6  and  C_7
REMARK    5  A    between atoms: N_13  and  S_14
REMARK    6  A    between atoms: S_14  and  C_17
REMARK    7  A    between atoms: C_21  and  C_22
REMARK    8  A    between atoms: C_22  and  C_23
REMARK                            x       y       z     vdW  Elec       q    Type
REMARK                         _______ _______ _______ _____ _____    ______ ____
ROOT
ATOM      1  C   UNL     1       0.660   8.405  21.297  0.00  0.00    +0.000 A 
ATOM      2  C   UNL     1       1.218   9.088  20.241  0.00  0.00    +0.000 A 
ATOM      3  C   UNL     1       1.922   8.320  19.351  0.00  0.00    +0.000 A 
ATOM      4  N   UNL     1       2.091   7.000  19.524  0.00  0.00    +0.000 NA
ATOM      5  C   UNL     1       1.511   6.432  20.586  0.00  0.00    +0.000 A 
ATOM      6  N   UNL     1       1.704   5.085  20.818  0.00  0.00    +0.000 N 
ATOM      7  C   UNL     1       2.623   4.269  20.237  0.00  0.00    +0.000 C 
ATOM      8  O   UNL     1       2.679   3.090  20.571  0.00  0.00    +0.000 OA
ATOM      9  N   UNL     1       3.487   4.811  19.300  0.00  0.00    +0.000 N 
ATOM     10  N   UNL     1       0.766   7.078  21.480  0.00  0.00    +0.000 NA
ATOM     11  H   UNL     1       1.173   4.690  21.576  0.00  0.00    +0.000 HD
ATOM     12  H   UNL     1       3.323   5.761  18.956  0.00  0.00    +0.000 HD
ENDROOT
BRANCH   9  13
ATOM     13  S   UNL     1       4.680   3.976  18.519  0.00  0.00    +0.000 S 
ATOM     14  O   UNL     1       5.317   3.115  19.492  0.00  0.00    +0.000 OA
ATOM     15  O   UNL     1       4.140   3.434  17.291  0.00  0.00    +0.000 OA
BRANCH  13  16
ATOM     16  C   UNL     1       5.922   5.169  18.039  0.00  0.00    +0.000 A 
ATOM     17  S   UNL     1       7.040   5.527  19.296  0.00  0.00    +0.000 S 
ATOM     18  C   UNL     1       7.805   6.732  18.373  0.00  0.00    +0.000 A 
ATOM     19  C   UNL     1       7.251   6.845  17.119  0.00  0.00    +0.000 A 
ATOM     20  C   UNL     1       6.152   5.938  16.900  0.00  0.00    +0.000 A 
BRANCH  20  21
ATOM     21  C   UNL     1       5.342   5.923  15.628  0.00  0.00    +0.000 C 
BRANCH  21  22
ATOM     22  C   UNL     1       5.745   4.814  14.744  0.00  0.00    +0.000 C 
ATOM     23  N   UNL     1       6.041   3.943  14.034  0.00  0.00    +0.000 NA
ENDBRANCH  21  22
ENDBRANCH  20  21
ENDBRANCH  13  16
ENDBRANCH   9  13
BRANCH   1  25
ATOM     24  C   UNL     1      -0.287  10.501  21.766  0.00  0.00    +0.000 C 
ATOM     25  O   UNL     1      -0.041   9.169  22.211  0.00  0.00    +0.000 OA
ENDBRANCH   1  25
BRANCH   3  26
ATOM     26  O   UNL     1       2.538   8.756  18.220  0.00  0.00    +0.000 OA
ATOM     27  C   UNL     1       2.142  10.013  17.696  0.00  0.00    +0.000 C 
ENDBRANCH   3  26
TORSDOF 6
ENDMDL
MODEL 5
REMARK VINA RESULT:      -6.4      2.992      4.871
REMARK  Name = 
REMARK  8 active torsions:
REMARK  status: ('A' for Active; 'I' for Inactive)
REMARK    1  A    between atoms: C_1  and  O_2
REMARK    2  A    between atoms: O_2  and  C_3
REMARK    3  A    between atoms: C_5  and  O_6
REMARK    4  A    between atoms: O_6  and  C_7
REMARK    5  A    between atoms: N_13  and  S_14
REMARK    6  A    between atoms: S_14  and  C_17
REMARK    7  A    between atoms: C_21  and  C_22
REMARK    8  A    between atoms: C_22  and  C_23
REMARK                            x       y       z     vdW  Elec       q    Type
REMARK                         _______ _______ _______ _____ _____    ______ ____
ROOT
ATOM      1  C   UNL     1      -0.022  10.278  18.796  0.00  0.00    +0.000 A 
ATOM      2  C   UNL     1      -0.081   9.844  20.100  0.00  0.00    +0.000 A 
ATOM      3  C   UNL     1       0.888   8.948  20.465  0.00  0.00    +0.000 A 
ATOM      4  N   UNL     1       1.805   8.493  19.596  0.00  0.00    +0.000 NA
ATOM      5  C   UNL     1       1.773   8.974  18.349  0.00  0.00    +0.000 A 
ATOM      6  N   UNL     1       2.671   8.492  17.418  0.00  0.00    +0.000 N 
ATOM      7  C   UNL     1       3.458   7.389  17.523  0.00  0.00    +0.000 C 
ATOM      8  O   UNL     1       4.194   7.083  16.590  0.00  0.00    +0.000 OA
ATOM      9  N   UNL     1       3.380   6.630  18.679  0.00  0.00    +0.000 N 
ATOM     10  N   UNL     1       0.906   9.883  17.909  0.00  0.00    +0.000 NA
ATOM     11  H   UNL     1       2.665   8.953  16.523  0.00  0.00    +0.000 HD
ATOM     12  H   UNL     1       2.855   6.989  19.481  0.00  0.00    +0.000 HD
ENDROOT
BRANCH   9  13
ATOM     13  S   UNL     1       4.239   5.248  18.962  0.00  0.00    +0.000 S 
ATOM     14  O   UNL     1       4.462   4.604  17.686  0.00  0.00    +0.000 OA
ATOM     15  O   UNL     1       5.347   5.560  19.838  0.00  0.00    +0.000 OA
BRANCH  13  16
ATOM     16  C   UNL     1       3.168   4.149  19.880  0.00  0.00    +0.000 A 
ATOM     17  S   UNL     1       1.831   4.953  20.604  0.00  0.00    +0.000 S 
ATOM     18  C   UNL     1       1.318   3.541  21.400  0.00  0.00    +0.000 A 
ATOM     19  C   UNL     1       2.120   2.465  21.100  0.00  0.00    +0.000 A 
ATOM     20  C   UNL     1       3.205   2.796  20.211  0.00  0.00    +0.000 A 
BRANCH  20  21
ATOM     21  C   UNL     1       4.256   1.799  19.792  0.00  0.00    +0.000 C 
BRANCH  21  22
ATOM     22  C   UNL     1       5.090   1.380  20.933  0.00  0.00    +0.000 C 
ATOM     23  N   UNL     1       5.750   1.028  21.822  0.00  0.00    +0.000 NA
ENDBRANCH  21  22
ENDBRANCH  20  21
ENDBRANCH  13  16
ENDBRANCH   9  13
BRANCH   1  25
ATOM     24  C   UNL     1      -1.920  10.633  17.460  0.00  0.00    +0.000 C 
ATOM     25  O   UNL     1      -1.003  11.172  18.410  0.00  0.00    +0.000 OA
ENDBRANCH   1  25
BRANCH   3  26
ATOM     26  O   UNL     1       1.057   8.398  21.697  0.00  0.00    +0.000 OA
ATOM     27  C   UNL     1       0.605   9.140  22.818  0.00  0.00    +0.000 C 
ENDBRANCH   3  26
TORSDOF 6
ENDMDL
MODEL 6
REMARK VINA RESULT:      -6.3      3.970      7.631
REMARK  Name = 
REMARK  8 active torsions:
REMARK  status: ('A' for Active; 'I' for Inactive)
REMARK    1  A    between atoms: C_1  and  O_2
REMARK    2  A    between atoms: O_2  and  C_3
REMARK    3  A    between atoms: C_5  and  O_6
REMARK    4  A    between atoms: O_6  and  C_7
REMARK    5  A    between atoms: N_13  and  S_14
REMARK    6  A    between atoms: S_14  and  C_17
REMARK    7  A    between atoms: C_21  and  C_22
REMARK    8  A    between atoms: C_22  and  C_23
REMARK                            x       y       z     vdW  Elec       q    Type
REMARK                         _______ _______ _______ _____ _____    ______ ____
ROOT
ATOM      1  C   UNL     1       2.078   4.843  19.565  0.00  0.00    +0.000 A 
ATOM      2  C   UNL     1       2.756   5.318  18.467  0.00  0.00    +0.000 A 
ATOM      3  C   UNL     1       2.911   6.679  18.416  0.00  0.00    +0.000 A 
ATOM      4  N   UNL     1       2.398   7.492  19.353  0.00  0.00    +0.000 NA
ATOM      5  C   UNL     1       1.752   6.930  20.379  0.00  0.00    +0.000 A 
ATOM      6  N   UNL     1       1.171   7.740  21.334  0.00  0.00    +0.000 N 
ATOM      7  C   UNL     1       0.949   9.079  21.259  0.00  0.00    +0.000 C 
ATOM      8  O   UNL     1       0.400   9.652  22.194  0.00  0.00    +0.000 OA
ATOM      9  N   UNL     1       1.331   9.747  20.107  0.00  0.00    +0.000 N 
ATOM     10  N   UNL     1       1.590   5.619  20.547  0.00  0.00    +0.000 NA
ATOM     11  H   UNL     1       0.779   7.266  22.131  0.00  0.00    +0.000 HD
ATOM     12  H   UNL     1       1.900   9.260  19.410  0.00  0.00    +0.000 HD
ENDROOT
BRANCH   9  13
ATOM     13  S   UNL     1       1.111  11.361  19.833  0.00  0.00    +0.000 S 
ATOM     14  O   UNL     1       1.367  12.053  21.078  0.00  0.00    +0.000 OA
ATOM     15  O   UNL     1       1.816  11.728  18.624  0.00  0.00    +0.000 OA
BRANCH  13  16
ATOM     16  C   UNL     1      -0.628  11.599  19.494  0.00  0.00    +0.000 A 
ATOM     17  S   UNL     1      -1.377  12.727  20.554  0.00  0.00    +0.000 S 
ATOM     18  C   UNL     1      -2.917  12.432  19.899  0.00  0.00    +0.000 A 
ATOM     19  C   UNL     1      -2.870  11.522  18.870  0.00  0.00    +0.000 A 
ATOM     20  C   UNL     1      -1.541  11.024  18.613  0.00  0.00    +0.000 A 
BRANCH  20  21
ATOM     21  C   UNL     1      -1.246   9.967  17.579  0.00  0.00    +0.000 C 
BRANCH  21  22
ATOM     22  C   UNL     1      -2.251   9.969  16.501  0.00  0.00    +0.000 C 
ATOM     23  N   UNL     1      -3.031   9.989  15.640  0.00  0.00    +0.000 NA
ENDBRANCH  21  22
ENDBRANCH  20  21
ENDBRANCH  13  16
ENDBRANCH   9  13
BRANCH   1  25
ATOM     24  C   UNL     1       2.442   2.784  18.497  0.00  0.00    +0.000 C 
ATOM     25  O   UNL     1       1.901   3.473  19.622  0.00  0.00    +0.000 OA
ENDBRANCH   1  25
BRANCH   3  26
ATOM     26  O   UNL     1       3.565   7.381  17.452  0.00  0.00    +0.000 OA
ATOM     27  C   UNL     1       4.683   6.767  16.833  0.00  0.00    +0.000 C 
ENDBRANCH   3  26
TORSDOF 6
ENDMDL
MODEL 7
REMARK VINA RESULT:      -6.2      1.856      2.257
REMARK  Name = 
REMARK  8 active torsions:
REMARK  status: ('A' for Active; 'I' for Inactive)
REMARK    1  A    between atoms: C_1  and  O_2
REMARK    2  A    between atoms: O_2  and  C_3
REMARK    3  A    between atoms: C_5  and  O_6
REMARK    4  A    between atoms: O_6  and  C_7
REMARK    5  A    between atoms: N_13  and  S_14
REMARK    6  A    between atoms: S_14  and  C_17
REMARK    7  A    between atoms: C_21  and  C_22
REMARK    8  A    between atoms: C_22  and  C_23
REMARK                            x       y       z     vdW  Elec       q    Type
REMARK                         _______ _______ _______ _____ _____    ______ ____
ROOT
ATOM      1  C   UNL     1       0.763   9.316  19.994  0.00  0.00    +0.000 A 
ATOM      2  C   UNL     1       1.415   9.601  18.816  0.00  0.00    +0.000 A 
ATOM      3  C   UNL     1       2.221   8.602  18.336  0.00  0.00    +0.000 A 
ATOM      4  N   UNL     1       2.393   7.444  18.993  0.00  0.00    +0.000 NA
ATOM      5  C   UNL     1       1.717   7.269  20.132  0.00  0.00    +0.000 A 
ATOM      6  N   UNL     1       1.908   6.109  20.857  0.00  0.00    +0.000 N 
ATOM      7  C   UNL     1       2.895   5.189  20.699  0.00  0.00    +0.000 C 
ATOM      8  O   UNL     1       2.937   4.215  21.445  0.00  0.00    +0.000 OA
ATOM      9  N   UNL     1       3.843   5.401  19.711  0.00  0.00    +0.000 N 
ATOM     10  N   UNL     1       0.872   8.153  20.657  0.00  0.00    +0.000 NA
ATOM     11  H   UNL     1       1.307   5.987  21.655  0.00  0.00    +0.000 HD
ATOM     12  H   UNL     1       3.699   6.151  19.031  0.00  0.00    +0.000 HD
ENDROOT
BRANCH   9  13
ATOM     13  S   UNL     1       5.124   4.405  19.401  0.00  0.00    +0.000 S 
ATOM     14  O   UNL     1       6.310   5.045  19.926  0.00  0.00    +0.000 OA
ATOM     15  O   UNL     1       4.772   3.059  19.795  0.00  0.00    +0.000 OA
BRANCH  13  16
ATOM     16  C   UNL     1       5.338   4.369  17.626  0.00  0.00    +0.000 A 
ATOM     17  S   UNL     1       6.670   5.313  17.085  0.00  0.00    +0.000 S 
ATOM     18  C   UNL     1       6.293   5.040  15.449  0.00  0.00    +0.000 A 
ATOM     19  C   UNL     1       5.199   4.220  15.307  0.00  0.00    +0.000 A 
ATOM     20  C   UNL     1       4.626   3.813  16.565  0.00  0.00    +0.000 A 
BRANCH  20  21
ATOM     21  C   UNL     1       3.380   2.969  16.665  0.00  0.00    +0.000 C 
BRANCH  21  22
ATOM     22  C   UNL     1       2.244   3.742  17.197  0.00  0.00    +0.000 C 
ATOM     23  N   UNL     1       1.349   4.338  17.636  0.00  0.00    +0.000 NA
ENDBRANCH  21  22
ENDBRANCH  20  21
ENDBRANCH  13  16
ENDBRANCH   9  13
BRANCH   1  25
ATOM     24  C   UNL     1       0.563  11.611  20.450  0.00  0.00    +0.000 C 
ATOM     25  O   UNL     1      -0.043  10.320  20.498  0.00  0.00    +0.000 OA
ENDBRANCH   1  25
BRANCH   3  26
ATOM     26  O   UNL     1       2.944   8.632  17.184  0.00  0.00    +0.000 OA
ATOM     27  C   UNL     1       3.950   7.648  17.011  0.00  0.00    +0.000 C 
ENDBRANCH   3  26
TORSDOF 6
ENDMDL
MODEL 8
REMARK VINA RESULT:      -6.2      8.171     11.011
REMARK  Name = 
REMARK  8 active torsions:
REMARK  status: ('A' for Active; 'I' for Inactive)
REMARK    1  A    between atoms: C_1  and  O_2
REMARK    2  A    between atoms: O_2  and  C_3
REMARK    3  A    between atoms: C_5  and  O_6
REMARK    4  A    between atoms: O_6  and  C_7
REMARK    5  A    between atoms: N_13  and  S_14
REMARK    6  A    between atoms: S_14  and  C_17
REMARK    7  A    between atoms: C_21  and  C_22
REMARK    8  A    between atoms: C_22  and  C_23
REMARK                            x       y       z     vdW  Elec       q    Type
REMARK                         _______ _______ _______ _____ _____    ______ ____
ROOT
ATOM      1  C   UNL     1      -2.992  10.366  15.708  0.00  0.00    +0.000 A 
ATOM      2  C   UNL     1      -1.961  10.057  16.566  0.00  0.00    +0.000 A 
ATOM      3  C   UNL     1      -2.179  10.370  17.882  0.00  0.00    +0.000 A 
ATOM      4  N   UNL     1      -3.303  10.974  18.296  0.00  0.00    +0.000 NA
ATOM      5  C   UNL     1      -4.242  11.236  17.381  0.00  0.00    +0.000 A 
ATOM      6  N   UNL     1      -5.390  11.900  17.765  0.00  0.00    +0.000 N 
ATOM      7  C   UNL     1      -5.612  12.561  18.932  0.00  0.00    +0.000 C 
ATOM      8  O   UNL     1      -6.689  13.121  19.113  0.00  0.00    +0.000 OA
ATOM      9  N   UNL     1      -4.594  12.600  19.872  0.00  0.00    +0.000 N 
ATOM     10  N   UNL     1      -4.150  10.928  16.089  0.00  0.00    +0.000 NA
ATOM     11  H   UNL     1      -6.103  11.989  17.060  0.00  0.00    +0.000 HD
ATOM     12  H   UNL     1      -3.766  12.015  19.739  0.00  0.00    +0.000 HD
ENDROOT
BRANCH   9  13
ATOM     13  S   UNL     1      -4.679  13.380  21.326  0.00  0.00    +0.000 S 
ATOM     14  O   UNL     1      -5.266  14.681  21.088  0.00  0.00    +0.000 OA
ATOM     15  O   UNL     1      -5.247  12.478  22.304  0.00  0.00    +0.000 OA
BRANCH  13  16
ATOM     16  C   UNL     1      -2.998  13.693  21.847  0.00  0.00    +0.000 A 
ATOM     17  S   UNL     1      -2.361  15.168  21.231  0.00  0.00    +0.000 S 
ATOM     18  C   UNL     1      -0.820  14.858  21.879  0.00  0.00    +0.000 A 
ATOM     19  C   UNL     1      -0.789  13.676  22.581  0.00  0.00    +0.000 A 
ATOM     20  C   UNL     1      -2.052  12.980  22.580  0.00  0.00    +0.000 A 
BRANCH  20  21
ATOM     21  C   UNL     1      -2.246  11.632  23.225  0.00  0.00    +0.000 C 
BRANCH  21  22
ATOM     22  C   UNL     1      -1.010  10.830  23.187  0.00  0.00    +0.000 C 
ATOM     23  N   UNL     1      -0.049  10.178  23.152  0.00  0.00    +0.000 NA
ENDBRANCH  21  22
ENDBRANCH  20  21
ENDBRANCH  13  16
ENDBRANCH   9  13
BRANCH   1  25
ATOM     24  C   UNL     1      -3.983   9.984  13.614  0.00  0.00    +0.000 C 
ATOM     25  O   UNL     1      -2.780  10.069  14.374  0.00  0.00    +0.000 OA
ENDBRANCH   1  25
BRANCH   3  26
ATOM     26  O   UNL     1      -1.329  10.139  18.918  0.00  0.00    +0.000 OA
ATOM     27  C   UNL     1      -0.717  11.261  19.532  0.00  0.00    +0.000 C 
ENDBRANCH   3  26
TORSDOF 6
ENDMDL
MODEL 9
REMARK VINA RESULT:      -6.1      4.279      7.970
REMARK  Name = 
REMARK  8 active torsions:
REMARK  status: ('A' for Active; 'I' for Inactive)
REMARK    1  A    between atoms: C_1  and  O_2
REMARK    2  A    between atoms: O_2  and  C_3
REMARK    3  A    between atoms: C_5  and  O_6
REMARK    4  A    between atoms: O_6  and  C_7
REMARK    5  A    between atoms: N_13  and  S_14
REMARK    6  A    between atoms: S_14  and  C_17
REMARK    7  A    between atoms: C_21  and  C_22
REMARK    8  A    between atoms: C_22  and  C_23
REMARK                            x       y       z     vdW  Elec       q    Type
REMARK                         _______ _______ _______ _____ _____    ______ ____
ROOT
ATOM      1  C   UNL     1       2.056   5.792  19.545  0.00  0.00    +0.000 A 
ATOM      2  C   UNL     1       2.332   6.459  18.373  0.00  0.00    +0.000 A 
ATOM      3  C   UNL     1       2.264   7.826  18.447  0.00  0.00    +0.000 A 
ATOM      4  N   UNL     1       1.911   8.465  19.573  0.00  0.00    +0.000 NA
ATOM      5  C   UNL     1       1.658   7.723  20.656  0.00  0.00    +0.000 A 
ATOM      6  N   UNL     1       1.246   8.346  21.817  0.00  0.00    +0.000 N 
ATOM      7  C   UNL     1       0.817   9.627  21.961  0.00  0.00    +0.000 C 
ATOM      8  O   UNL     1       0.464  10.025  23.067  0.00  0.00    +0.000 OA
ATOM      9  N   UNL     1       0.768  10.436  20.837  0.00  0.00    +0.000 N 
ATOM     10  N   UNL     1       1.744   6.395  20.704  0.00  0.00    +0.000 NA
ATOM     11  H   UNL     1       1.160   7.753  22.626  0.00  0.00    +0.000 HD
ATOM     12  H   UNL     1       1.190  10.110  19.965  0.00  0.00    +0.000 HD
ENDROOT
BRANCH   9  13
ATOM     13  S   UNL     1       0.245  12.003  20.823  0.00  0.00    +0.000 S 
ATOM     14  O   UNL     1       0.034  12.405  22.197  0.00  0.00    +0.000 OA
ATOM     15  O   UNL     1       1.105  12.772  19.950  0.00  0.00    +0.000 OA
BRANCH  13  16
ATOM     16  C   UNL     1      -1.374  12.005  20.063  0.00  0.00    +0.000 A 
ATOM     17  S   UNL     1      -2.541  12.898  20.957  0.00  0.00    +0.000 S 
ATOM     18  C   UNL     1      -3.801  12.436  19.914  0.00  0.00    +0.000 A 
ATOM     19  C   UNL     1      -3.348  11.647  18.883  0.00  0.00    +0.000 A 
ATOM     20  C   UNL     1      -1.932  11.385  18.947  0.00  0.00    +0.000 A 
BRANCH  20  21
ATOM     21  C   UNL     1      -1.217  10.491  17.966  0.00  0.00    +0.000 C 
BRANCH  21  22
ATOM     22  C   UNL     1      -2.118  10.037  16.892  0.00  0.00    +0.000 C 
ATOM     23  N   UNL     1      -2.812   9.686  16.028  0.00  0.00    +0.000 NA
ENDBRANCH  21  22
ENDBRANCH  20  21
ENDBRANCH  13  16
ENDBRANCH   9  13
BRANCH   1  25
ATOM     24  C   UNL     1       1.240   3.770  20.416  0.00  0.00    +0.000 C 
ATOM     25  O   UNL     1       2.106   4.412  19.482  0.00  0.00    +0.000 OA
ENDBRANCH   1  25
BRANCH   3  26
ATOM     26  O   UNL     1       2.519   8.702  17.438  0.00  0.00    +0.000 OA
ATOM     27  C   UNL     1       2.311  10.081  17.694  0.00  0.00    +0.000 C 
ENDBRANCH   3  26
TORSDOF 6
ENDMDL
