MODEL 1
REMARK VINA RESULT:      -7.3      0.000      0.000
REMARK  Name = 
REMARK  2 active torsions:
REMARK  status: ('A' for Active; 'I' for Inactive)
REMARK    1  A    between atoms: C_7  and  C_8
REMARK    2  A    between atoms: C_8  and  N_9
REMARK                            x       y       z     vdW  Elec       q    Type
REMARK                         _______ _______ _______ _____ _____    ______ ____
ROOT
ATOM      1  N   UNL     1       4.676   3.654  18.509  0.00  0.00    +0.000 NA
ATOM      2  C   UNL     1       3.693   2.690  18.002  0.00  0.00    +0.000 C 
ATOM      3  C   UNL     1       2.303   3.260  17.705  0.00  0.00    +0.000 C 
ATOM      4  C   UNL     1       1.765   4.293  18.702  0.00  0.00    +0.000 C 
ATOM      5  C   UNL     1       2.792   5.237  19.380  0.00  0.00    +0.000 C 
ATOM      6  C   UNL     1       3.231   6.514  18.624  0.00  0.00    +0.000 C 
ATOM      7  C   UNL     1       2.117   7.465  18.256  0.00  0.00    +0.000 C 
ATOM      8  N   UNL     1       1.491   7.896  19.484  0.00  0.00    +0.000 N 
ATOM      9  C   UNL     1       1.299   9.243  19.669  0.00  0.00    +0.000 A 
ATOM     10  N   UNL     1       1.640  10.075  18.659  0.00  0.00    +0.000 NA
ATOM     11  C   UNL     1       1.577  11.400  18.858  0.00  0.00    +0.000 A 
ATOM     12  C   UNL     1       1.178  11.955  20.052  0.00  0.00    +0.000 A 
ATOM     13  C   UNL     1       0.815  11.049  21.005  0.00  0.00    +0.000 A 
ATOM     14  N   UNL     1       0.860   9.708  20.845  0.00  0.00    +0.000 NA
ATOM     15  C   UNL     1       0.987   6.861  20.375  0.00  0.00    +0.000 C 
ATOM     16  C   UNL     1       2.092   5.802  20.678  0.00  0.00    +0.000 C 
ATOM     17  C   UNL     1       4.076   4.388  19.669  0.00  0.00    +0.000 C 
ENDROOT
BRANCH   1  18
ATOM     18  C   UNL     1       5.196   4.532  17.436  0.00  0.00    +0.000 C 
BRANCH  18  25
ATOM     19  F   UNL     1       5.386   6.951  16.056  0.00  0.00    +0.000 F 
ATOM     20  C   UNL     1       6.297   6.735  17.017  0.00  0.00    +0.000 A 
ATOM     21  C   UNL     1       7.235   7.706  17.304  0.00  0.00    +0.000 A 
ATOM     22  N   UNL     1       8.171   7.578  18.268  0.00  0.00    +0.000 NA
ATOM     23  C   UNL     1       8.138   6.416  18.974  0.00  0.00    +0.000 A 
ATOM     24  C   UNL     1       7.233   5.394  18.755  0.00  0.00    +0.000 A 
ATOM     25  C   UNL     1       6.287   5.534  17.745  0.00  0.00    +0.000 A 
ENDBRANCH  18  25
ENDBRANCH   1  18
TORSDOF 2
ENDMDL
MODEL 2
REMARK VINA RESULT:      -7.0      2.770      6.786
REMARK  Name = 
REMARK  2 active torsions:
REMARK  status: ('A' for Active; 'I' for Inactive)
REMARK    1  A    between atoms: C_7  and  C_8
REMARK    2  A    between atoms: C_8  and  N_9
REMARK                            x       y       z     vdW  Elec       q    Type
REMARK                         _______ _______ _______ _____ _____    ______ ____
ROOT
ATOM      1  N   UNL     1       1.722   5.236  19.885  0.00  0.00    +0.000 NA
ATOM      2  C   UNL     1       2.035   4.264  20.937  0.00  0.00    +0.000 C 
ATOM      3  C   UNL     1       3.333   3.475  20.741  0.00  0.00    +0.000 C 
ATOM      4  C   UNL     1       3.645   3.025  19.310  0.00  0.00    +0.000 C 
ATOM      5  C   UNL     1       3.195   3.954  18.152  0.00  0.00    +0.000 C 
ATOM      6  C   UNL     1       4.114   5.132  17.753  0.00  0.00    +0.000 C 
ATOM      7  C   UNL     1       5.513   4.749  17.329  0.00  0.00    +0.000 C 
ATOM      8  N   UNL     1       5.396   3.894  16.171  0.00  0.00    +0.000 N 
ATOM      9  C   UNL     1       6.165   4.190  15.073  0.00  0.00    +0.000 A 
ATOM     10  N   UNL     1       7.037   5.220  15.171  0.00  0.00    +0.000 NA
ATOM     11  C   UNL     1       7.712   5.607  14.078  0.00  0.00    +0.000 A 
ATOM     12  C   UNL     1       7.556   5.000  12.854  0.00  0.00    +0.000 A 
ATOM     13  C   UNL     1       6.687   3.947  12.849  0.00  0.00    +0.000 A 
ATOM     14  N   UNL     1       5.991   3.523  13.926  0.00  0.00    +0.000 NA
ATOM     15  C   UNL     1       4.572   2.701  16.304  0.00  0.00    +0.000 C 
ATOM     16  C   UNL     1       3.156   3.062  16.850  0.00  0.00    +0.000 C 
ATOM     17  C   UNL     1       1.804   4.551  18.556  0.00  0.00    +0.000 C 
ENDROOT
BRANCH   1  18
ATOM     18  C   UNL     1       2.555   6.457  19.992  0.00  0.00    +0.000 C 
BRANCH  18  25
ATOM     19  F   UNL     1       1.071   8.169  21.623  0.00  0.00    +0.000 F 
ATOM     20  C   UNL     1       1.306   8.588  20.370  0.00  0.00    +0.000 A 
ATOM     21  C   UNL     1       0.856   9.828  19.966  0.00  0.00    +0.000 A 
ATOM     22  N   UNL     1       1.067  10.332  18.731  0.00  0.00    +0.000 NA
ATOM     23  C   UNL     1       1.779   9.543  17.883  0.00  0.00    +0.000 A 
ATOM     24  C   UNL     1       2.269   8.290  18.208  0.00  0.00    +0.000 A 
ATOM     25  C   UNL     1       2.025   7.777  19.477  0.00  0.00    +0.000 A 
ENDBRANCH  18  25
ENDBRANCH   1  18
TORSDOF 2
ENDMDL
MODEL 3
REMARK VINA RESULT:      -6.9      2.337      6.641
REMARK  Name = 
REMARK  2 active torsions:
REMARK  status: ('A' for Active; 'I' for Inactive)
REMARK    1  A    between atoms: C_7  and  C_8
REMARK    2  A    between atoms: C_8  and  N_9
REMARK                            x       y       z     vdW  Elec       q    Type
REMARK                         _______ _______ _______ _____ _____    ______ ____
ROOT
ATOM      1  N   UNL     1       1.376   5.050  20.333  0.00  0.00    +0.000 NA
ATOM      2  C   UNL     1       1.612   4.001  21.330  0.00  0.00    +0.000 C 
ATOM      3  C   UNL     1       2.866   3.149  21.109  0.00  0.00    +0.000 C 
ATOM      4  C   UNL     1       3.180   2.766  19.658  0.00  0.00    +0.000 C 
ATOM      5  C   UNL     1       2.807   3.787  18.551  0.00  0.00    +0.000 C 
ATOM      6  C   UNL     1       3.801   4.930  18.238  0.00  0.00    +0.000 C 
ATOM      7  C   UNL     1       5.182   4.491  17.814  0.00  0.00    +0.000 C 
ATOM      8  N   UNL     1       5.039   3.713  16.606  0.00  0.00    +0.000 N 
ATOM      9  C   UNL     1       5.846   4.027  15.540  0.00  0.00    +0.000 A 
ATOM     10  N   UNL     1       6.774   4.996  15.713  0.00  0.00    +0.000 NA
ATOM     11  C   UNL     1       7.491   5.407  14.657  0.00  0.00    +0.000 A 
ATOM     12  C   UNL     1       7.324   4.883  13.396  0.00  0.00    +0.000 A 
ATOM     13  C   UNL     1       6.397   3.885  13.314  0.00  0.00    +0.000 A 
ATOM     14  N   UNL     1       5.657   3.440  14.353  0.00  0.00    +0.000 NA
ATOM     15  C   UNL     1       4.145   2.565  16.654  0.00  0.00    +0.000 C 
ATOM     16  C   UNL     1       2.742   2.976  17.198  0.00  0.00    +0.000 C 
ATOM     17  C   UNL     1       1.445   4.440  18.967  0.00  0.00    +0.000 C 
ENDROOT
BRANCH   1  18
ATOM     18  C   UNL     1       2.276   6.211  20.526  0.00  0.00    +0.000 C 
BRANCH  18  25
ATOM     19  F   UNL     1       2.395   7.610  18.114  0.00  0.00    +0.000 F 
ATOM     20  C   UNL     1       1.811   8.240  19.145  0.00  0.00    +0.000 A 
ATOM     21  C   UNL     1       1.272   9.498  18.964  0.00  0.00    +0.000 A 
ATOM     22  N   UNL     1       0.650  10.190  19.942  0.00  0.00    +0.000 NA
ATOM     23  C   UNL     1       0.564   9.567  21.147  0.00  0.00    +0.000 A 
ATOM     24  C   UNL     1       1.074   8.308  21.413  0.00  0.00    +0.000 A 
ATOM     25  C   UNL     1       1.729   7.616  20.401  0.00  0.00    +0.000 A 
ENDBRANCH  18  25
ENDBRANCH   1  18
TORSDOF 2
ENDMDL
MODEL 4
REMARK VINA RESULT:      -6.9      4.240      8.330
REMARK  Name = 
REMARK  2 active torsions:
REMARK  status: ('A' for Active; 'I' for Inactive)
REMARK    1  A    between atoms: C_7  and  C_8
REMARK    2  A    between atoms: C_8  and  N_9
REMARK                            x       y       z     vdW  Elec       q    Type
REMARK                         _______ _______ _______ _____ _____    ______ ____
ROOT
ATOM      1  N   UNL     1       5.088   4.916  18.733  0.00  0.00    +0.000 NA
ATOM      2  C   UNL     1       4.658   6.317  18.680  0.00  0.00    +0.000 C 
ATOM      3  C   UNL     1       4.444   6.890  17.276  0.00  0.00    +0.000 C 
ATOM      4  C   UNL     1       5.459   6.468  16.208  0.00  0.00    +0.000 C 
ATOM      5  C   UNL     1       6.058   5.040  16.312  0.00  0.00    +0.000 C 
ATOM      6  C   UNL     1       5.258   3.861  15.710  0.00  0.00    +0.000 C 
ATOM      7  C   UNL     1       4.950   3.971  14.235  0.00  0.00    +0.000 C 
ATOM      8  N   UNL     1       6.211   4.030  13.533  0.00  0.00    +0.000 N 
ATOM      9  C   UNL     1       6.390   3.186  12.463  0.00  0.00    +0.000 A 
ATOM     10  N   UNL     1       5.349   2.407  12.091  0.00  0.00    +0.000 NA
ATOM     11  C   UNL     1       5.534   1.489  11.131  0.00  0.00    +0.000 A 
ATOM     12  C   UNL     1       6.743   1.303  10.503  0.00  0.00    +0.000 A 
ATOM     13  C   UNL     1       7.730   2.154  10.909  0.00  0.00    +0.000 A 
ATOM     14  N   UNL     1       7.585   3.093  11.869  0.00  0.00    +0.000 NA
ATOM     15  C   UNL     1       7.146   5.074  13.925  0.00  0.00    +0.000 C 
ATOM     16  C   UNL     1       7.390   5.050  15.466  0.00  0.00    +0.000 C 
ATOM     17  C   UNL     1       6.274   4.742  17.835  0.00  0.00    +0.000 C 
ENDROOT
BRANCH   1  18
ATOM     18  C   UNL     1       3.971   3.983  18.454  0.00  0.00    +0.000 C 
BRANCH  18  25
ATOM     19  F   UNL     1       4.710   2.167  20.441  0.00  0.00    +0.000 F 
ATOM     20  C   UNL     1       3.478   2.691  20.535  0.00  0.00    +0.000 A 
ATOM     21  C   UNL     1       2.669   2.353  21.601  0.00  0.00    +0.000 A 
ATOM     22  N   UNL     1       1.427   2.851  21.781  0.00  0.00    +0.000 NA
ATOM     23  C   UNL     1       1.003   3.738  20.842  0.00  0.00    +0.000 A 
ATOM     24  C   UNL     1       1.749   4.133  19.746  0.00  0.00    +0.000 A 
ATOM     25  C   UNL     1       3.019   3.596  19.564  0.00  0.00    +0.000 A 
ENDBRANCH  18  25
ENDBRANCH   1  18
TORSDOF 2
ENDMDL
MODEL 5
REMARK VINA RESULT:      -6.8      1.549      1.963
REMARK  Name = 
REMARK  2 active torsions:
REMARK  status: ('A' for Active; 'I' for Inactive)
REMARK    1  A    between atoms: C_7  and  C_8
REMARK    2  A    between atoms: C_8  and  N_9
REMARK                            x       y       z     vdW  Elec       q    Type
REMARK                         _______ _______ _______ _____ _____    ______ ____
ROOT
ATOM      1  N   UNL     1       3.708   4.394  18.681  0.00  0.00    +0.000 NA
ATOM      2  C   UNL     1       2.614   3.427  18.814  0.00  0.00    +0.000 C 
ATOM      3  C   UNL     1       1.216   4.030  18.979  0.00  0.00    +0.000 C 
ATOM      4  C   UNL     1       1.113   5.273  19.870  0.00  0.00    +0.000 C 
ATOM      5  C   UNL     1       2.317   6.251  19.878  0.00  0.00    +0.000 C 
ATOM      6  C   UNL     1       2.404   7.322  18.764  0.00  0.00    +0.000 C 
ATOM      7  C   UNL     1       1.227   8.265  18.678  0.00  0.00    +0.000 C 
ATOM      8  N   UNL     1       1.143   8.969  19.936  0.00  0.00    +0.000 N 
ATOM      9  C   UNL     1       1.028  10.337  19.899  0.00  0.00    +0.000 A 
ATOM     10  N   UNL     1       0.927  10.931  18.688  0.00  0.00    +0.000 NA
ATOM     11  C   UNL     1       0.937  12.271  18.618  0.00  0.00    +0.000 A 
ATOM     12  C   UNL     1       1.045  13.073  19.730  0.00  0.00    +0.000 A 
ATOM     13  C   UNL     1       1.104  12.397  20.914  0.00  0.00    +0.000 A 
ATOM     14  N   UNL     1       1.093  11.051  21.029  0.00  0.00    +0.000 NA
ATOM     15  C   UNL     1       1.049   8.165  21.146  0.00  0.00    +0.000 C 
ATOM     16  C   UNL     1       2.192   7.106  21.199  0.00  0.00    +0.000 C 
ATOM     17  C   UNL     1       3.617   5.381  19.804  0.00  0.00    +0.000 C 
ENDROOT
BRANCH   1  18
ATOM     18  C   UNL     1       3.745   5.007  17.333  0.00  0.00    +0.000 C 
BRANCH  18  25
ATOM     19  F   UNL     1       5.724   6.887  17.920  0.00  0.00    +0.000 F 
ATOM     20  C   UNL     1       5.996   6.016  16.936  0.00  0.00    +0.000 A 
ATOM     21  C   UNL     1       7.222   6.058  16.304  0.00  0.00    +0.000 A 
ATOM     22  N   UNL     1       7.583   5.207  15.320  0.00  0.00    +0.000 NA
ATOM     23  C   UNL     1       6.659   4.269  14.980  0.00  0.00    +0.000 A 
ATOM     24  C   UNL     1       5.410   4.155  15.564  0.00  0.00    +0.000 A 
ATOM     25  C   UNL     1       5.046   5.052  16.562  0.00  0.00    +0.000 A 
ENDBRANCH  18  25
ENDBRANCH   1  18
TORSDOF 2
ENDMDL
MODEL 6
REMARK VINA RESULT:      -6.8      4.164      8.260
REMARK  Name = 
REMARK  2 active torsions:
REMARK  status: ('A' for Active; 'I' for Inactive)
REMARK    1  A    between atoms: C_7  and  C_8
REMARK    2  A    between atoms: C_8  and  N_9
REMARK                            x       y       z     vdW  Elec       q    Type
REMARK                         _______ _______ _______ _____ _____    ______ ____
ROOT
ATOM      1  N   UNL     1       5.158   4.862  18.755  0.00  0.00    +0.000 NA
ATOM      2  C   UNL     1       4.694   6.252  18.716  0.00  0.00    +0.000 C 
ATOM      3  C   UNL     1       4.442   6.825  17.318  0.00  0.00    +0.000 C 
ATOM      4  C   UNL     1       5.448   6.432  16.231  0.00  0.00    +0.000 C 
ATOM      5  C   UNL     1       6.083   5.019  16.318  0.00  0.00    +0.000 C 
ATOM      6  C   UNL     1       5.302   3.823  15.725  0.00  0.00    +0.000 C 
ATOM      7  C   UNL     1       4.966   3.932  14.256  0.00  0.00    +0.000 C 
ATOM      8  N   UNL     1       6.212   4.023  13.532  0.00  0.00    +0.000 N 
ATOM      9  C   UNL     1       6.393   3.189  12.456  0.00  0.00    +0.000 A 
ATOM     10  N   UNL     1       5.365   2.386  12.099  0.00  0.00    +0.000 NA
ATOM     11  C   UNL     1       5.555   1.477  11.131  0.00  0.00    +0.000 A 
ATOM     12  C   UNL     1       6.758   1.323  10.482  0.00  0.00    +0.000 A 
ATOM     13  C   UNL     1       7.730   2.195  10.875  0.00  0.00    +0.000 A 
ATOM     14  N   UNL     1       7.580   3.127  11.841  0.00  0.00    +0.000 NA
ATOM     15  C   UNL     1       7.128   5.088  13.913  0.00  0.00    +0.000 C 
ATOM     16  C   UNL     1       7.400   5.064  15.449  0.00  0.00    +0.000 C 
ATOM     17  C   UNL     1       6.333   4.720  17.835  0.00  0.00    +0.000 C 
ENDROOT
BRANCH   1  18
ATOM     18  C   UNL     1       4.060   3.903  18.492  0.00  0.00    +0.000 C 
BRANCH  18  25
ATOM     19  F   UNL     1       1.365   4.607  18.325  0.00  0.00    +0.000 F 
ATOM     20  C   UNL     1       1.741   3.929  19.420  0.00  0.00    +0.000 A 
ATOM     21  C   UNL     1       0.800   3.581  20.368  0.00  0.00    +0.000 A 
ATOM     22  N   UNL     1       1.092   2.882  21.486  0.00  0.00    +0.000 NA
ATOM     23  C   UNL     1       2.392   2.514  21.632  0.00  0.00    +0.000 A 
ATOM     24  C   UNL     1       3.396   2.818  20.730  0.00  0.00    +0.000 A 
ATOM     25  C   UNL     1       3.084   3.556  19.594  0.00  0.00    +0.000 A 
ENDBRANCH  18  25
ENDBRANCH   1  18
TORSDOF 2
ENDMDL
MODEL 7
REMARK VINA RESULT:      -6.7      2.111      2.584
REMARK  Name = 
REMARK  2 active torsions:
REMARK  status: ('A' for Active; 'I' for Inactive)
REMARK    1  A    between atoms: C_7  and  C_8
REMARK    2  A    between atoms: C_8  and  N_9
REMARK                            x       y       z     vdW  Elec       q    Type
REMARK                         _______ _______ _______ _____ _____    ______ ____
ROOT
ATOM      1  N   UNL     1       4.750   4.442  17.565  0.00  0.00    +0.000 NA
ATOM      2  C   UNL     1       3.777   3.375  17.308  0.00  0.00    +0.000 C 
ATOM      3  C   UNL     1       2.305   3.788  17.397  0.00  0.00    +0.000 C 
ATOM      4  C   UNL     1       1.939   4.760  18.524  0.00  0.00    +0.000 C 
ATOM      5  C   UNL     1       3.000   5.814  18.934  0.00  0.00    +0.000 C 
ATOM      6  C   UNL     1       3.087   7.127  18.121  0.00  0.00    +0.000 C 
ATOM      7  C   UNL     1       1.821   7.949  18.079  0.00  0.00    +0.000 C 
ATOM      8  N   UNL     1       1.495   8.315  19.437  0.00  0.00    +0.000 N 
ATOM      9  C   UNL     1       1.215   9.634  19.698  0.00  0.00    +0.000 A 
ATOM     10  N   UNL     1       1.190  10.493  18.655  0.00  0.00    +0.000 NA
ATOM     11  C   UNL     1       1.039  11.804  18.895  0.00  0.00    +0.000 A 
ATOM     12  C   UNL     1       0.908  12.317  20.164  0.00  0.00    +0.000 A 
ATOM     13  C   UNL     1       0.906  11.381  21.157  0.00  0.00    +0.000 A 
ATOM     14  N   UNL     1       1.051  10.053  20.959  0.00  0.00    +0.000 NA
ATOM     15  C   UNL     1       1.355   7.235  20.403  0.00  0.00    +0.000 C 
ATOM     16  C   UNL     1       2.608   6.305  20.383  0.00  0.00    +0.000 C 
ATOM     17  C   UNL     1       4.399   5.112  18.858  0.00  0.00    +0.000 C 
ENDROOT
BRANCH   1  18
ATOM     18  C   UNL     1       4.874   5.367  16.415  0.00  0.00    +0.000 C 
BRANCH  18  25
ATOM     19  F   UNL     1       7.574   5.940  15.997  0.00  0.00    +0.000 F 
ATOM     20  C   UNL     1       6.956   5.230  15.041  0.00  0.00    +0.000 A 
ATOM     21  C   UNL     1       7.670   4.789  13.945  0.00  0.00    +0.000 A 
ATOM     22  N   UNL     1       7.130   4.053  12.950  0.00  0.00    +0.000 NA
ATOM     23  C   UNL     1       5.813   3.745  13.089  0.00  0.00    +0.000 A 
ATOM     24  C   UNL     1       5.026   4.143  14.155  0.00  0.00    +0.000 A 
ATOM     25  C   UNL     1       5.592   4.917  15.161  0.00  0.00    +0.000 A 
ENDBRANCH  18  25
ENDBRANCH   1  18
TORSDOF 2
ENDMDL
MODEL 8
REMARK VINA RESULT:      -6.7      1.397      1.645
REMARK  Name = 
REMARK  2 active torsions:
REMARK  status: ('A' for Active; 'I' for Inactive)
REMARK    1  A    between atoms: C_7  and  C_8
REMARK    2  A    between atoms: C_8  and  N_9
REMARK                            x       y       z     vdW  Elec       q    Type
REMARK                         _______ _______ _______ _____ _____    ______ ____
ROOT
ATOM      1  N   UNL     1       3.920   3.234  18.257  0.00  0.00    +0.000 NA
ATOM      2  C   UNL     1       2.821   2.264  18.275  0.00  0.00    +0.000 C 
ATOM      3  C   UNL     1       1.418   2.859  18.430  0.00  0.00    +0.000 C 
ATOM      4  C   UNL     1       1.281   4.033  19.405  0.00  0.00    +0.000 C 
ATOM      5  C   UNL     1       2.484   5.004  19.531  0.00  0.00    +0.000 C 
ATOM      6  C   UNL     1       2.615   6.153  18.504  0.00  0.00    +0.000 C 
ATOM      7  C   UNL     1       1.443   7.104  18.441  0.00  0.00    +0.000 C 
ATOM      8  N   UNL     1       1.310   7.715  19.743  0.00  0.00    +0.000 N 
ATOM      9  C   UNL     1       1.198   9.082  19.802  0.00  0.00    +0.000 A 
ATOM     10  N   UNL     1       1.145   9.764  18.635  0.00  0.00    +0.000 NA
ATOM     11  C   UNL     1       1.158  11.105  18.664  0.00  0.00    +0.000 A 
ATOM     12  C   UNL     1       1.223  11.823  19.835  0.00  0.00    +0.000 A 
ATOM     13  C   UNL     1       1.235  11.062  20.967  0.00  0.00    +0.000 A 
ATOM     14  N   UNL     1       1.219   9.711  20.983  0.00  0.00    +0.000 NA
ATOM     15  C   UNL     1       1.168   6.825  20.886  0.00  0.00    +0.000 C 
ATOM     16  C   UNL     1       2.308   5.760  20.906  0.00  0.00    +0.000 C 
ATOM     17  C   UNL     1       3.786   4.137  19.445  0.00  0.00    +0.000 C 
ENDROOT
BRANCH   1  18
ATOM     18  C   UNL     1       4.010   3.945  16.960  0.00  0.00    +0.000 C 
BRANCH  18  25
ATOM     19  F   UNL     1       5.075   3.636  14.399  0.00  0.00    +0.000 F 
ATOM     20  C   UNL     1       5.759   4.424  15.242  0.00  0.00    +0.000 A 
ATOM     21  C   UNL     1       6.903   5.063  14.808  0.00  0.00    +0.000 A 
ATOM     22  N   UNL     1       7.638   5.887  15.585  0.00  0.00    +0.000 NA
ATOM     23  C   UNL     1       7.176   6.075  16.850  0.00  0.00    +0.000 A 
ATOM     24  C   UNL     1       6.040   5.477  17.364  0.00  0.00    +0.000 A 
ATOM     25  C   UNL     1       5.306   4.615  16.557  0.00  0.00    +0.000 A 
ENDBRANCH  18  25
ENDBRANCH   1  18
TORSDOF 2
ENDMDL
MODEL 9
REMARK VINA RESULT:      -6.6      1.430      1.692
REMARK  Name = 
REMARK  2 active torsions:
REMARK  status: ('A' for Active; 'I' for Inactive)
REMARK    1  A    between atoms: C_7  and  C_8
REMARK    2  A    between atoms: C_8  and  N_9
REMARK                            x       y       z     vdW  Elec       q    Type
REMARK                         _______ _______ _______ _____ _____    ______ ____
ROOT
ATOM      1  N   UNL     1       3.724   4.068  18.803  0.00  0.00    +0.000 NA
ATOM      2  C   UNL     1       2.596   3.133  18.856  0.00  0.00    +0.000 C 
ATOM      3  C   UNL     1       1.208   3.777  18.911  0.00  0.00    +0.000 C 
ATOM      4  C   UNL     1       1.072   5.028  19.786  0.00  0.00    +0.000 C 
ATOM      5  C   UNL     1       2.299   5.972  19.881  0.00  0.00    +0.000 C 
ATOM      6  C   UNL     1       2.501   7.032  18.772  0.00  0.00    +0.000 C 
ATOM      7  C   UNL     1       1.361   8.007  18.591  0.00  0.00    +0.000 C 
ATOM      8  N   UNL     1       1.202   8.722  19.836  0.00  0.00    +0.000 N 
ATOM      9  C   UNL     1       1.129  10.093  19.784  0.00  0.00    +0.000 A 
ATOM     10  N   UNL     1       1.138  10.681  18.566  0.00  0.00    +0.000 NA
ATOM     11  C   UNL     1       1.191  12.019  18.490  0.00  0.00    +0.000 A 
ATOM     12  C   UNL     1       1.236  12.826  19.603  0.00  0.00    +0.000 A 
ATOM     13  C   UNL     1       1.185  12.157  20.791  0.00  0.00    +0.000 A 
ATOM     14  N   UNL     1       1.128  10.813  20.912  0.00  0.00    +0.000 NA
ATOM     15  C   UNL     1       0.992   7.930  21.039  0.00  0.00    +0.000 C 
ATOM     16  C   UNL     1       2.098   6.839  21.185  0.00  0.00    +0.000 C 
ATOM     17  C   UNL     1       3.576   5.065  19.911  0.00  0.00    +0.000 C 
ENDROOT
BRANCH   1  18
ATOM     18  C   UNL     1       3.882   4.672  17.459  0.00  0.00    +0.000 C 
BRANCH  18  25
ATOM     19  F   UNL     1       5.515   3.365  15.611  0.00  0.00    +0.000 F 
ATOM     20  C   UNL     1       5.968   4.533  16.092  0.00  0.00    +0.000 A 
ATOM     21  C   UNL     1       7.165   5.044  15.634  0.00  0.00    +0.000 A 
ATOM     22  N   UNL     1       7.681   6.221  16.050  0.00  0.00    +0.000 NA
ATOM     23  C   UNL     1       6.937   6.905  16.958  0.00  0.00    +0.000 A 
ATOM     24  C   UNL     1       5.727   6.467  17.467  0.00  0.00    +0.000 A 
ATOM     25  C   UNL     1       5.219   5.244  17.043  0.00  0.00    +0.000 A 
ENDBRANCH  18  25
ENDBRANCH   1  18
TORSDOF 2
ENDMDL
