MODEL 1
REMARK VINA RESULT:      -6.0      0.000      0.000
REMARK  Name = 
REMARK  2 active torsions:
REMARK  status: ('A' for Active; 'I' for Inactive)
REMARK    1  A    between atoms: C_1  and  C_2
REMARK    2  A    between atoms: C_7  and  N_8
REMARK                            x       y       z     vdW  Elec       q    Type
REMARK                         _______ _______ _______ _____ _____    ______ ____
ROOT
ATOM      1  C   UNL     1       2.598   7.113  18.218  0.00  0.00    +0.000 C 
ATOM      2  C   UNL     1       3.280   5.810  17.900  0.00  0.00    +0.000 A 
ATOM      3  C   UNL     1       4.398   5.822  17.062  0.00  0.00    +0.000 A 
ATOM      4  C   UNL     1       5.038   4.629  16.795  0.00  0.00    +0.000 A 
ATOM      5  N   UNL     1       4.656   3.441  17.304  0.00  0.00    +0.000 NA
ATOM      6  C   UNL     1       3.565   3.407  18.102  0.00  0.00    +0.000 A 
ATOM      7  C   UNL     1       3.157   2.173  18.646  0.00  0.00    +0.000 A 
ATOM      8  C   UNL     1       1.996   2.076  19.420  0.00  0.00    +0.000 A 
ATOM      9  C   UNL     1       1.273   3.217  19.740  0.00  0.00    +0.000 A 
ATOM     10  C   UNL     1       1.694   4.455  19.263  0.00  0.00    +0.000 A 
ATOM     11  C   UNL     1       2.833   4.575  18.432  0.00  0.00    +0.000 A 
ENDROOT
BRANCH   7  12
ATOM     12  N   UNL     1       3.816   0.974  18.259  0.00  0.00    +0.000 N 
ATOM     13  H   UNL     1       3.390   0.634  17.393  0.00  0.00    +0.000 HD
ATOM     14  H   UNL     1       4.822   1.075  18.196  0.00  0.00    +0.000 HD
ENDBRANCH   7  12
TORSDOF 1
ENDMDL
MODEL 2
REMARK VINA RESULT:      -5.9      1.284      1.284
REMARK  Name = 
REMARK  2 active torsions:
REMARK  status: ('A' for Active; 'I' for Inactive)
REMARK    1  A    between atoms: C_1  and  C_2
REMARK    2  A    between atoms: C_7  and  N_8
REMARK                            x       y       z     vdW  Elec       q    Type
REMARK                         _______ _______ _______ _____ _____    ______ ____
ROOT
ATOM      1  C   UNL     1       2.415   7.508  18.273  0.00  0.00    +0.000 C 
ATOM      2  C   UNL     1       3.330   6.314  18.254  0.00  0.00    +0.000 A 
ATOM      3  C   UNL     1       4.404   6.303  17.360  0.00  0.00    +0.000 A 
ATOM      4  C   UNL     1       5.257   5.218  17.364  0.00  0.00    +0.000 A 
ATOM      5  N   UNL     1       5.124   4.162  18.190  0.00  0.00    +0.000 NA
ATOM      6  C   UNL     1       4.080   4.145  19.048  0.00  0.00    +0.000 A 
ATOM      7  C   UNL     1       3.931   3.050  19.922  0.00  0.00    +0.000 A 
ATOM      8  C   UNL     1       2.830   2.955  20.778  0.00  0.00    +0.000 A 
ATOM      9  C   UNL     1       1.907   3.991  20.845  0.00  0.00    +0.000 A 
ATOM     10  C   UNL     1       2.069   5.110  20.034  0.00  0.00    +0.000 A 
ATOM     11  C   UNL     1       3.143   5.206  19.118  0.00  0.00    +0.000 A 
ENDROOT
BRANCH   7  12
ATOM     12  N   UNL     1       4.801   1.930  19.810  0.00  0.00    +0.000 N 
ATOM     13  H   UNL     1       5.722   2.197  20.168  0.00  0.00    +0.000 HD
ATOM     14  H   UNL     1       4.430   1.093  20.243  0.00  0.00    +0.000 HD
ENDBRANCH   7  12
TORSDOF 1
ENDMDL
MODEL 3
REMARK VINA RESULT:      -5.9      1.665      3.703
REMARK  Name = 
REMARK  2 active torsions:
REMARK  status: ('A' for Active; 'I' for Inactive)
REMARK    1  A    between atoms: C_1  and  C_2
REMARK    2  A    between atoms: C_7  and  N_8
REMARK                            x       y       z     vdW  Elec       q    Type
REMARK                         _______ _______ _______ _____ _____    ______ ____
ROOT
ATOM      1  C   UNL     1       1.029   4.337  20.420  0.00  0.00    +0.000 C 
ATOM      2  C   UNL     1       2.437   3.880  20.152  0.00  0.00    +0.000 A 
ATOM      3  C   UNL     1       2.892   2.707  20.760  0.00  0.00    +0.000 A 
ATOM      4  C   UNL     1       4.175   2.276  20.491  0.00  0.00    +0.000 A 
ATOM      5  N   UNL     1       5.023   2.915  19.662  0.00  0.00    +0.000 NA
ATOM      6  C   UNL     1       4.608   4.063  19.080  0.00  0.00    +0.000 A 
ATOM      7  C   UNL     1       5.483   4.740  18.207  0.00  0.00    +0.000 A 
ATOM      8  C   UNL     1       5.125   5.965  17.636  0.00  0.00    +0.000 A 
ATOM      9  C   UNL     1       3.858   6.491  17.851  0.00  0.00    +0.000 A 
ATOM     10  C   UNL     1       2.957   5.807  18.661  0.00  0.00    +0.000 A 
ATOM     11  C   UNL     1       3.313   4.594  19.297  0.00  0.00    +0.000 A 
ENDROOT
BRANCH   7  12
ATOM     12  N   UNL     1       6.819   4.280  18.043  0.00  0.00    +0.000 N 
ATOM     13  H   UNL     1       6.991   4.132  17.046  0.00  0.00    +0.000 HD
ATOM     14  H   UNL     1       7.504   4.884  18.482  0.00  0.00    +0.000 HD
ENDBRANCH   7  12
TORSDOF 1
ENDMDL
MODEL 4
REMARK VINA RESULT:      -5.8      1.542      1.581
REMARK  Name = 
REMARK  2 active torsions:
REMARK  status: ('A' for Active; 'I' for Inactive)
REMARK    1  A    between atoms: C_1  and  C_2
REMARK    2  A    between atoms: C_7  and  N_8
REMARK                            x       y       z     vdW  Elec       q    Type
REMARK                         _______ _______ _______ _____ _____    ______ ____
ROOT
ATOM      1  C   UNL     1       3.578   7.303  17.448  0.00  0.00    +0.000 C 
ATOM      2  C   UNL     1       4.407   6.159  17.965  0.00  0.00    +0.000 A 
ATOM      3  C   UNL     1       5.799   6.252  17.899  0.00  0.00    +0.000 A 
ATOM      4  C   UNL     1       6.556   5.212  18.399  0.00  0.00    +0.000 A 
ATOM      5  N   UNL     1       6.033   4.105  18.961  0.00  0.00    +0.000 NA
ATOM      6  C   UNL     1       4.687   3.987  19.015  0.00  0.00    +0.000 A 
ATOM      7  C   UNL     1       4.126   2.837  19.605  0.00  0.00    +0.000 A 
ATOM      8  C   UNL     1       2.742   2.639  19.622  0.00  0.00    +0.000 A 
ATOM      9  C   UNL     1       1.890   3.622  19.135  0.00  0.00    +0.000 A 
ATOM     10  C   UNL     1       2.423   4.793  18.604  0.00  0.00    +0.000 A 
ATOM     11  C   UNL     1       3.821   4.995  18.524  0.00  0.00    +0.000 A 
ENDROOT
BRANCH   7  12
ATOM     12  N   UNL     1       4.969   1.770  20.022  0.00  0.00    +0.000 N 
ATOM     13  H   UNL     1       4.475   0.888  19.869  0.00  0.00    +0.000 HD
ATOM     14  H   UNL     1       5.885   1.796  19.590  0.00  0.00    +0.000 HD
ENDBRANCH   7  12
TORSDOF 1
ENDMDL
MODEL 5
REMARK VINA RESULT:      -5.8      2.005      2.448
REMARK  Name = 
REMARK  2 active torsions:
REMARK  status: ('A' for Active; 'I' for Inactive)
REMARK    1  A    between atoms: C_1  and  C_2
REMARK    2  A    between atoms: C_7  and  N_8
REMARK                            x       y       z     vdW  Elec       q    Type
REMARK                         _______ _______ _______ _____ _____    ______ ____
ROOT
ATOM      1  C   UNL     1       4.840   6.786  15.993  0.00  0.00    +0.000 C 
ATOM      2  C   UNL     1       5.320   5.942  17.141  0.00  0.00    +0.000 A 
ATOM      3  C   UNL     1       6.490   6.314  17.808  0.00  0.00    +0.000 A 
ATOM      4  C   UNL     1       6.914   5.553  18.878  0.00  0.00    +0.000 A 
ATOM      5  N   UNL     1       6.258   4.467  19.333  0.00  0.00    +0.000 NA
ATOM      6  C   UNL     1       5.135   4.079  18.688  0.00  0.00    +0.000 A 
ATOM      7  C   UNL     1       4.436   2.949  19.156  0.00  0.00    +0.000 A 
ATOM      8  C   UNL     1       3.309   2.469  18.482  0.00  0.00    +0.000 A 
ATOM      9  C   UNL     1       2.806   3.157  17.386  0.00  0.00    +0.000 A 
ATOM     10  C   UNL     1       3.446   4.312  16.945  0.00  0.00    +0.000 A 
ATOM     11  C   UNL     1       4.620   4.788  17.574  0.00  0.00    +0.000 A 
ENDROOT
BRANCH   7  12
ATOM     12  N   UNL     1       4.979   2.166  20.212  0.00  0.00    +0.000 N 
ATOM     13  H   UNL     1       4.365   1.363  20.370  0.00  0.00    +0.000 HD
ATOM     14  H   UNL     1       5.946   1.906  20.058  0.00  0.00    +0.000 HD
ENDBRANCH   7  12
TORSDOF 1
ENDMDL
MODEL 6
REMARK VINA RESULT:      -5.7      1.859      3.963
REMARK  Name = 
REMARK  2 active torsions:
REMARK  status: ('A' for Active; 'I' for Inactive)
REMARK    1  A    between atoms: C_1  and  C_2
REMARK    2  A    between atoms: C_7  and  N_8
REMARK                            x       y       z     vdW  Elec       q    Type
REMARK                         _______ _______ _______ _____ _____    ______ ____
ROOT
ATOM      1  C   UNL     1       1.504   4.092  17.807  0.00  0.00    +0.000 C 
ATOM      2  C   UNL     1       2.863   3.878  18.416  0.00  0.00    +0.000 A 
ATOM      3  C   UNL     1       3.056   2.787  19.267  0.00  0.00    +0.000 A 
ATOM      4  C   UNL     1       4.311   2.578  19.801  0.00  0.00    +0.000 A 
ATOM      5  N   UNL     1       5.376   3.362  19.544  0.00  0.00    +0.000 NA
ATOM      6  C   UNL     1       5.205   4.434  18.739  0.00  0.00    +0.000 A 
ATOM      7  C   UNL     1       6.312   5.259  18.457  0.00  0.00    +0.000 A 
ATOM      8  C   UNL     1       6.168   6.417  17.687  0.00  0.00    +0.000 A 
ATOM      9  C   UNL     1       4.944   6.724  17.109  0.00  0.00    +0.000 A 
ATOM     10  C   UNL     1       3.852   5.888  17.324  0.00  0.00    +0.000 A 
ATOM     11  C   UNL     1       3.955   4.741  18.146  0.00  0.00    +0.000 A 
ENDROOT
BRANCH   7  12
ATOM     12  N   UNL     1       7.553   5.029  19.112  0.00  0.00    +0.000 N 
ATOM     13  H   UNL     1       7.593   5.616  19.948  0.00  0.00    +0.000 HD
ATOM     14  H   UNL     1       7.727   4.049  19.302  0.00  0.00    +0.000 HD
ENDBRANCH   7  12
TORSDOF 1
ENDMDL
MODEL 7
REMARK VINA RESULT:      -5.7      2.236      3.098
REMARK  Name = 
REMARK  2 active torsions:
REMARK  status: ('A' for Active; 'I' for Inactive)
REMARK    1  A    between atoms: C_1  and  C_2
REMARK    2  A    between atoms: C_7  and  N_8
REMARK                            x       y       z     vdW  Elec       q    Type
REMARK                         _______ _______ _______ _____ _____    ______ ____
ROOT
ATOM      1  C   UNL     1       5.715   3.815  15.706  0.00  0.00    +0.000 C 
ATOM      2  C   UNL     1       5.464   4.325  17.099  0.00  0.00    +0.000 A 
ATOM      3  C   UNL     1       6.533   4.857  17.824  0.00  0.00    +0.000 A 
ATOM      4  C   UNL     1       6.294   5.349  19.091  0.00  0.00    +0.000 A 
ATOM      5  N   UNL     1       5.081   5.358  19.676  0.00  0.00    +0.000 NA
ATOM      6  C   UNL     1       4.038   4.828  18.998  0.00  0.00    +0.000 A 
ATOM      7  C   UNL     1       2.762   4.835  19.596  0.00  0.00    +0.000 A 
ATOM      8  C   UNL     1       1.667   4.238  18.963  0.00  0.00    +0.000 A 
ATOM      9  C   UNL     1       1.803   3.705  17.688  0.00  0.00    +0.000 A 
ATOM     10  C   UNL     1       3.042   3.743  17.055  0.00  0.00    +0.000 A 
ATOM     11  C   UNL     1       4.179   4.291  17.695  0.00  0.00    +0.000 A 
ENDROOT
BRANCH   7  12
ATOM     12  N   UNL     1       2.609   5.282  20.937  0.00  0.00    +0.000 N 
ATOM     13  H   UNL     1       3.416   5.862  21.180  0.00  0.00    +0.000 HD
ATOM     14  H   UNL     1       1.721   5.742  21.104  0.00  0.00    +0.000 HD
ENDBRANCH   7  12
TORSDOF 1
ENDMDL
MODEL 8
REMARK VINA RESULT:      -5.6      1.894      2.792
REMARK  Name = 
REMARK  2 active torsions:
REMARK  status: ('A' for Active; 'I' for Inactive)
REMARK    1  A    between atoms: C_1  and  C_2
REMARK    2  A    between atoms: C_7  and  N_8
REMARK                            x       y       z     vdW  Elec       q    Type
REMARK                         _______ _______ _______ _____ _____    ______ ____
ROOT
ATOM      1  C   UNL     1       5.213   5.016  16.182  0.00  0.00    +0.000 C 
ATOM      2  C   UNL     1       4.154   5.277  17.218  0.00  0.00    +0.000 A 
ATOM      3  C   UNL     1       3.901   6.595  17.606  0.00  0.00    +0.000 A 
ATOM      4  C   UNL     1       2.911   6.833  18.536  0.00  0.00    +0.000 A 
ATOM      5  N   UNL     1       2.156   5.866  19.094  0.00  0.00    +0.000 NA
ATOM      6  C   UNL     1       2.400   4.582  18.747  0.00  0.00    +0.000 A 
ATOM      7  C   UNL     1       1.615   3.561  19.319  0.00  0.00    +0.000 A 
ATOM      8  C   UNL     1       1.875   2.215  19.043  0.00  0.00    +0.000 A 
ATOM      9  C   UNL     1       2.857   1.867  18.126  0.00  0.00    +0.000 A 
ATOM     10  C   UNL     1       3.603   2.864  17.504  0.00  0.00    +0.000 A 
ATOM     11  C   UNL     1       3.399   4.231  17.806  0.00  0.00    +0.000 A 
ENDROOT
BRANCH   7  12
ATOM     12  N   UNL     1       0.670   3.876  20.333  0.00  0.00    +0.000 N 
ATOM     13  H   UNL     1       1.164   4.316  21.113  0.00  0.00    +0.000 HD
ATOM     14  H   UNL     1      -0.110   4.426  19.992  0.00  0.00    +0.000 HD
ENDBRANCH   7  12
TORSDOF 1
ENDMDL
MODEL 9
REMARK VINA RESULT:      -5.6      0.888      3.448
REMARK  Name = 
REMARK  2 active torsions:
REMARK  status: ('A' for Active; 'I' for Inactive)
REMARK    1  A    between atoms: C_1  and  C_2
REMARK    2  A    between atoms: C_7  and  N_8
REMARK                            x       y       z     vdW  Elec       q    Type
REMARK                         _______ _______ _______ _____ _____    ______ ____
ROOT
ATOM      1  C   UNL     1       1.211   4.599  20.339  0.00  0.00    +0.000 C 
ATOM      2  C   UNL     1       2.162   3.841  19.453  0.00  0.00    +0.000 A 
ATOM      3  C   UNL     1       2.164   2.445  19.507  0.00  0.00    +0.000 A 
ATOM      4  C   UNL     1       3.018   1.752  18.673  0.00  0.00    +0.000 A 
ATOM      5  N   UNL     1       3.852   2.342  17.795  0.00  0.00    +0.000 NA
ATOM      6  C   UNL     1       3.879   3.692  17.743  0.00  0.00    +0.000 A 
ATOM      7  C   UNL     1       4.743   4.323  16.825  0.00  0.00    +0.000 A 
ATOM      8  C   UNL     1       4.855   5.716  16.783  0.00  0.00    +0.000 A 
ATOM      9  C   UNL     1       4.046   6.506  17.588  0.00  0.00    +0.000 A 
ATOM     10  C   UNL     1       3.142   5.904  18.458  0.00  0.00    +0.000 A 
ATOM     11  C   UNL     1       3.047   4.496  18.561  0.00  0.00    +0.000 A 
ENDROOT
BRANCH   7  12
ATOM     12  N   UNL     1       5.654   3.545  16.059  0.00  0.00    +0.000 N 
ATOM     13  H   UNL     1       6.497   4.100  15.895  0.00  0.00    +0.000 HD
ATOM     14  H   UNL     1       5.845   2.638  16.469  0.00  0.00    +0.000 HD
ENDBRANCH   7  12
TORSDOF 1
ENDMDL
