MODEL 1
REMARK VINA RESULT:      -7.6      0.000      0.000
REMARK  Name = 
REMARK  6 active torsions:
REMARK  status: ('A' for Active; 'I' for Inactive)
REMARK    1  A    between atoms: C_1  and  O_2
REMARK    2  A    between atoms: O_2  and  C_3
REMARK    3  A    between atoms: C_6  and  C_7
REMARK    4  A    between atoms: C_7  and  N_8
REMARK    5  A    between atoms: N_11  and  C_12
REMARK    6  A    between atoms: C_24  and  O_25
REMARK                            x       y       z     vdW  Elec       q    Type
REMARK                         _______ _______ _______ _____ _____    ______ ____
ROOT
ATOM      1  N   UNL     1       7.987   7.198  18.182  0.00  0.00    +0.000 N 
ATOM      2  C   UNL     1       8.166   8.562  18.146  0.00  0.00    +0.000 C 
ATOM      3  O   UNL     1       7.662   9.242  17.262  0.00  0.00    +0.000 OA
ATOM      4  N   UNL     1       8.994   9.011  19.153  0.00  0.00    +0.000 N 
ATOM      5  H   UNL     1       7.992   6.763  19.092  0.00  0.00    +0.000 HD
ATOM      6  H   UNL     1       9.512   8.303  19.651  0.00  0.00    +0.000 HD
ENDROOT
BRANCH   4   7
ATOM      7  C   UNL     1       9.408  10.354  19.310  0.00  0.00    +0.000 A 
ATOM      8  C   UNL     1      10.089  11.060  18.333  0.00  0.00    +0.000 A 
ATOM      9  C   UNL     1      10.551  12.347  18.598  0.00  0.00    +0.000 A 
ATOM     10  C   UNL     1      10.325  12.948  19.833  0.00  0.00    +0.000 A 
ATOM     11  N   UNL     1      10.796  14.213  20.087  0.00  0.00    +0.000 N 
ATOM     12  C   UNL     1      10.612  14.860  21.371  0.00  0.00    +0.000 C 
ATOM     13  C   UNL     1      11.037  16.292  21.054  0.00  0.00    +0.000 C 
ATOM     14  C   UNL     1      12.206  16.112  20.093  0.00  0.00    +0.000 C 
ATOM     15  C   UNL     1      11.895  14.816  19.344  0.00  0.00    +0.000 C 
ATOM     16  N   UNL     1       9.601  12.299  20.773  0.00  0.00    +0.000 NA
ATOM     17  C   UNL     1       9.163  11.038  20.496  0.00  0.00    +0.000 A 
ENDBRANCH   4   7
BRANCH   1  18
ATOM     18  C   UNL     1       7.123   6.601  17.183  0.00  0.00    +0.000 C 
BRANCH  18  22
ATOM     19  C   UNL     1       3.717   4.596  18.944  0.00  0.00    +0.000 A 
ATOM     20  C   UNL     1       3.568   5.831  18.298  0.00  0.00    +0.000 A 
ATOM     21  C   UNL     1       4.662   6.495  17.737  0.00  0.00    +0.000 A 
ATOM     22  C   UNL     1       5.934   5.927  17.808  0.00  0.00    +0.000 A 
ATOM     23  C   UNL     1       6.096   4.701  18.471  0.00  0.00    +0.000 A 
ATOM     24  C   UNL     1       4.997   4.038  19.030  0.00  0.00    +0.000 A 
BRANCH  19  26
ATOM     25  C   UNL     1       2.198   4.344  20.774  0.00  0.00    +0.000 C 
ATOM     26  O   UNL     1       2.534   4.097  19.417  0.00  0.00    +0.000 OA
ENDBRANCH  19  26
BRANCH  24  27
ATOM     27  O   UNL     1       5.216   2.838  19.649  0.00  0.00    +0.000 OA
ATOM     28  H   UNL     1       4.975   2.118  19.043  0.00  0.00    +0.000 HD
ENDBRANCH  24  27
ENDBRANCH  18  22
ENDBRANCH   1  18
TORSDOF 5
ENDMDL
MODEL 2
REMARK VINA RESULT:      -7.5      0.890      1.399
REMARK  Name = 
REMARK  6 active torsions:
REMARK  status: ('A' for Active; 'I' for Inactive)
REMARK    1  A    between atoms: C_1  and  O_2
REMARK    2  A    between atoms: O_2  and  C_3
REMARK    3  A    between atoms: C_6  and  C_7
REMARK    4  A    between atoms: C_7  and  N_8
REMARK    5  A    between atoms: N_11  and  C_12
REMARK    6  A    between atoms: C_24  and  O_25
REMARK                            x       y       z     vdW  Elec       q    Type
REMARK                         _______ _______ _______ _____ _____    ______ ____
ROOT
ATOM      1  N   UNL     1       7.925   7.092  18.127  0.00  0.00    +0.000 N 
ATOM      2  C   UNL     1       8.080   8.459  18.088  0.00  0.00    +0.000 C 
ATOM      3  O   UNL     1       7.536   9.132  17.222  0.00  0.00    +0.000 OA
ATOM      4  N   UNL     1       8.933   8.920  19.068  0.00  0.00    +0.000 N 
ATOM      5  H   UNL     1       7.967   6.656  19.035  0.00  0.00    +0.000 HD
ATOM      6  H   UNL     1       9.478   8.220  19.547  0.00  0.00    +0.000 HD
ENDROOT
BRANCH   4   7
ATOM      7  C   UNL     1       9.330  10.270  19.214  0.00  0.00    +0.000 A 
ATOM      8  C   UNL     1       9.387  10.917  20.437  0.00  0.00    +0.000 A 
ATOM      9  C   UNL     1       9.691  12.275  20.491  0.00  0.00    +0.000 A 
ATOM     10  C   UNL     1       9.956  12.997  19.331  0.00  0.00    +0.000 A 
ATOM     11  N   UNL     1      10.243  14.338  19.397  0.00  0.00    +0.000 N 
ATOM     12  C   UNL     1      10.489  15.132  18.209  0.00  0.00    +0.000 C 
ATOM     13  C   UNL     1      11.026  16.427  18.814  0.00  0.00    +0.000 C 
ATOM     14  C   UNL     1      10.190  16.603  20.076  0.00  0.00    +0.000 C 
ATOM     15  C   UNL     1       9.860  15.178  20.524  0.00  0.00    +0.000 C 
ATOM     16  N   UNL     1       9.972  12.363  18.136  0.00  0.00    +0.000 NA
ATOM     17  C   UNL     1       9.666  11.036  18.103  0.00  0.00    +0.000 A 
ENDBRANCH   4   7
BRANCH   1  18
ATOM     18  C   UNL     1       7.038   6.482  17.156  0.00  0.00    +0.000 C 
BRANCH  18  22
ATOM     19  C   UNL     1       3.656   4.528  19.017  0.00  0.00    +0.000 A 
ATOM     20  C   UNL     1       3.510   5.774  18.392  0.00  0.00    +0.000 A 
ATOM     21  C   UNL     1       4.597   6.421  17.798  0.00  0.00    +0.000 A 
ATOM     22  C   UNL     1       5.858   5.826  17.816  0.00  0.00    +0.000 A 
ATOM     23  C   UNL     1       6.018   4.588  18.458  0.00  0.00    +0.000 A 
ATOM     24  C   UNL     1       4.925   3.942  19.049  0.00  0.00    +0.000 A 
BRANCH  19  26
ATOM     25  C   UNL     1       2.106   4.448  20.836  0.00  0.00    +0.000 C 
ATOM     26  O   UNL     1       2.480   4.048  19.526  0.00  0.00    +0.000 OA
ENDBRANCH  19  26
BRANCH  24  27
ATOM     27  O   UNL     1       5.141   2.730  19.646  0.00  0.00    +0.000 OA
ATOM     28  H   UNL     1       5.749   2.208  19.097  0.00  0.00    +0.000 HD
ENDBRANCH  24  27
ENDBRANCH  18  22
ENDBRANCH   1  18
TORSDOF 5
ENDMDL
MODEL 3
REMARK VINA RESULT:      -7.4      7.061      8.266
REMARK  Name = 
REMARK  6 active torsions:
REMARK  status: ('A' for Active; 'I' for Inactive)
REMARK    1  A    between atoms: C_1  and  O_2
REMARK    2  A    between atoms: O_2  and  C_3
REMARK    3  A    between atoms: C_6  and  C_7
REMARK    4  A    between atoms: C_7  and  N_8
REMARK    5  A    between atoms: N_11  and  C_12
REMARK    6  A    between atoms: C_24  and  O_25
REMARK                            x       y       z     vdW  Elec       q    Type
REMARK                         _______ _______ _______ _____ _____    ______ ____
ROOT
ATOM      1  N   UNL     1       3.025   4.579  19.981  0.00  0.00    +0.000 N 
ATOM      2  C   UNL     1       2.357   5.728  19.624  0.00  0.00    +0.000 C 
ATOM      3  O   UNL     1       1.990   5.912  18.471  0.00  0.00    +0.000 OA
ATOM      4  N   UNL     1       2.226   6.609  20.676  0.00  0.00    +0.000 N 
ATOM      5  H   UNL     1       2.896   4.253  20.927  0.00  0.00    +0.000 HD
ATOM      6  H   UNL     1       2.785   6.412  21.493  0.00  0.00    +0.000 HD
ENDROOT
BRANCH   4   7
ATOM      7  C   UNL     1       1.648   7.896  20.575  0.00  0.00    +0.000 A 
ATOM      8  C   UNL     1       0.925   8.488  21.598  0.00  0.00    +0.000 A 
ATOM      9  C   UNL     1       0.303   9.716  21.389  0.00  0.00    +0.000 A 
ATOM     10  C   UNL     1       0.406  10.373  20.167  0.00  0.00    +0.000 A 
ATOM     11  N   UNL     1      -0.223  11.577  19.970  0.00  0.00    +0.000 N 
ATOM     12  C   UNL     1      -0.168  12.276  18.701  0.00  0.00    +0.000 C 
ATOM     13  C   UNL     1      -0.749  13.637  19.077  0.00  0.00    +0.000 C 
ATOM     14  C   UNL     1      -1.850  13.291  20.072  0.00  0.00    +0.000 C 
ATOM     15  C   UNL     1      -1.356  12.023  20.770  0.00  0.00    +0.000 C 
ATOM     16  N   UNL     1       1.166   9.842  19.182  0.00  0.00    +0.000 NA
ATOM     17  C   UNL     1       1.763   8.636  19.403  0.00  0.00    +0.000 A 
ENDBRANCH   4   7
BRANCH   1  18
ATOM     18  C   UNL     1       3.215   3.561  18.967  0.00  0.00    +0.000 C 
BRANCH  18  22
ATOM     19  C   UNL     1       6.593   4.533  16.444  0.00  0.00    +0.000 A 
ATOM     20  C   UNL     1       5.355   4.189  15.885  0.00  0.00    +0.000 A 
ATOM     21  C   UNL     1       4.260   3.861  16.688  0.00  0.00    +0.000 A 
ATOM     22  C   UNL     1       4.385   3.875  18.077  0.00  0.00    +0.000 A 
ATOM     23  C   UNL     1       5.627   4.198  18.646  0.00  0.00    +0.000 A 
ATOM     24  C   UNL     1       6.721   4.529  17.837  0.00  0.00    +0.000 A 
BRANCH  19  26
ATOM     25  C   UNL     1       7.141   4.850  14.138  0.00  0.00    +0.000 C 
ATOM     26  O   UNL     1       7.538   4.835  15.501  0.00  0.00    +0.000 OA
ENDBRANCH  19  26
BRANCH  24  27
ATOM     27  O   UNL     1       7.900   4.851  18.450  0.00  0.00    +0.000 OA
ATOM     28  H   UNL     1       7.777   5.659  18.975  0.00  0.00    +0.000 HD
ENDBRANCH  24  27
ENDBRANCH  18  22
ENDBRANCH   1  18
TORSDOF 5
ENDMDL
MODEL 4
REMARK VINA RESULT:      -7.4      6.654      8.421
REMARK  Name = 
REMARK  6 active torsions:
REMARK  status: ('A' for Active; 'I' for Inactive)
REMARK    1  A    between atoms: C_1  and  O_2
REMARK    2  A    between atoms: O_2  and  C_3
REMARK    3  A    between atoms: C_6  and  C_7
REMARK    4  A    between atoms: C_7  and  N_8
REMARK    5  A    between atoms: N_11  and  C_12
REMARK    6  A    between atoms: C_24  and  O_25
REMARK                            x       y       z     vdW  Elec       q    Type
REMARK                         _______ _______ _______ _____ _____    ______ ____
ROOT
ATOM      1  N   UNL     1       3.829   4.991  19.427  0.00  0.00    +0.000 N 
ATOM      2  C   UNL     1       2.818   5.891  19.179  0.00  0.00    +0.000 C 
ATOM      3  O   UNL     1       2.156   5.831  18.152  0.00  0.00    +0.000 OA
ATOM      4  N   UNL     1       2.709   6.846  20.168  0.00  0.00    +0.000 N 
ATOM      5  H   UNL     1       4.015   4.771  20.393  0.00  0.00    +0.000 HD
ATOM      6  H   UNL     1       3.475   6.896  20.823  0.00  0.00    +0.000 HD
ENDROOT
BRANCH   4   7
ATOM      7  C   UNL     1       1.806   7.934  20.135  0.00  0.00    +0.000 A 
ATOM      8  C   UNL     1       1.623   8.738  19.022  0.00  0.00    +0.000 A 
ATOM      9  C   UNL     1       0.790   9.851  19.097  0.00  0.00    +0.000 A 
ATOM     10  C   UNL     1       0.118  10.165  20.275  0.00  0.00    +0.000 A 
ATOM     11  N   UNL     1      -0.691  11.272  20.340  0.00  0.00    +0.000 N 
ATOM     12  C   UNL     1      -1.379  11.652  21.558  0.00  0.00    +0.000 C 
ATOM     13  C   UNL     1      -2.334  12.728  21.046  0.00  0.00    +0.000 C 
ATOM     14  C   UNL     1      -1.510  13.464  19.996  0.00  0.00    +0.000 C 
ATOM     15  C   UNL     1      -0.568  12.401  19.428  0.00  0.00    +0.000 C 
ATOM     16  N   UNL     1       0.232   9.350  21.349  0.00  0.00    +0.000 NA
ATOM     17  C   UNL     1       1.057   8.269  21.258  0.00  0.00    +0.000 A 
ENDBRANCH   4   7
BRANCH   1  18
ATOM     18  C   UNL     1       4.038   3.924  18.467  0.00  0.00    +0.000 C 
BRANCH  18  22
ATOM     19  C   UNL     1       6.881   5.119  15.434  0.00  0.00    +0.000 A 
ATOM     20  C   UNL     1       6.006   4.046  15.214  0.00  0.00    +0.000 A 
ATOM     21  C   UNL     1       5.092   3.643  16.191  0.00  0.00    +0.000 A 
ATOM     22  C   UNL     1       5.034   4.313  17.412  0.00  0.00    +0.000 A 
ATOM     23  C   UNL     1       5.921   5.375  17.649  0.00  0.00    +0.000 A 
ATOM     24  C   UNL     1       6.834   5.778  16.666  0.00  0.00    +0.000 A 
BRANCH  19  26
ATOM     25  C   UNL     1       7.334   4.811  13.106  0.00  0.00    +0.000 C 
ATOM     26  O   UNL     1       7.690   5.373  14.360  0.00  0.00    +0.000 OA
ENDBRANCH  19  26
BRANCH  24  27
ATOM     27  O   UNL     1       7.661   6.830  16.949  0.00  0.00    +0.000 OA
ATOM     28  H   UNL     1       7.891   6.810  17.893  0.00  0.00    +0.000 HD
ENDBRANCH  24  27
ENDBRANCH  18  22
ENDBRANCH   1  18
TORSDOF 5
ENDMDL
MODEL 5
REMARK VINA RESULT:      -7.3      6.926      7.868
REMARK  Name = 
REMARK  6 active torsions:
REMARK  status: ('A' for Active; 'I' for Inactive)
REMARK    1  A    between atoms: C_1  and  O_2
REMARK    2  A    between atoms: O_2  and  C_3
REMARK    3  A    between atoms: C_6  and  C_7
REMARK    4  A    between atoms: C_7  and  N_8
REMARK    5  A    between atoms: N_11  and  C_12
REMARK    6  A    between atoms: C_24  and  O_25
REMARK                            x       y       z     vdW  Elec       q    Type
REMARK                         _______ _______ _______ _____ _____    ______ ____
ROOT
ATOM      1  N   UNL     1       3.050   5.057  20.254  0.00  0.00    +0.000 N 
ATOM      2  C   UNL     1       2.357   6.122  19.725  0.00  0.00    +0.000 C 
ATOM      3  O   UNL     1       1.982   6.116  18.560  0.00  0.00    +0.000 OA
ATOM      4  N   UNL     1       2.210   7.155  20.627  0.00  0.00    +0.000 N 
ATOM      5  H   UNL     1       2.929   4.881  21.240  0.00  0.00    +0.000 HD
ATOM      6  H   UNL     1       2.775   7.100  21.461  0.00  0.00    +0.000 HD
ENDROOT
BRANCH   4   7
ATOM      7  C   UNL     1       1.605   8.398  20.329  0.00  0.00    +0.000 A 
ATOM      8  C   UNL     1       1.584   8.949  19.059  0.00  0.00    +0.000 A 
ATOM      9  C   UNL     1       1.056  10.223  18.862  0.00  0.00    +0.000 A 
ATOM     10  C   UNL     1       0.531  10.953  19.924  0.00  0.00    +0.000 A 
ATOM     11  N   UNL     1       0.025  12.213  19.719  0.00  0.00    +0.000 N 
ATOM     12  C   UNL     1      -0.498  13.018  20.804  0.00  0.00    +0.000 C 
ATOM     13  C   UNL     1      -1.175  14.155  20.042  0.00  0.00    +0.000 C 
ATOM     14  C   UNL     1      -0.236  14.404  18.868  0.00  0.00    +0.000 C 
ATOM     15  C   UNL     1       0.389  13.039  18.575  0.00  0.00    +0.000 C 
ATOM     16  N   UNL     1       0.481  10.400  21.158  0.00  0.00    +0.000 NA
ATOM     17  C   UNL     1       1.008   9.155  21.331  0.00  0.00    +0.000 A 
ENDBRANCH   4   7
BRANCH   1  18
ATOM     18  C   UNL     1       3.258   3.897  19.410  0.00  0.00    +0.000 C 
BRANCH  18  22
ATOM     19  C   UNL     1       6.568   4.555  16.703  0.00  0.00    +0.000 A 
ATOM     20  C   UNL     1       5.294   4.237  16.214  0.00  0.00    +0.000 A 
ATOM     21  C   UNL     1       4.220   4.009  17.078  0.00  0.00    +0.000 A 
ATOM     22  C   UNL     1       4.402   4.102  18.457  0.00  0.00    +0.000 A 
ATOM     23  C   UNL     1       5.681   4.399  18.957  0.00  0.00    +0.000 A 
ATOM     24  C   UNL     1       6.754   4.629  18.087  0.00  0.00    +0.000 A 
BRANCH  19  26
ATOM     25  C   UNL     1       7.021   4.777  14.365  0.00  0.00    +0.000 C 
ATOM     26  O   UNL     1       7.485   4.755  15.706  0.00  0.00    +0.000 OA
ENDBRANCH  19  26
BRANCH  24  27
ATOM     27  O   UNL     1       7.971   4.931  18.633  0.00  0.00    +0.000 OA
ATOM     28  H   UNL     1       8.669   4.489  18.121  0.00  0.00    +0.000 HD
ENDBRANCH  24  27
ENDBRANCH  18  22
ENDBRANCH   1  18
TORSDOF 5
ENDMDL
MODEL 6
REMARK VINA RESULT:      -7.3      6.717      8.806
REMARK  Name = 
REMARK  6 active torsions:
REMARK  status: ('A' for Active; 'I' for Inactive)
REMARK    1  A    between atoms: C_1  and  O_2
REMARK    2  A    between atoms: O_2  and  C_3
REMARK    3  A    between atoms: C_6  and  C_7
REMARK    4  A    between atoms: C_7  and  N_8
REMARK    5  A    between atoms: N_11  and  C_12
REMARK    6  A    between atoms: C_24  and  O_25
REMARK                            x       y       z     vdW  Elec       q    Type
REMARK                         _______ _______ _______ _____ _____    ______ ____
ROOT
ATOM      1  N   UNL     1       2.278   7.358  18.983  0.00  0.00    +0.000 N 
ATOM      2  C   UNL     1       1.831   8.052  20.084  0.00  0.00    +0.000 C 
ATOM      3  O   UNL     1       1.948   7.592  21.212  0.00  0.00    +0.000 OA
ATOM      4  N   UNL     1       1.215   9.238  19.744  0.00  0.00    +0.000 N 
ATOM      5  H   UNL     1       2.592   7.907  18.196  0.00  0.00    +0.000 HD
ATOM      6  H   UNL     1       0.992   9.359  18.767  0.00  0.00    +0.000 HD
ENDROOT
BRANCH   4   7
ATOM      7  C   UNL     1       0.599  10.114  20.668  0.00  0.00    +0.000 A 
ATOM      8  C   UNL     1      -0.450   9.737  21.490  0.00  0.00    +0.000 A 
ATOM      9  C   UNL     1      -1.071  10.682  22.303  0.00  0.00    +0.000 A 
ATOM     10  C   UNL     1      -0.644  12.007  22.316  0.00  0.00    +0.000 A 
ATOM     11  N   UNL     1      -1.272  12.932  23.113  0.00  0.00    +0.000 N 
ATOM     12  C   UNL     1      -0.881  14.327  23.129  0.00  0.00    +0.000 C 
ATOM     13  C   UNL     1      -1.654  14.847  24.339  0.00  0.00    +0.000 C 
ATOM     14  C   UNL     1      -2.979  14.099  24.262  0.00  0.00    +0.000 C 
ATOM     15  C   UNL     1      -2.630  12.758  23.614  0.00  0.00    +0.000 C 
ATOM     16  N   UNL     1       0.423  12.375  21.571  0.00  0.00    +0.000 NA
ATOM     17  C   UNL     1       1.014  11.437  20.778  0.00  0.00    +0.000 A 
ENDBRANCH   4   7
BRANCH   1  18
ATOM     18  C   UNL     1       2.960   6.098  19.206  0.00  0.00    +0.000 C 
BRANCH  18  22
ATOM     19  C   UNL     1       6.363   5.615  16.579  0.00  0.00    +0.000 A 
ATOM     20  C   UNL     1       5.275   6.416  16.204  0.00  0.00    +0.000 A 
ATOM     21  C   UNL     1       4.164   6.570  17.038  0.00  0.00    +0.000 A 
ATOM     22  C   UNL     1       4.125   5.924  18.273  0.00  0.00    +0.000 A 
ATOM     23  C   UNL     1       5.200   5.103  18.648  0.00  0.00    +0.000 A 
ATOM     24  C   UNL     1       6.313   4.954  17.810  0.00  0.00    +0.000 A 
BRANCH  19  26
ATOM     25  C   UNL     1       7.117   4.914  14.420  0.00  0.00    +0.000 C 
ATOM     26  O   UNL     1       7.358   5.599  15.640  0.00  0.00    +0.000 OA
ENDBRANCH  19  26
BRANCH  24  27
ATOM     27  O   UNL     1       7.337   4.154  18.237  0.00  0.00    +0.000 OA
ATOM     28  H   UNL     1       7.004   3.250  18.365  0.00  0.00    +0.000 HD
ENDBRANCH  24  27
ENDBRANCH  18  22
ENDBRANCH   1  18
TORSDOF 5
ENDMDL
MODEL 7
REMARK VINA RESULT:      -7.3      1.036      1.620
REMARK  Name = 
REMARK  6 active torsions:
REMARK  status: ('A' for Active; 'I' for Inactive)
REMARK    1  A    between atoms: C_1  and  O_2
REMARK    2  A    between atoms: O_2  and  C_3
REMARK    3  A    between atoms: C_6  and  C_7
REMARK    4  A    between atoms: C_7  and  N_8
REMARK    5  A    between atoms: N_11  and  C_12
REMARK    6  A    between atoms: C_24  and  O_25
REMARK                            x       y       z     vdW  Elec       q    Type
REMARK                         _______ _______ _______ _____ _____    ______ ____
ROOT
ATOM      1  N   UNL     1       7.978   6.867  18.383  0.00  0.00    +0.000 N 
ATOM      2  C   UNL     1       8.112   8.225  18.202  0.00  0.00    +0.000 C 
ATOM      3  O   UNL     1       7.582   8.791  17.256  0.00  0.00    +0.000 OA
ATOM      4  N   UNL     1       8.928   8.803  19.151  0.00  0.00    +0.000 N 
ATOM      5  H   UNL     1       8.000   6.530  19.333  0.00  0.00    +0.000 HD
ATOM      6  H   UNL     1       9.471   8.168  19.717  0.00  0.00    +0.000 HD
ENDROOT
BRANCH   4   7
ATOM      7  C   UNL     1       9.298  10.168  19.164  0.00  0.00    +0.000 A 
ATOM      8  C   UNL     1       9.658  10.869  18.025  0.00  0.00    +0.000 A 
ATOM      9  C   UNL     1      10.106  12.184  18.129  0.00  0.00    +0.000 A 
ATOM     10  C   UNL     1      10.186  12.817  19.366  0.00  0.00    +0.000 A 
ATOM     11  N   UNL     1      10.641  14.109  19.458  0.00  0.00    +0.000 N 
ATOM     12  C   UNL     1      10.772  14.791  20.730  0.00  0.00    +0.000 C 
ATOM     13  C   UNL     1      11.022  16.229  20.281  0.00  0.00    +0.000 C 
ATOM     14  C   UNL     1      11.901  16.068  19.047  0.00  0.00    +0.000 C 
ATOM     15  C   UNL     1      11.469  14.734  18.436  0.00  0.00    +0.000 C 
ATOM     16  N   UNL     1       9.772  12.169  20.479  0.00  0.00    +0.000 NA
ATOM     17  C   UNL     1       9.343  10.881  20.357  0.00  0.00    +0.000 A 
ENDBRANCH   4   7
BRANCH   1  18
ATOM     18  C   UNL     1       7.129   6.140  17.458  0.00  0.00    +0.000 C 
BRANCH  18  22
ATOM     19  C   UNL     1       3.171   5.566  19.108  0.00  0.00    +0.000 A 
ATOM     20  C   UNL     1       4.237   4.742  19.495  0.00  0.00    +0.000 A 
ATOM     21  C   UNL     1       5.516   4.909  18.961  0.00  0.00    +0.000 A 
ATOM     22  C   UNL     1       5.756   5.914  18.024  0.00  0.00    +0.000 A 
ATOM     23  C   UNL     1       4.690   6.731  17.614  0.00  0.00    +0.000 A 
ATOM     24  C   UNL     1       3.409   6.562  18.155  0.00  0.00    +0.000 A 
BRANCH  19  26
ATOM     25  C   UNL     1       2.078   4.560  20.982  0.00  0.00    +0.000 C 
ATOM     26  O   UNL     1       2.002   5.259  19.749  0.00  0.00    +0.000 OA
ENDBRANCH  19  26
BRANCH  24  27
ATOM     27  O   UNL     1       2.415   7.399  17.729  0.00  0.00    +0.000 OA
ATOM     28  H   UNL     1       1.594   7.188  18.204  0.00  0.00    +0.000 HD
ENDBRANCH  24  27
ENDBRANCH  18  22
ENDBRANCH   1  18
TORSDOF 5
ENDMDL
MODEL 8
REMARK VINA RESULT:      -7.3      1.428      1.685
REMARK  Name = 
REMARK  6 active torsions:
REMARK  status: ('A' for Active; 'I' for Inactive)
REMARK    1  A    between atoms: C_1  and  O_2
REMARK    2  A    between atoms: O_2  and  C_3
REMARK    3  A    between atoms: C_6  and  C_7
REMARK    4  A    between atoms: C_7  and  N_8
REMARK    5  A    between atoms: N_11  and  C_12
REMARK    6  A    between atoms: C_24  and  O_25
REMARK                            x       y       z     vdW  Elec       q    Type
REMARK                         _______ _______ _______ _____ _____    ______ ____
ROOT
ATOM      1  N   UNL     1       7.839   6.302  18.483  0.00  0.00    +0.000 N 
ATOM      2  C   UNL     1       8.060   7.610  18.113  0.00  0.00    +0.000 C 
ATOM      3  O   UNL     1       7.869   7.981  16.963  0.00  0.00    +0.000 OA
ATOM      4  N   UNL     1       8.553   8.374  19.149  0.00  0.00    +0.000 N 
ATOM      5  H   UNL     1       7.554   6.142  19.437  0.00  0.00    +0.000 HD
ATOM      6  H   UNL     1       8.873   7.868  19.961  0.00  0.00    +0.000 HD
ENDROOT
BRANCH   4   7
ATOM      7  C   UNL     1       8.937   9.730  19.031  0.00  0.00    +0.000 A 
ATOM      8  C   UNL     1       8.747  10.477  17.881  0.00  0.00    +0.000 A 
ATOM      9  C   UNL     1       9.240  11.777  17.807  0.00  0.00    +0.000 A 
ATOM     10  C   UNL     1       9.915  12.350  18.881  0.00  0.00    +0.000 A 
ATOM     11  N   UNL     1      10.408  13.628  18.791  0.00  0.00    +0.000 N 
ATOM     12  C   UNL     1      11.146  14.247  19.874  0.00  0.00    +0.000 C 
ATOM     13  C   UNL     1      11.211  15.700  19.408  0.00  0.00    +0.000 C 
ATOM     14  C   UNL     1      11.401  15.582  17.901  0.00  0.00    +0.000 C 
ATOM     15  C   UNL     1      10.683  14.286  17.520  0.00  0.00    +0.000 C 
ATOM     16  N   UNL     1      10.048  11.658  20.035  0.00  0.00    +0.000 NA
ATOM     17  C   UNL     1       9.563  10.385  20.086  0.00  0.00    +0.000 A 
ENDBRANCH   4   7
BRANCH   1  18
ATOM     18  C   UNL     1       7.305   5.396  17.486  0.00  0.00    +0.000 C 
BRANCH  18  22
ATOM     19  C   UNL     1       3.128   4.545  18.226  0.00  0.00    +0.000 A 
ATOM     20  C   UNL     1       3.745   4.131  17.038  0.00  0.00    +0.000 A 
ATOM     21  C   UNL     1       5.089   4.411  16.781  0.00  0.00    +0.000 A 
ATOM     22  C   UNL     1       5.848   5.111  17.719  0.00  0.00    +0.000 A 
ATOM     23  C   UNL     1       5.232   5.549  18.903  0.00  0.00    +0.000 A 
ATOM     24  C   UNL     1       3.885   5.264  19.157  0.00  0.00    +0.000 A 
BRANCH  19  26
ATOM     25  C   UNL     1       1.524   2.815  18.619  0.00  0.00    +0.000 C 
ATOM     26  O   UNL     1       1.814   4.168  18.303  0.00  0.00    +0.000 OA
ENDBRANCH  19  26
BRANCH  24  27
ATOM     27  O   UNL     1       3.346   5.702  20.336  0.00  0.00    +0.000 OA
ATOM     28  H   UNL     1       3.243   4.948  20.939  0.00  0.00    +0.000 HD
ENDBRANCH  24  27
ENDBRANCH  18  22
ENDBRANCH   1  18
TORSDOF 5
ENDMDL
MODEL 9
REMARK VINA RESULT:      -7.1      1.355      2.144
REMARK  Name = 
REMARK  6 active torsions:
REMARK  status: ('A' for Active; 'I' for Inactive)
REMARK    1  A    between atoms: C_1  and  O_2
REMARK    2  A    between atoms: O_2  and  C_3
REMARK    3  A    between atoms: C_6  and  C_7
REMARK    4  A    between atoms: C_7  and  N_8
REMARK    5  A    between atoms: N_11  and  C_12
REMARK    6  A    between atoms: C_24  and  O_25
REMARK                            x       y       z     vdW  Elec       q    Type
REMARK                         _______ _______ _______ _____ _____    ______ ____
ROOT
ATOM      1  N   UNL     1       7.972   6.941  18.221  0.00  0.00    +0.000 N 
ATOM      2  C   UNL     1       8.067   8.311  18.130  0.00  0.00    +0.000 C 
ATOM      3  O   UNL     1       7.469   8.929  17.259  0.00  0.00    +0.000 OA
ATOM      4  N   UNL     1       8.927   8.842  19.066  0.00  0.00    +0.000 N 
ATOM      5  H   UNL     1       8.059   6.540  19.143  0.00  0.00    +0.000 HD
ATOM      6  H   UNL     1       9.516   8.183  19.553  0.00  0.00    +0.000 HD
ENDROOT
BRANCH   4   7
ATOM      7  C   UNL     1       9.269  10.212  19.154  0.00  0.00    +0.000 A 
ATOM      8  C   UNL     1       9.300  10.914  20.347  0.00  0.00    +0.000 A 
ATOM      9  C   UNL     1       9.549  12.284  20.342  0.00  0.00    +0.000 A 
ATOM     10  C   UNL     1       9.785  12.965  19.151  0.00  0.00    +0.000 A 
ATOM     11  N   UNL     1      10.018  14.318  19.158  0.00  0.00    +0.000 N 
ATOM     12  C   UNL     1      10.233  15.069  17.937  0.00  0.00    +0.000 C 
ATOM     13  C   UNL     1      10.717  16.410  18.484  0.00  0.00    +0.000 C 
ATOM     14  C   UNL     1       9.874  16.607  19.738  0.00  0.00    +0.000 C 
ATOM     15  C   UNL     1       9.602  15.191  20.248  0.00  0.00    +0.000 C 
ATOM     16  N   UNL     1       9.828  12.281  17.985  0.00  0.00    +0.000 NA
ATOM     17  C   UNL     1       9.575  10.942  18.010  0.00  0.00    +0.000 A 
ENDBRANCH   4   7
BRANCH   1  18
ATOM     18  C   UNL     1       7.084   6.259  17.299  0.00  0.00    +0.000 C 
BRANCH  18  22
ATOM     19  C   UNL     1       3.311   5.310  19.191  0.00  0.00    +0.000 A 
ATOM     20  C   UNL     1       4.459   4.551  19.458  0.00  0.00    +0.000 A 
ATOM     21  C   UNL     1       5.680   4.839  18.844  0.00  0.00    +0.000 A 
ATOM     22  C   UNL     1       5.776   5.903  17.948  0.00  0.00    +0.000 A 
ATOM     23  C   UNL     1       4.627   6.656  17.658  0.00  0.00    +0.000 A 
ATOM     24  C   UNL     1       3.405   6.365  18.278  0.00  0.00    +0.000 A 
BRANCH  19  26
ATOM     25  C   UNL     1       1.361   3.928  19.290  0.00  0.00    +0.000 C 
ATOM     26  O   UNL     1       2.217   4.885  19.895  0.00  0.00    +0.000 OA
ENDBRANCH  19  26
BRANCH  24  27
ATOM     27  O   UNL     1       2.325   7.144  17.967  0.00  0.00    +0.000 OA
ATOM     28  H   UNL     1       1.794   7.287  18.768  0.00  0.00    +0.000 HD
ENDBRANCH  24  27
ENDBRANCH  18  22
ENDBRANCH   1  18
TORSDOF 5
ENDMDL
