MODEL 1
REMARK VINA RESULT:      -7.2      0.000      0.000
REMARK  Name = 
REMARK  5 active torsions:
REMARK  status: ('A' for Active; 'I' for Inactive)
REMARK    1  A    between atoms: C_2  and  O_3
REMARK    2  A    between atoms: C_2  and  C_4
REMARK    3  A    between atoms: C_4  and  C_5
REMARK    4  A    between atoms: C_7  and  C_8
REMARK    5  A    between atoms: C_15  and  C_16
REMARK                            x       y       z     vdW  Elec       q    Type
REMARK                         _______ _______ _______ _____ _____    ______ ____
ROOT
ATOM      1  C   UNL     1       3.607   4.284  19.149  0.00  0.00    +0.000 A 
ATOM      2  S   UNL     1       2.407   5.082  20.079  0.00  0.00    +0.000 S 
ATOM      3  C   UNL     1       2.748   6.570  19.280  0.00  0.00    +0.000 A 
ATOM      4  N   UNL     1       3.677   6.477  18.347  0.00  0.00    +0.000 NA
ATOM      5  C   UNL     1       4.148   5.174  18.234  0.00  0.00    +0.000 A 
ENDROOT
BRANCH   3   6
ATOM      6  C   UNL     1       1.978   7.789  19.603  0.00  0.00    +0.000 A 
ATOM      7  C   UNL     1       1.440   8.029  20.880  0.00  0.00    +0.000 A 
ATOM      8  C   UNL     1       0.673   9.170  21.139  0.00  0.00    +0.000 A 
ATOM      9  C   UNL     1       0.437  10.096  20.127  0.00  0.00    +0.000 A 
ATOM     10  C   UNL     1       0.980   9.890  18.861  0.00  0.00    +0.000 A 
ATOM     11  C   UNL     1       1.749   8.748  18.603  0.00  0.00    +0.000 A 
ENDBRANCH   3   6
BRANCH   5  12
ATOM     12  C   UNL     1       5.174   4.831  17.187  0.00  0.00    +0.000 A 
ATOM     13  C   UNL     1       4.860   4.229  15.986  0.00  0.00    +0.000 A 
ATOM     14  C   UNL     1       6.013   4.028  15.165  0.00  0.00    +0.000 A 
ATOM     15  C   UNL     1       7.171   4.423  15.791  0.00  0.00    +0.000 A 
ATOM     16  S   UNL     1       6.859   5.080  17.337  0.00  0.00    +0.000 S 
ENDBRANCH   5  12
BRANCH   1  17
ATOM     17  C   UNL     1       3.959   2.864  19.483  0.00  0.00    +0.000 C 
BRANCH  17  19
ATOM     18  O   UNL     1       2.401   2.023  17.875  0.00  0.00    +0.000 OA
ATOM     19  C   UNL     1       3.410   1.817  18.541  0.00  0.00    +0.000 C 
BRANCH  19  20
ATOM     20  O   UNL     1       4.076   0.649  18.435  0.00  0.00    +0.000 OA
ATOM     21  H   UNL     1       3.761  -0.080  19.000  0.00  0.00    +0.000 HD
ENDBRANCH  19  20
ENDBRANCH  17  19
ENDBRANCH   1  17
TORSDOF 5
ENDMDL
MODEL 2
REMARK VINA RESULT:      -7.1      0.793      1.056
REMARK  Name = 
REMARK  5 active torsions:
REMARK  status: ('A' for Active; 'I' for Inactive)
REMARK    1  A    between atoms: C_2  and  O_3
REMARK    2  A    between atoms: C_2  and  C_4
REMARK    3  A    between atoms: C_4  and  C_5
REMARK    4  A    between atoms: C_7  and  C_8
REMARK    5  A    between atoms: C_15  and  C_16
REMARK                            x       y       z     vdW  Elec       q    Type
REMARK                         _______ _______ _______ _____ _____    ______ ____
ROOT
ATOM      1  C   UNL     1       3.383   4.201  19.456  0.00  0.00    +0.000 A 
ATOM      2  S   UNL     1       2.070   4.980  20.238  0.00  0.00    +0.000 S 
ATOM      3  C   UNL     1       2.579   6.505  19.619  0.00  0.00    +0.000 A 
ATOM      4  N   UNL     1       3.646   6.441  18.844  0.00  0.00    +0.000 NA
ATOM      5  C   UNL     1       4.091   5.130  18.711  0.00  0.00    +0.000 A 
ENDROOT
BRANCH   3   6
ATOM      6  C   UNL     1       1.802   7.729  19.906  0.00  0.00    +0.000 A 
ATOM      7  C   UNL     1       1.200   7.969  21.155  0.00  0.00    +0.000 A 
ATOM      8  C   UNL     1       0.428   9.115  21.377  0.00  0.00    +0.000 A 
ATOM      9  C   UNL     1       0.251  10.045  20.357  0.00  0.00    +0.000 A 
ATOM     10  C   UNL     1       0.857   9.838  19.119  0.00  0.00    +0.000 A 
ATOM     11  C   UNL     1       1.630   8.692  18.899  0.00  0.00    +0.000 A 
ENDBRANCH   3   6
BRANCH   5  12
ATOM     12  C   UNL     1       5.264   4.821  17.820  0.00  0.00    +0.000 A 
ATOM     13  C   UNL     1       6.577   4.929  18.229  0.00  0.00    +0.000 A 
ATOM     14  C   UNL     1       7.496   4.561  17.197  0.00  0.00    +0.000 A 
ATOM     15  C   UNL     1       6.859   4.248  16.021  0.00  0.00    +0.000 A 
ATOM     16  S   UNL     1       5.160   4.348  16.179  0.00  0.00    +0.000 S 
ENDBRANCH   5  12
BRANCH   1  17
ATOM     17  C   UNL     1       3.635   2.749  19.733  0.00  0.00    +0.000 C 
BRANCH  17  19
ATOM     18  O   UNL     1       2.536   2.015  17.739  0.00  0.00    +0.000 OA
ATOM     19  C   UNL     1       3.421   1.814  18.564  0.00  0.00    +0.000 C 
BRANCH  19  20
ATOM     20  O   UNL     1       4.249   0.758  18.439  0.00  0.00    +0.000 OA
ATOM     21  H   UNL     1       4.846   0.586  19.190  0.00  0.00    +0.000 HD
ENDBRANCH  19  20
ENDBRANCH  17  19
ENDBRANCH   1  17
TORSDOF 5
ENDMDL
MODEL 3
REMARK VINA RESULT:      -7.0      0.771      1.496
REMARK  Name = 
REMARK  5 active torsions:
REMARK  status: ('A' for Active; 'I' for Inactive)
REMARK    1  A    between atoms: C_2  and  O_3
REMARK    2  A    between atoms: C_2  and  C_4
REMARK    3  A    between atoms: C_4  and  C_5
REMARK    4  A    between atoms: C_7  and  C_8
REMARK    5  A    between atoms: C_15  and  C_16
REMARK                            x       y       z     vdW  Elec       q    Type
REMARK                         _______ _______ _______ _____ _____    ______ ____
ROOT
ATOM      1  C   UNL     1       3.406   4.201  19.368  0.00  0.00    +0.000 A 
ATOM      2  S   UNL     1       2.089   4.978  20.147  0.00  0.00    +0.000 S 
ATOM      3  C   UNL     1       2.610   6.507  19.549  0.00  0.00    +0.000 A 
ATOM      4  N   UNL     1       3.684   6.446  18.783  0.00  0.00    +0.000 NA
ATOM      5  C   UNL     1       4.125   5.135  18.640  0.00  0.00    +0.000 A 
ENDROOT
BRANCH   3   6
ATOM      6  C   UNL     1       1.836   7.730  19.842  0.00  0.00    +0.000 A 
ATOM      7  C   UNL     1       1.659   8.760  18.899  0.00  0.00    +0.000 A 
ATOM      8  C   UNL     1       0.963   9.928  19.227  0.00  0.00    +0.000 A 
ATOM      9  C   UNL     1       0.423  10.085  20.499  0.00  0.00    +0.000 A 
ATOM     10  C   UNL     1       0.566   9.068  21.441  0.00  0.00    +0.000 A 
ATOM     11  C   UNL     1       1.262   7.899  21.113  0.00  0.00    +0.000 A 
ENDBRANCH   3   6
BRANCH   5  12
ATOM     12  C   UNL     1       5.305   4.830  17.756  0.00  0.00    +0.000 A 
ATOM     13  C   UNL     1       6.614   4.915  18.183  0.00  0.00    +0.000 A 
ATOM     14  C   UNL     1       7.541   4.557  17.154  0.00  0.00    +0.000 A 
ATOM     15  C   UNL     1       6.914   4.275  15.965  0.00  0.00    +0.000 A 
ATOM     16  S   UNL     1       5.215   4.391  16.106  0.00  0.00    +0.000 S 
ENDBRANCH   5  12
BRANCH   1  17
ATOM     17  C   UNL     1       3.649   2.745  19.633  0.00  0.00    +0.000 C 
BRANCH  17  19
ATOM     18  O   UNL     1       2.496   2.095  17.640  0.00  0.00    +0.000 OA
ATOM     19  C   UNL     1       3.341   1.812  18.482  0.00  0.00    +0.000 C 
BRANCH  19  20
ATOM     20  O   UNL     1       4.041   0.663  18.395  0.00  0.00    +0.000 OA
ATOM     21  H   UNL     1       4.902   0.717  17.941  0.00  0.00    +0.000 HD
ENDBRANCH  19  20
ENDBRANCH  17  19
ENDBRANCH   1  17
TORSDOF 5
ENDMDL
MODEL 4
REMARK VINA RESULT:      -7.0      0.515      1.194
REMARK  Name = 
REMARK  5 active torsions:
REMARK  status: ('A' for Active; 'I' for Inactive)
REMARK    1  A    between atoms: C_2  and  O_3
REMARK    2  A    between atoms: C_2  and  C_4
REMARK    3  A    between atoms: C_4  and  C_5
REMARK    4  A    between atoms: C_7  and  C_8
REMARK    5  A    between atoms: C_15  and  C_16
REMARK                            x       y       z     vdW  Elec       q    Type
REMARK                         _______ _______ _______ _____ _____    ______ ____
ROOT
ATOM      1  C   UNL     1       3.770   4.581  18.992  0.00  0.00    +0.000 A 
ATOM      2  S   UNL     1       2.573   5.400  19.909  0.00  0.00    +0.000 S 
ATOM      3  C   UNL     1       2.786   6.819  18.956  0.00  0.00    +0.000 A 
ATOM      4  N   UNL     1       3.672   6.687  17.987  0.00  0.00    +0.000 NA
ATOM      5  C   UNL     1       4.212   5.406  17.971  0.00  0.00    +0.000 A 
ENDROOT
BRANCH   3   6
ATOM      6  C   UNL     1       1.964   8.021  19.206  0.00  0.00    +0.000 A 
ATOM      7  C   UNL     1       1.683   8.970  18.206  0.00  0.00    +0.000 A 
ATOM      8  C   UNL     1       0.944  10.123  18.490  0.00  0.00    +0.000 A 
ATOM      9  C   UNL     1       0.463  10.344  19.776  0.00  0.00    +0.000 A 
ATOM     10  C   UNL     1       0.709   9.406  20.777  0.00  0.00    +0.000 A 
ATOM     11  C   UNL     1       1.448   8.252  20.492  0.00  0.00    +0.000 A 
ENDBRANCH   3   6
BRANCH   5  12
ATOM     12  C   UNL     1       5.203   5.019  16.906  0.00  0.00    +0.000 A 
ATOM     13  C   UNL     1       4.932   4.098  15.916  0.00  0.00    +0.000 A 
ATOM     14  C   UNL     1       6.035   3.925  15.022  0.00  0.00    +0.000 A 
ATOM     15  C   UNL     1       7.128   4.668  15.397  0.00  0.00    +0.000 A 
ATOM     16  S   UNL     1       6.804   5.608  16.787  0.00  0.00    +0.000 S 
ENDBRANCH   5  12
BRANCH   1  17
ATOM     17  C   UNL     1       4.220   3.221  19.438  0.00  0.00    +0.000 C 
BRANCH  17  19
ATOM     18  O   UNL     1       2.306   1.839  19.052  0.00  0.00    +0.000 OA
ATOM     19  C   UNL     1       3.489   2.054  18.813  0.00  0.00    +0.000 C 
BRANCH  19  20
ATOM     20  O   UNL     1       4.172   1.263  17.961  0.00  0.00    +0.000 OA
ATOM     21  H   UNL     1       4.501   0.420  18.325  0.00  0.00    +0.000 HD
ENDBRANCH  19  20
ENDBRANCH  17  19
ENDBRANCH   1  17
TORSDOF 5
ENDMDL
MODEL 5
REMARK VINA RESULT:      -7.0      3.771      7.041
REMARK  Name = 
REMARK  5 active torsions:
REMARK  status: ('A' for Active; 'I' for Inactive)
REMARK    1  A    between atoms: C_2  and  O_3
REMARK    2  A    between atoms: C_2  and  C_4
REMARK    3  A    between atoms: C_4  and  C_5
REMARK    4  A    between atoms: C_7  and  C_8
REMARK    5  A    between atoms: C_15  and  C_16
REMARK                            x       y       z     vdW  Elec       q    Type
REMARK                         _______ _______ _______ _____ _____    ______ ____
ROOT
ATOM      1  C   UNL     1       5.912   4.963  18.026  0.00  0.00    +0.000 A 
ATOM      2  S   UNL     1       6.949   5.242  16.688  0.00  0.00    +0.000 S 
ATOM      3  C   UNL     1       5.893   4.354  15.657  0.00  0.00    +0.000 A 
ATOM      4  N   UNL     1       4.809   3.901  16.260  0.00  0.00    +0.000 NA
ATOM      5  C   UNL     1       4.788   4.273  17.600  0.00  0.00    +0.000 A 
ENDROOT
BRANCH   3   6
ATOM      6  C   UNL     1       6.194   4.212  14.218  0.00  0.00    +0.000 A 
ATOM      7  C   UNL     1       5.440   3.388  13.363  0.00  0.00    +0.000 A 
ATOM      8  C   UNL     1       5.783   3.237  12.015  0.00  0.00    +0.000 A 
ATOM      9  C   UNL     1       6.881   3.915  11.495  0.00  0.00    +0.000 A 
ATOM     10  C   UNL     1       7.629   4.755  12.319  0.00  0.00    +0.000 A 
ATOM     11  C   UNL     1       7.284   4.906  13.667  0.00  0.00    +0.000 A 
ENDBRANCH   3   6
BRANCH   5  12
ATOM     12  C   UNL     1       3.609   3.911  18.463  0.00  0.00    +0.000 A 
ATOM     13  C   UNL     1       2.391   4.556  18.394  0.00  0.00    +0.000 A 
ATOM     14  C   UNL     1       1.438   4.008  19.307  0.00  0.00    +0.000 A 
ATOM     15  C   UNL     1       1.976   3.011  20.084  0.00  0.00    +0.000 A 
ATOM     16  S   UNL     1       3.606   2.704  19.675  0.00  0.00    +0.000 S 
ENDBRANCH   5  12
BRANCH   1  17
ATOM     17  C   UNL     1       6.363   5.380  19.394  0.00  0.00    +0.000 C 
BRANCH  17  19
ATOM     18  O   UNL     1       8.173   6.863  18.896  0.00  0.00    +0.000 OA
ATOM     19  C   UNL     1       7.794   5.860  19.491  0.00  0.00    +0.000 C 
BRANCH  19  20
ATOM     20  O   UNL     1       8.643   5.162  20.273  0.00  0.00    +0.000 OA
ATOM     21  H   UNL     1       8.240   4.503  20.867  0.00  0.00    +0.000 HD
ENDBRANCH  19  20
ENDBRANCH  17  19
ENDBRANCH   1  17
TORSDOF 5
ENDMDL
MODEL 6
REMARK VINA RESULT:      -6.8      3.767      7.063
REMARK  Name = 
REMARK  5 active torsions:
REMARK  status: ('A' for Active; 'I' for Inactive)
REMARK    1  A    between atoms: C_2  and  O_3
REMARK    2  A    between atoms: C_2  and  C_4
REMARK    3  A    between atoms: C_4  and  C_5
REMARK    4  A    between atoms: C_7  and  C_8
REMARK    5  A    between atoms: C_15  and  C_16
REMARK                            x       y       z     vdW  Elec       q    Type
REMARK                         _______ _______ _______ _____ _____    ______ ____
ROOT
ATOM      1  C   UNL     1       5.941   4.994  18.022  0.00  0.00    +0.000 A 
ATOM      2  S   UNL     1       6.997   5.280  16.700  0.00  0.00    +0.000 S 
ATOM      3  C   UNL     1       5.974   4.365  15.659  0.00  0.00    +0.000 A 
ATOM      4  N   UNL     1       4.888   3.899  16.246  0.00  0.00    +0.000 NA
ATOM      5  C   UNL     1       4.836   4.282  17.582  0.00  0.00    +0.000 A 
ENDROOT
BRANCH   3   6
ATOM      6  C   UNL     1       6.303   4.217  14.226  0.00  0.00    +0.000 A 
ATOM      7  C   UNL     1       7.356   4.919  13.612  0.00  0.00    +0.000 A 
ATOM      8  C   UNL     1       7.607   4.794  12.242  0.00  0.00    +0.000 A 
ATOM      9  C   UNL     1       6.816   3.957  11.462  0.00  0.00    +0.000 A 
ATOM     10  C   UNL     1       5.783   3.233  12.053  0.00  0.00    +0.000 A 
ATOM     11  C   UNL     1       5.532   3.359  13.424  0.00  0.00    +0.000 A 
ENDBRANCH   3   6
BRANCH   5  12
ATOM     12  C   UNL     1       3.648   3.908  18.427  0.00  0.00    +0.000 A 
ATOM     13  C   UNL     1       2.447   4.586  18.391  0.00  0.00    +0.000 A 
ATOM     14  C   UNL     1       1.480   4.017  19.278  0.00  0.00    +0.000 A 
ATOM     15  C   UNL     1       1.993   2.970  20.004  0.00  0.00    +0.000 A 
ATOM     16  S   UNL     1       3.615   2.643  19.578  0.00  0.00    +0.000 S 
ENDBRANCH   5  12
BRANCH   1  17
ATOM     17  C   UNL     1       6.361   5.431  19.394  0.00  0.00    +0.000 C 
BRANCH  17  19
ATOM     18  O   UNL     1       8.228   6.860  18.955  0.00  0.00    +0.000 OA
ATOM     19  C   UNL     1       7.804   5.863  19.528  0.00  0.00    +0.000 C 
BRANCH  19  20
ATOM     20  O   UNL     1       8.612   5.128  20.319  0.00  0.00    +0.000 OA
ATOM     21  H   UNL     1       9.368   4.695  19.880  0.00  0.00    +0.000 HD
ENDBRANCH  19  20
ENDBRANCH  17  19
ENDBRANCH   1  17
TORSDOF 5
ENDMDL
MODEL 7
REMARK VINA RESULT:      -6.8      1.053      1.103
REMARK  Name = 
REMARK  5 active torsions:
REMARK  status: ('A' for Active; 'I' for Inactive)
REMARK    1  A    between atoms: C_2  and  O_3
REMARK    2  A    between atoms: C_2  and  C_4
REMARK    3  A    between atoms: C_4  and  C_5
REMARK    4  A    between atoms: C_7  and  C_8
REMARK    5  A    between atoms: C_15  and  C_16
REMARK                            x       y       z     vdW  Elec       q    Type
REMARK                         _______ _______ _______ _____ _____    ______ ____
ROOT
ATOM      1  C   UNL     1       3.340   4.377  18.361  0.00  0.00    +0.000 A 
ATOM      2  S   UNL     1       2.123   5.179  19.265  0.00  0.00    +0.000 S 
ATOM      3  C   UNL     1       2.697   6.709  18.720  0.00  0.00    +0.000 A 
ATOM      4  N   UNL     1       3.716   6.633  17.884  0.00  0.00    +0.000 NA
ATOM      5  C   UNL     1       4.068   5.310  17.640  0.00  0.00    +0.000 A 
ENDROOT
BRANCH   3   6
ATOM      6  C   UNL     1       2.016   7.955  19.128  0.00  0.00    +0.000 A 
ATOM      7  C   UNL     1       1.559   8.174  20.441  0.00  0.00    +0.000 A 
ATOM      8  C   UNL     1       0.872   9.344  20.782  0.00  0.00    +0.000 A 
ATOM      9  C   UNL     1       0.639  10.321  19.819  0.00  0.00    +0.000 A 
ATOM     10  C   UNL     1       1.103  10.135  18.518  0.00  0.00    +0.000 A 
ATOM     11  C   UNL     1       1.790   8.965  18.178  0.00  0.00    +0.000 A 
ENDBRANCH   3   6
BRANCH   5  12
ATOM     12  C   UNL     1       5.171   4.992  16.667  0.00  0.00    +0.000 A 
ATOM     13  C   UNL     1       4.997   4.188  15.559  0.00  0.00    +0.000 A 
ATOM     14  C   UNL     1       6.197   4.060  14.791  0.00  0.00    +0.000 A 
ATOM     15  C   UNL     1       7.257   4.714  15.371  0.00  0.00    +0.000 A 
ATOM     16  S   UNL     1       6.792   5.520  16.804  0.00  0.00    +0.000 S 
ENDBRANCH   5  12
BRANCH   1  17
ATOM     17  C   UNL     1       3.512   2.896  18.529  0.00  0.00    +0.000 C 
BRANCH  17  19
ATOM     18  O   UNL     1       3.298   2.505  20.879  0.00  0.00    +0.000 OA
ATOM     19  C   UNL     1       4.012   2.447  19.884  0.00  0.00    +0.000 C 
BRANCH  19  20
ATOM     20  O   UNL     1       5.265   1.956  19.964  0.00  0.00    +0.000 OA
ATOM     21  H   UNL     1       5.370   1.116  20.448  0.00  0.00    +0.000 HD
ENDBRANCH  19  20
ENDBRANCH  17  19
ENDBRANCH   1  17
TORSDOF 5
ENDMDL
MODEL 8
REMARK VINA RESULT:      -6.8      2.928      6.825
REMARK  Name = 
REMARK  5 active torsions:
REMARK  status: ('A' for Active; 'I' for Inactive)
REMARK    1  A    between atoms: C_2  and  O_3
REMARK    2  A    between atoms: C_2  and  C_4
REMARK    3  A    between atoms: C_4  and  C_5
REMARK    4  A    between atoms: C_7  and  C_8
REMARK    5  A    between atoms: C_15  and  C_16
REMARK                            x       y       z     vdW  Elec       q    Type
REMARK                         _______ _______ _______ _____ _____    ______ ____
ROOT
ATOM      1  C   UNL     1       4.332   5.592  17.748  0.00  0.00    +0.000 A 
ATOM      2  S   UNL     1       5.398   6.197  16.548  0.00  0.00    +0.000 S 
ATOM      3  C   UNL     1       5.316   4.704  15.693  0.00  0.00    +0.000 A 
ATOM      4  N   UNL     1       4.515   3.812  16.245  0.00  0.00    +0.000 NA
ATOM      5  C   UNL     1       3.917   4.318  17.394  0.00  0.00    +0.000 A 
ENDROOT
BRANCH   3   6
ATOM      6  C   UNL     1       6.044   4.528  14.419  0.00  0.00    +0.000 A 
ATOM      7  C   UNL     1       7.216   5.242  14.110  0.00  0.00    +0.000 A 
ATOM      8  C   UNL     1       7.851   5.089  12.873  0.00  0.00    +0.000 A 
ATOM      9  C   UNL     1       7.331   4.213  11.926  0.00  0.00    +0.000 A 
ATOM     10  C   UNL     1       6.184   3.478  12.219  0.00  0.00    +0.000 A 
ATOM     11  C   UNL     1       5.550   3.631  13.457  0.00  0.00    +0.000 A 
ENDBRANCH   3   6
BRANCH   5  12
ATOM     12  C   UNL     1       2.917   3.485  18.151  0.00  0.00    +0.000 A 
ATOM     13  C   UNL     1       1.555   3.691  18.086  0.00  0.00    +0.000 A 
ATOM     14  C   UNL     1       0.829   2.754  18.886  0.00  0.00    +0.000 A 
ATOM     15  C   UNL     1       1.660   1.911  19.582  0.00  0.00    +0.000 A 
ATOM     16  S   UNL     1       3.304   2.215  19.230  0.00  0.00    +0.000 S 
ENDBRANCH   5  12
BRANCH   1  17
ATOM     17  C   UNL     1       4.081   6.414  18.977  0.00  0.00    +0.000 C 
BRANCH  17  19
ATOM     18  O   UNL     1       2.148   7.481  18.059  0.00  0.00    +0.000 OA
ATOM     19  C   UNL     1       2.718   7.064  19.061  0.00  0.00    +0.000 C 
BRANCH  19  20
ATOM     20  O   UNL     1       2.134   7.154  20.273  0.00  0.00    +0.000 OA
ATOM     21  H   UNL     1       2.046   8.051  20.644  0.00  0.00    +0.000 HD
ENDBRANCH  19  20
ENDBRANCH  17  19
ENDBRANCH   1  17
TORSDOF 5
ENDMDL
MODEL 9
REMARK VINA RESULT:      -6.8      1.057      1.562
REMARK  Name = 
REMARK  5 active torsions:
REMARK  status: ('A' for Active; 'I' for Inactive)
REMARK    1  A    between atoms: C_2  and  O_3
REMARK    2  A    between atoms: C_2  and  C_4
REMARK    3  A    between atoms: C_4  and  C_5
REMARK    4  A    between atoms: C_7  and  C_8
REMARK    5  A    between atoms: C_15  and  C_16
REMARK                            x       y       z     vdW  Elec       q    Type
REMARK                         _______ _______ _______ _____ _____    ______ ____
ROOT
ATOM      1  C   UNL     1       3.116   4.223  18.916  0.00  0.00    +0.000 A 
ATOM      2  S   UNL     1       1.864   5.055  19.741  0.00  0.00    +0.000 S 
ATOM      3  C   UNL     1       2.515   6.571  19.245  0.00  0.00    +0.000 A 
ATOM      4  N   UNL     1       3.585   6.470  18.478  0.00  0.00    +0.000 NA
ATOM      5  C   UNL     1       3.916   5.138  18.251  0.00  0.00    +0.000 A 
ENDROOT
BRANCH   3   6
ATOM      6  C   UNL     1       1.844   7.833  19.615  0.00  0.00    +0.000 A 
ATOM      7  C   UNL     1       1.651   8.886  18.702  0.00  0.00    +0.000 A 
ATOM      8  C   UNL     1       1.057  10.088  19.099  0.00  0.00    +0.000 A 
ATOM      9  C   UNL     1       0.636  10.257  20.415  0.00  0.00    +0.000 A 
ATOM     10  C   UNL     1       0.796   9.219  21.330  0.00  0.00    +0.000 A 
ATOM     11  C   UNL     1       1.390   8.016  20.932  0.00  0.00    +0.000 A 
ENDBRANCH   3   6
BRANCH   5  12
ATOM     12  C   UNL     1       5.073   4.793  17.351  0.00  0.00    +0.000 A 
ATOM     13  C   UNL     1       4.918   4.334  16.059  0.00  0.00    +0.000 A 
ATOM     14  C   UNL     1       6.173   4.097  15.417  0.00  0.00    +0.000 A 
ATOM     15  C   UNL     1       7.237   4.321  16.257  0.00  0.00    +0.000 A 
ATOM     16  S   UNL     1       6.723   4.864  17.793  0.00  0.00    +0.000 S 
ENDBRANCH   5  12
BRANCH   1  17
ATOM     17  C   UNL     1       3.235   2.737  19.086  0.00  0.00    +0.000 C 
BRANCH  17  19
ATOM     18  O   UNL     1       3.568   2.317  21.417  0.00  0.00    +0.000 OA
ATOM     19  C   UNL     1       4.036   2.279  20.284  0.00  0.00    +0.000 C 
BRANCH  19  20
ATOM     20  O   UNL     1       5.280   1.806  20.070  0.00  0.00    +0.000 OA
ATOM     21  H   UNL     1       5.413   1.301  19.247  0.00  0.00    +0.000 HD
ENDBRANCH  19  20
ENDBRANCH  17  19
ENDBRANCH   1  17
TORSDOF 5
ENDMDL
