MODEL 1
REMARK VINA RESULT:      -7.4      0.000      0.000
REMARK  Name = 
REMARK  12 active torsions:
REMARK  status: ('A' for Active; 'I' for Inactive)
REMARK    1  A    between atoms: C_1  and  C_2
REMARK    2  A    between atoms: N_4  and  C_5
REMARK    3  A    between atoms: C_9  and  O_10
REMARK    4  A    between atoms: O_10  and  C_11
REMARK    5  A    between atoms: C_11  and  C_12
REMARK    6  A    between atoms: C_12  and  C_13
REMARK    7  A    between atoms: C_13  and  N_14
REMARK    8  A    between atoms: C_15  and  C_17
REMARK    9  A    between atoms: C_20  and  C_21
REMARK   10  A    between atoms: C_21  and  C_22
REMARK   11  A    between atoms: C_21  and  C_23
REMARK   12  A    between atoms: C_21  and  C_24
REMARK                            x       y       z     vdW  Elec       q    Type
REMARK                         _______ _______ _______ _____ _____    ______ ____
ROOT
ATOM      1  C   UNL     1       3.728   3.740  20.461  0.00  0.00    +0.000 C 
ENDROOT
BRANCH   1   2
ATOM      2  N   UNL     1       3.332   5.102  20.206  0.00  0.00    +0.000 N 
ATOM      3  C   UNL     1       2.015   5.505  20.292  0.00  0.00    +0.000 C 
ATOM      4  O   UNL     1       1.092   4.760  20.595  0.00  0.00    +0.000 OA
ATOM      5  H   UNL     1       4.059   5.792  20.072  0.00  0.00    +0.000 HD
BRANCH   3   6
ATOM      6  C   UNL     1       1.770   6.946  20.024  0.00  0.00    +0.000 A 
ATOM      7  C   UNL     1       1.195   7.767  20.995  0.00  0.00    +0.000 A 
ATOM      8  C   UNL     1       0.965   9.115  20.726  0.00  0.00    +0.000 A 
ATOM      9  C   UNL     1       1.316   9.691  19.493  0.00  0.00    +0.000 A 
ATOM     10  C   UNL     1       1.899   8.847  18.528  0.00  0.00    +0.000 A 
ATOM     11  C   UNL     1       2.133   7.489  18.791  0.00  0.00    +0.000 A 
BRANCH   9  12
ATOM     12  C   UNL     1       1.123  11.194  19.216  0.00  0.00    +0.000 C 
ATOM     13  C   UNL     1      -0.290  11.531  18.683  0.00  0.00    +0.000 C 
ATOM     14  C   UNL     1       1.325  11.991  20.521  0.00  0.00    +0.000 C 
ATOM     15  C   UNL     1       2.136  11.692  18.165  0.00  0.00    +0.000 C 
ENDBRANCH   9  12
ENDBRANCH   3   6
ENDBRANCH   1   2
BRANCH   1  16
ATOM     16  C   UNL     1       4.460   3.122  19.276  0.00  0.00    +0.000 C 
BRANCH  16  17
ATOM     17  C   UNL     1       3.474   2.911  18.135  0.00  0.00    +0.000 C 
BRANCH  17  18
ATOM     18  O   UNL     1       3.397   4.088  17.337  0.00  0.00    +0.000 OA
BRANCH  18  23
ATOM     19  C   UNL     1       6.424   6.085  16.460  0.00  0.00    +0.000 A 
ATOM     20  C   UNL     1       6.968   5.209  15.517  0.00  0.00    +0.000 A 
ATOM     21  C   UNL     1       6.327   4.010  15.210  0.00  0.00    +0.000 A 
ATOM     22  C   UNL     1       5.134   3.673  15.843  0.00  0.00    +0.000 A 
ATOM     23  C   UNL     1       4.582   4.524  16.799  0.00  0.00    +0.000 A 
ATOM     24  C   UNL     1       5.241   5.717  17.120  0.00  0.00    +0.000 A 
BRANCH  19  28
ATOM     25  C   UNL     1       8.230   9.006  18.025  0.00  0.00    +0.000 C 
ATOM     26  C   UNL     1       7.792   7.569  17.916  0.00  0.00    +0.000 C 
ATOM     27  O   UNL     1       8.137   6.752  18.765  0.00  0.00    +0.000 OA
ATOM     28  N   UNL     1       7.014   7.322  16.798  0.00  0.00    +0.000 N 
ATOM     29  H   UNL     1       6.950   8.061  16.109  0.00  0.00    +0.000 HD
ENDBRANCH  19  28
ENDBRANCH  18  23
ENDBRANCH  17  18
ENDBRANCH  16  17
ENDBRANCH   1  16
TORSDOF 8
ENDMDL
MODEL 2
REMARK VINA RESULT:      -7.3      0.832      1.512
REMARK  Name = 
REMARK  12 active torsions:
REMARK  status: ('A' for Active; 'I' for Inactive)
REMARK    1  A    between atoms: C_1  and  C_2
REMARK    2  A    between atoms: N_4  and  C_5
REMARK    3  A    between atoms: C_9  and  O_10
REMARK    4  A    between atoms: O_10  and  C_11
REMARK    5  A    between atoms: C_11  and  C_12
REMARK    6  A    between atoms: C_12  and  C_13
REMARK    7  A    between atoms: C_13  and  N_14
REMARK    8  A    between atoms: C_15  and  C_17
REMARK    9  A    between atoms: C_20  and  C_21
REMARK   10  A    between atoms: C_21  and  C_22
REMARK   11  A    between atoms: C_21  and  C_23
REMARK   12  A    between atoms: C_21  and  C_24
REMARK                            x       y       z     vdW  Elec       q    Type
REMARK                         _______ _______ _______ _____ _____    ______ ____
ROOT
ATOM      1  C   UNL     1       2.071   2.648  19.665  0.00  0.00    +0.000 C 
ENDROOT
BRANCH   1   2
ATOM      2  N   UNL     1       1.849   4.062  19.494  0.00  0.00    +0.000 N 
ATOM      3  C   UNL     1       2.102   4.966  20.504  0.00  0.00    +0.000 C 
ATOM      4  O   UNL     1       2.537   4.654  21.606  0.00  0.00    +0.000 OA
ATOM      5  H   UNL     1       1.609   4.397  18.571  0.00  0.00    +0.000 HD
BRANCH   3   6
ATOM      6  C   UNL     1       1.847   6.390  20.166  0.00  0.00    +0.000 A 
ATOM      7  C   UNL     1       2.321   6.939  18.974  0.00  0.00    +0.000 A 
ATOM      8  C   UNL     1       2.079   8.279  18.674  0.00  0.00    +0.000 A 
ATOM      9  C   UNL     1       1.343   9.107  19.540  0.00  0.00    +0.000 A 
ATOM     10  C   UNL     1       0.869   8.532  20.735  0.00  0.00    +0.000 A 
ATOM     11  C   UNL     1       1.109   7.185  21.045  0.00  0.00    +0.000 A 
BRANCH   9  12
ATOM     12  C   UNL     1       1.018  10.569  19.181  0.00  0.00    +0.000 C 
ATOM     13  C   UNL     1       2.044  11.192  18.206  0.00  0.00    +0.000 C 
ATOM     14  C   UNL     1      -0.366  10.640  18.501  0.00  0.00    +0.000 C 
ATOM     15  C   UNL     1       0.998  11.451  20.446  0.00  0.00    +0.000 C 
ENDBRANCH   9  12
ENDBRANCH   3   6
ENDBRANCH   1   2
BRANCH   1  16
ATOM     16  C   UNL     1       3.316   2.167  18.929  0.00  0.00    +0.000 C 
BRANCH  16  17
ATOM     17  C   UNL     1       3.231   2.597  17.471  0.00  0.00    +0.000 C 
BRANCH  17  18
ATOM     18  O   UNL     1       3.403   4.006  17.370  0.00  0.00    +0.000 OA
BRANCH  18  23
ATOM     19  C   UNL     1       6.423   5.949  16.355  0.00  0.00    +0.000 A 
ATOM     20  C   UNL     1       6.889   5.080  15.365  0.00  0.00    +0.000 A 
ATOM     21  C   UNL     1       6.202   3.902  15.074  0.00  0.00    +0.000 A 
ATOM     22  C   UNL     1       5.040   3.581  15.769  0.00  0.00    +0.000 A 
ATOM     23  C   UNL     1       4.565   4.425  16.772  0.00  0.00    +0.000 A 
ATOM     24  C   UNL     1       5.271   5.596  17.076  0.00  0.00    +0.000 A 
BRANCH  19  28
ATOM     25  C   UNL     1       8.285   8.833  17.921  0.00  0.00    +0.000 C 
ATOM     26  C   UNL     1       7.768   7.421  17.844  0.00  0.00    +0.000 C 
ATOM     27  O   UNL     1       7.998   6.628  18.752  0.00  0.00    +0.000 OA
ATOM     28  N   UNL     1       7.061   7.165  16.682  0.00  0.00    +0.000 N 
ATOM     29  H   UNL     1       7.095   7.871  15.957  0.00  0.00    +0.000 HD
ENDBRANCH  19  28
ENDBRANCH  18  23
ENDBRANCH  17  18
ENDBRANCH  16  17
ENDBRANCH   1  16
TORSDOF 8
ENDMDL
MODEL 3
REMARK VINA RESULT:      -7.1      3.473      5.259
REMARK  Name = 
REMARK  12 active torsions:
REMARK  status: ('A' for Active; 'I' for Inactive)
REMARK    1  A    between atoms: C_1  and  C_2
REMARK    2  A    between atoms: N_4  and  C_5
REMARK    3  A    between atoms: C_9  and  O_10
REMARK    4  A    between atoms: O_10  and  C_11
REMARK    5  A    between atoms: C_11  and  C_12
REMARK    6  A    between atoms: C_12  and  C_13
REMARK    7  A    between atoms: C_13  and  N_14
REMARK    8  A    between atoms: C_15  and  C_17
REMARK    9  A    between atoms: C_20  and  C_21
REMARK   10  A    between atoms: C_21  and  C_22
REMARK   11  A    between atoms: C_21  and  C_23
REMARK   12  A    between atoms: C_21  and  C_24
REMARK                            x       y       z     vdW  Elec       q    Type
REMARK                         _______ _______ _______ _____ _____    ______ ____
ROOT
ATOM      1  C   UNL     1       2.002   9.094  17.762  0.00  0.00    +0.000 C 
ENDROOT
BRANCH   1   2
ATOM      2  N   UNL     1       0.627   9.521  17.827  0.00  0.00    +0.000 N 
ATOM      3  C   UNL     1       0.228  10.571  18.628  0.00  0.00    +0.000 C 
ATOM      4  O   UNL     1       0.992  11.222  19.330  0.00  0.00    +0.000 OA
ATOM      5  H   UNL     1      -0.031   9.106  17.181  0.00  0.00    +0.000 HD
BRANCH   3   6
ATOM      6  C   UNL     1      -1.218  10.906  18.568  0.00  0.00    +0.000 A 
ATOM      7  C   UNL     1      -2.072  10.239  17.688  0.00  0.00    +0.000 A 
ATOM      8  C   UNL     1      -3.426  10.570  17.639  0.00  0.00    +0.000 A 
ATOM      9  C   UNL     1      -3.973  11.559  18.475  0.00  0.00    +0.000 A 
ATOM     10  C   UNL     1      -3.095  12.217  19.358  0.00  0.00    +0.000 A 
ATOM     11  C   UNL     1      -1.733  11.891  19.413  0.00  0.00    +0.000 A 
BRANCH   9  12
ATOM     12  C   UNL     1      -5.479  11.882  18.469  0.00  0.00    +0.000 C 
ATOM     13  C   UNL     1      -6.364  10.628  18.665  0.00  0.00    +0.000 C 
ATOM     14  C   UNL     1      -5.804  12.860  19.617  0.00  0.00    +0.000 C 
ATOM     15  C   UNL     1      -5.896  12.527  17.131  0.00  0.00    +0.000 C 
ENDBRANCH   9  12
ENDBRANCH   3   6
ENDBRANCH   1   2
BRANCH   1  16
ATOM     16  C   UNL     1       2.301   7.964  18.741  0.00  0.00    +0.000 C 
BRANCH  16  17
ATOM     17  C   UNL     1       2.746   6.734  17.963  0.00  0.00    +0.000 C 
BRANCH  17  18
ATOM     18  O   UNL     1       3.629   5.950  18.758  0.00  0.00    +0.000 OA
BRANCH  18  23
ATOM     19  C   UNL     1       6.069   4.543  16.310  0.00  0.00    +0.000 A 
ATOM     20  C   UNL     1       7.216   4.638  17.104  0.00  0.00    +0.000 A 
ATOM     21  C   UNL     1       7.144   5.156  18.396  0.00  0.00    +0.000 A 
ATOM     22  C   UNL     1       5.925   5.584  18.911  0.00  0.00    +0.000 A 
ATOM     23  C   UNL     1       4.770   5.514  18.132  0.00  0.00    +0.000 A 
ATOM     24  C   UNL     1       4.851   5.013  16.826  0.00  0.00    +0.000 A 
BRANCH  19  28
ATOM     25  C   UNL     1       6.563   3.732  12.658  0.00  0.00    +0.000 C 
ATOM     26  C   UNL     1       6.820   4.482  13.939  0.00  0.00    +0.000 C 
ATOM     27  O   UNL     1       7.632   5.402  13.964  0.00  0.00    +0.000 OA
ATOM     28  N   UNL     1       6.073   4.009  15.004  0.00  0.00    +0.000 N 
ATOM     29  H   UNL     1       5.568   3.143  14.864  0.00  0.00    +0.000 HD
ENDBRANCH  19  28
ENDBRANCH  18  23
ENDBRANCH  17  18
ENDBRANCH  16  17
ENDBRANCH   1  16
TORSDOF 8
ENDMDL
MODEL 4
REMARK VINA RESULT:      -7.1      1.632      2.622
REMARK  Name = 
REMARK  12 active torsions:
REMARK  status: ('A' for Active; 'I' for Inactive)
REMARK    1  A    between atoms: C_1  and  C_2
REMARK    2  A    between atoms: N_4  and  C_5
REMARK    3  A    between atoms: C_9  and  O_10
REMARK    4  A    between atoms: O_10  and  C_11
REMARK    5  A    between atoms: C_11  and  C_12
REMARK    6  A    between atoms: C_12  and  C_13
REMARK    7  A    between atoms: C_13  and  N_14
REMARK    8  A    between atoms: C_15  and  C_17
REMARK    9  A    between atoms: C_20  and  C_21
REMARK   10  A    between atoms: C_21  and  C_22
REMARK   11  A    between atoms: C_21  and  C_23
REMARK   12  A    between atoms: C_21  and  C_24
REMARK                            x       y       z     vdW  Elec       q    Type
REMARK                         _______ _______ _______ _____ _____    ______ ____
ROOT
ATOM      1  C   UNL     1       1.798   3.029  19.286  0.00  0.00    +0.000 C 
ENDROOT
BRANCH   1   2
ATOM      2  N   UNL     1       1.591   4.454  19.209  0.00  0.00    +0.000 N 
ATOM      3  C   UNL     1       2.060   5.310  20.184  0.00  0.00    +0.000 C 
ATOM      4  O   UNL     1       2.686   4.944  21.171  0.00  0.00    +0.000 OA
ATOM      5  H   UNL     1       1.191   4.831  18.362  0.00  0.00    +0.000 HD
BRANCH   3   6
ATOM      6  C   UNL     1       1.788   6.752  19.951  0.00  0.00    +0.000 A 
ATOM      7  C   UNL     1       1.179   7.534  20.934  0.00  0.00    +0.000 A 
ATOM      8  C   UNL     1       0.925   8.884  20.698  0.00  0.00    +0.000 A 
ATOM      9  C   UNL     1       1.286   9.502  19.487  0.00  0.00    +0.000 A 
ATOM     10  C   UNL     1       1.903   8.696  18.510  0.00  0.00    +0.000 A 
ATOM     11  C   UNL     1       2.161   7.337  18.740  0.00  0.00    +0.000 A 
BRANCH   9  12
ATOM     12  C   UNL     1       1.066  11.007  19.248  0.00  0.00    +0.000 C 
ATOM     13  C   UNL     1       2.109  11.623  18.286  0.00  0.00    +0.000 C 
ATOM     14  C   UNL     1      -0.327  11.234  18.624  0.00  0.00    +0.000 C 
ATOM     15  C   UNL     1       1.153  11.790  20.574  0.00  0.00    +0.000 C 
ENDBRANCH   9  12
ENDBRANCH   3   6
ENDBRANCH   1   2
BRANCH   1  16
ATOM     16  C   UNL     1       2.154   2.426  17.932  0.00  0.00    +0.000 C 
BRANCH  16  17
ATOM     17  C   UNL     1       3.372   3.145  17.370  0.00  0.00    +0.000 C 
BRANCH  17  18
ATOM     18  O   UNL     1       4.269   3.478  18.425  0.00  0.00    +0.000 OA
BRANCH  18  23
ATOM     19  C   UNL     1       6.851   5.437  16.575  0.00  0.00    +0.000 A 
ATOM     20  C   UNL     1       7.460   6.043  17.677  0.00  0.00    +0.000 A 
ATOM     21  C   UNL     1       7.004   5.789  18.970  0.00  0.00    +0.000 A 
ATOM     22  C   UNL     1       5.933   4.925  19.176  0.00  0.00    +0.000 A 
ATOM     23  C   UNL     1       5.299   4.321  18.090  0.00  0.00    +0.000 A 
ATOM     24  C   UNL     1       5.747   4.596  16.792  0.00  0.00    +0.000 A 
BRANCH  19  28
ATOM     25  C   UNL     1       7.701   5.238  12.904  0.00  0.00    +0.000 C 
ATOM     26  C   UNL     1       7.074   4.766  14.190  0.00  0.00    +0.000 C 
ATOM     27  O   UNL     1       6.450   3.709  14.221  0.00  0.00    +0.000 OA
ATOM     28  N   UNL     1       7.279   5.637  15.246  0.00  0.00    +0.000 N 
ATOM     29  H   UNL     1       7.676   6.542  15.025  0.00  0.00    +0.000 HD
ENDBRANCH  19  28
ENDBRANCH  18  23
ENDBRANCH  17  18
ENDBRANCH  16  17
ENDBRANCH   1  16
TORSDOF 8
ENDMDL
MODEL 5
REMARK VINA RESULT:      -7.0      1.777      2.946
REMARK  Name = 
REMARK  12 active torsions:
REMARK  status: ('A' for Active; 'I' for Inactive)
REMARK    1  A    between atoms: C_1  and  C_2
REMARK    2  A    between atoms: N_4  and  C_5
REMARK    3  A    between atoms: C_9  and  O_10
REMARK    4  A    between atoms: O_10  and  C_11
REMARK    5  A    between atoms: C_11  and  C_12
REMARK    6  A    between atoms: C_12  and  C_13
REMARK    7  A    between atoms: C_13  and  N_14
REMARK    8  A    between atoms: C_15  and  C_17
REMARK    9  A    between atoms: C_20  and  C_21
REMARK   10  A    between atoms: C_21  and  C_22
REMARK   11  A    between atoms: C_21  and  C_23
REMARK   12  A    between atoms: C_21  and  C_24
REMARK                            x       y       z     vdW  Elec       q    Type
REMARK                         _______ _______ _______ _____ _____    ______ ____
ROOT
ATOM      1  C   UNL     1       2.352   3.248  18.980  0.00  0.00    +0.000 C 
ENDROOT
BRANCH   1   2
ATOM      2  N   UNL     1       2.102   4.667  18.937  0.00  0.00    +0.000 N 
ATOM      3  C   UNL     1       2.021   5.427  20.086  0.00  0.00    +0.000 C 
ATOM      4  O   UNL     1       2.160   4.973  21.215  0.00  0.00    +0.000 OA
ATOM      5  H   UNL     1       2.101   5.123  18.035  0.00  0.00    +0.000 HD
BRANCH   3   6
ATOM      6  C   UNL     1       1.783   6.878  19.877  0.00  0.00    +0.000 A 
ATOM      7  C   UNL     1       2.027   7.472  18.637  0.00  0.00    +0.000 A 
ATOM      8  C   UNL     1       1.805   8.837  18.458  0.00  0.00    +0.000 A 
ATOM      9  C   UNL     1       1.316   9.647  19.498  0.00  0.00    +0.000 A 
ATOM     10  C   UNL     1       1.071   9.027  20.739  0.00  0.00    +0.000 A 
ATOM     11  C   UNL     1       1.293   7.655  20.927  0.00  0.00    +0.000 A 
BRANCH   9  12
ATOM     12  C   UNL     1       1.008  11.141  19.286  0.00  0.00    +0.000 C 
ATOM     13  C   UNL     1       1.088  11.964  20.593  0.00  0.00    +0.000 C 
ATOM     14  C   UNL     1       2.029  11.744  18.298  0.00  0.00    +0.000 C 
ATOM     15  C   UNL     1      -0.412  11.331  18.715  0.00  0.00    +0.000 C 
ENDBRANCH   9  12
ENDBRANCH   3   6
ENDBRANCH   1   2
BRANCH   1  16
ATOM     16  C   UNL     1       3.765   2.899  18.529  0.00  0.00    +0.000 C 
BRANCH  16  17
ATOM     17  C   UNL     1       4.756   3.363  19.588  0.00  0.00    +0.000 C 
BRANCH  17  18
ATOM     18  O   UNL     1       5.927   3.879  18.965  0.00  0.00    +0.000 OA
BRANCH  18  23
ATOM     19  C   UNL     1       5.743   4.972  15.401  0.00  0.00    +0.000 A 
ATOM     20  C   UNL     1       5.281   6.273  15.621  0.00  0.00    +0.000 A 
ATOM     21  C   UNL     1       5.050   6.735  16.916  0.00  0.00    +0.000 A 
ATOM     22  C   UNL     1       5.278   5.901  18.007  0.00  0.00    +0.000 A 
ATOM     23  C   UNL     1       5.723   4.594  17.811  0.00  0.00    +0.000 A 
ATOM     24  C   UNL     1       5.934   4.128  16.507  0.00  0.00    +0.000 A 
BRANCH  19  28
ATOM     25  C   UNL     1       7.094   4.091  11.990  0.00  0.00    +0.000 C 
ATOM     26  C   UNL     1       7.114   4.768  13.335  0.00  0.00    +0.000 C 
ATOM     27  O   UNL     1       8.048   5.503  13.643  0.00  0.00    +0.000 OA
ATOM     28  N   UNL     1       6.016   4.454  14.118  0.00  0.00    +0.000 N 
ATOM     29  H   UNL     1       5.414   3.710  13.788  0.00  0.00    +0.000 HD
ENDBRANCH  19  28
ENDBRANCH  18  23
ENDBRANCH  17  18
ENDBRANCH  16  17
ENDBRANCH   1  16
TORSDOF 8
ENDMDL
MODEL 6
REMARK VINA RESULT:      -6.9      2.432      3.677
REMARK  Name = 
REMARK  12 active torsions:
REMARK  status: ('A' for Active; 'I' for Inactive)
REMARK    1  A    between atoms: C_1  and  C_2
REMARK    2  A    between atoms: N_4  and  C_5
REMARK    3  A    between atoms: C_9  and  O_10
REMARK    4  A    between atoms: O_10  and  C_11
REMARK    5  A    between atoms: C_11  and  C_12
REMARK    6  A    between atoms: C_12  and  C_13
REMARK    7  A    between atoms: C_13  and  N_14
REMARK    8  A    between atoms: C_15  and  C_17
REMARK    9  A    between atoms: C_20  and  C_21
REMARK   10  A    between atoms: C_21  and  C_22
REMARK   11  A    between atoms: C_21  and  C_23
REMARK   12  A    between atoms: C_21  and  C_24
REMARK                            x       y       z     vdW  Elec       q    Type
REMARK                         _______ _______ _______ _____ _____    ______ ____
ROOT
ATOM      1  C   UNL     1       1.937   5.542  20.772  0.00  0.00    +0.000 C 
ENDROOT
BRANCH   1   2
ATOM      2  N   UNL     1       1.242   6.750  21.138  0.00  0.00    +0.000 N 
ATOM      3  C   UNL     1       1.422   7.931  20.448  0.00  0.00    +0.000 C 
ATOM      4  O   UNL     1       2.163   8.049  19.479  0.00  0.00    +0.000 OA
ATOM      5  H   UNL     1       0.526   6.690  21.849  0.00  0.00    +0.000 HD
BRANCH   3   6
ATOM      6  C   UNL     1       0.618   9.082  20.931  0.00  0.00    +0.000 A 
ATOM      7  C   UNL     1       0.082  10.009  20.034  0.00  0.00    +0.000 A 
ATOM      8  C   UNL     1      -0.665  11.088  20.504  0.00  0.00    +0.000 A 
ATOM      9  C   UNL     1      -0.918  11.268  21.876  0.00  0.00    +0.000 A 
ATOM     10  C   UNL     1      -0.372  10.320  22.763  0.00  0.00    +0.000 A 
ATOM     11  C   UNL     1       0.381   9.232  22.298  0.00  0.00    +0.000 A 
BRANCH   9  12
ATOM     12  C   UNL     1      -1.797  12.422  22.392  0.00  0.00    +0.000 C 
ATOM     13  C   UNL     1      -2.688  13.041  21.290  0.00  0.00    +0.000 C 
ATOM     14  C   UNL     1      -2.732  11.903  23.504  0.00  0.00    +0.000 C 
ATOM     15  C   UNL     1      -0.926  13.560  22.965  0.00  0.00    +0.000 C 
ENDBRANCH   9  12
ENDBRANCH   3   6
ENDBRANCH   1   2
BRANCH   1  16
ATOM     16  C   UNL     1       0.992   4.354  20.632  0.00  0.00    +0.000 C 
BRANCH  16  17
ATOM     17  C   UNL     1       1.644   3.123  21.245  0.00  0.00    +0.000 C 
BRANCH  17  18
ATOM     18  O   UNL     1       1.977   2.190  20.223  0.00  0.00    +0.000 OA
BRANCH  18  23
ATOM     19  C   UNL     1       4.901   3.640  18.414  0.00  0.00    +0.000 A 
ATOM     20  C   UNL     1       4.386   3.558  17.117  0.00  0.00    +0.000 A 
ATOM     21  C   UNL     1       3.115   3.034  16.890  0.00  0.00    +0.000 A 
ATOM     22  C   UNL     1       2.342   2.587  17.957  0.00  0.00    +0.000 A 
ATOM     23  C   UNL     1       2.840   2.644  19.258  0.00  0.00    +0.000 A 
ATOM     24  C   UNL     1       4.127   3.152  19.479  0.00  0.00    +0.000 A 
BRANCH  19  28
ATOM     25  C   UNL     1       8.010   5.734  18.844  0.00  0.00    +0.000 C 
ATOM     26  C   UNL     1       6.576   5.479  18.462  0.00  0.00    +0.000 C 
ATOM     27  O   UNL     1       5.892   6.384  17.992  0.00  0.00    +0.000 OA
ATOM     28  N   UNL     1       6.170   4.180  18.711  0.00  0.00    +0.000 N 
ATOM     29  H   UNL     1       6.799   3.596  19.248  0.00  0.00    +0.000 HD
ENDBRANCH  19  28
ENDBRANCH  18  23
ENDBRANCH  17  18
ENDBRANCH  16  17
ENDBRANCH   1  16
TORSDOF 8
ENDMDL
MODEL 7
REMARK VINA RESULT:      -6.9      1.957      3.347
REMARK  Name = 
REMARK  12 active torsions:
REMARK  status: ('A' for Active; 'I' for Inactive)
REMARK    1  A    between atoms: C_1  and  C_2
REMARK    2  A    between atoms: N_4  and  C_5
REMARK    3  A    between atoms: C_9  and  O_10
REMARK    4  A    between atoms: O_10  and  C_11
REMARK    5  A    between atoms: C_11  and  C_12
REMARK    6  A    between atoms: C_12  and  C_13
REMARK    7  A    between atoms: C_13  and  N_14
REMARK    8  A    between atoms: C_15  and  C_17
REMARK    9  A    between atoms: C_20  and  C_21
REMARK   10  A    between atoms: C_21  and  C_22
REMARK   11  A    between atoms: C_21  and  C_23
REMARK   12  A    between atoms: C_21  and  C_24
REMARK                            x       y       z     vdW  Elec       q    Type
REMARK                         _______ _______ _______ _____ _____    ______ ____
ROOT
ATOM      1  C   UNL     1       1.938   3.193  18.580  0.00  0.00    +0.000 C 
ENDROOT
BRANCH   1   2
ATOM      2  N   UNL     1       1.725   4.618  18.616  0.00  0.00    +0.000 N 
ATOM      3  C   UNL     1       2.221   5.403  19.637  0.00  0.00    +0.000 C 
ATOM      4  O   UNL     1       2.880   4.969  20.573  0.00  0.00    +0.000 OA
ATOM      5  H   UNL     1       1.296   5.055  17.812  0.00  0.00    +0.000 HD
BRANCH   3   6
ATOM      6  C   UNL     1       1.938   6.857  19.520  0.00  0.00    +0.000 A 
ATOM      7  C   UNL     1       2.105   7.523  18.304  0.00  0.00    +0.000 A 
ATOM      8  C   UNL     1       1.841   8.889  18.213  0.00  0.00    +0.000 A 
ATOM      9  C   UNL     1       1.387   9.629  19.319  0.00  0.00    +0.000 A 
ATOM     10  C   UNL     1       1.221   8.936  20.534  0.00  0.00    +0.000 A 
ATOM     11  C   UNL     1       1.485   7.563  20.635  0.00  0.00    +0.000 A 
BRANCH   9  12
ATOM     12  C   UNL     1       1.033  11.123  19.204  0.00  0.00    +0.000 C 
ATOM     13  C   UNL     1      -0.366  11.365  18.589  0.00  0.00    +0.000 C 
ATOM     14  C   UNL     1       1.037  11.765  20.607  0.00  0.00    +0.000 C 
ATOM     15  C   UNL     1       2.054  11.861  18.315  0.00  0.00    +0.000 C 
ENDBRANCH   9  12
ENDBRANCH   3   6
ENDBRANCH   1   2
BRANCH   1  16
ATOM     16  C   UNL     1       3.094   2.807  17.665  0.00  0.00    +0.000 C 
BRANCH  16  17
ATOM     17  C   UNL     1       4.340   2.568  18.508  0.00  0.00    +0.000 C 
BRANCH  17  18
ATOM     18  O   UNL     1       5.199   3.701  18.434  0.00  0.00    +0.000 OA
BRANCH  18  23
ATOM     19  C   UNL     1       5.978   4.297  14.834  0.00  0.00    +0.000 A 
ATOM     20  C   UNL     1       5.604   5.643  14.775  0.00  0.00    +0.000 A 
ATOM     21  C   UNL     1       5.116   6.294  15.907  0.00  0.00    +0.000 A 
ATOM     22  C   UNL     1       4.996   5.607  17.111  0.00  0.00    +0.000 A 
ATOM     23  C   UNL     1       5.346   4.260  17.190  0.00  0.00    +0.000 A 
ATOM     24  C   UNL     1       5.817   3.604  16.045  0.00  0.00    +0.000 A 
BRANCH  19  28
ATOM     25  C   UNL     1       6.637   2.506  11.579  0.00  0.00    +0.000 C 
ATOM     26  C   UNL     1       5.831   3.335  12.544  0.00  0.00    +0.000 C 
ATOM     27  O   UNL     1       4.706   3.719  12.239  0.00  0.00    +0.000 OA
ATOM     28  N   UNL     1       6.498   3.589  13.730  0.00  0.00    +0.000 N 
ATOM     29  H   UNL     1       7.479   3.341  13.769  0.00  0.00    +0.000 HD
ENDBRANCH  19  28
ENDBRANCH  18  23
ENDBRANCH  17  18
ENDBRANCH  16  17
ENDBRANCH   1  16
TORSDOF 8
ENDMDL
MODEL 8
REMARK VINA RESULT:      -6.9      4.171      8.306
REMARK  Name = 
REMARK  12 active torsions:
REMARK  status: ('A' for Active; 'I' for Inactive)
REMARK    1  A    between atoms: C_1  and  C_2
REMARK    2  A    between atoms: N_4  and  C_5
REMARK    3  A    between atoms: C_9  and  O_10
REMARK    4  A    between atoms: O_10  and  C_11
REMARK    5  A    between atoms: C_11  and  C_12
REMARK    6  A    between atoms: C_12  and  C_13
REMARK    7  A    between atoms: C_13  and  N_14
REMARK    8  A    between atoms: C_15  and  C_17
REMARK    9  A    between atoms: C_20  and  C_21
REMARK   10  A    between atoms: C_21  and  C_22
REMARK   11  A    between atoms: C_21  and  C_23
REMARK   12  A    between atoms: C_21  and  C_24
REMARK                            x       y       z     vdW  Elec       q    Type
REMARK                         _______ _______ _______ _____ _____    ______ ____
ROOT
ATOM      1  C   UNL     1       8.037   8.974  17.596  0.00  0.00    +0.000 C 
ENDROOT
BRANCH   1   2
ATOM      2  N   UNL     1       7.042   7.977  17.904  0.00  0.00    +0.000 N 
ATOM      3  C   UNL     1       6.915   6.822  17.161  0.00  0.00    +0.000 C 
ATOM      4  O   UNL     1       7.627   6.544  16.203  0.00  0.00    +0.000 OA
ATOM      5  H   UNL     1       6.506   8.087  18.753  0.00  0.00    +0.000 HD
BRANCH   3   6
ATOM      6  C   UNL     1       5.860   5.881  17.617  0.00  0.00    +0.000 A 
ATOM      7  C   UNL     1       6.126   4.931  18.605  0.00  0.00    +0.000 A 
ATOM      8  C   UNL     1       5.126   4.051  19.017  0.00  0.00    +0.000 A 
ATOM      9  C   UNL     1       3.829   4.102  18.476  0.00  0.00    +0.000 A 
ATOM     10  C   UNL     1       3.581   5.071  17.485  0.00  0.00    +0.000 A 
ATOM     11  C   UNL     1       4.581   5.959  17.064  0.00  0.00    +0.000 A 
BRANCH   9  12
ATOM     12  C   UNL     1       2.706   3.175  18.977  0.00  0.00    +0.000 C 
ATOM     13  C   UNL     1       1.323   3.527  18.379  0.00  0.00    +0.000 C 
ATOM     14  C   UNL     1       3.022   1.718  18.580  0.00  0.00    +0.000 C 
ATOM     15  C   UNL     1       2.572   3.256  20.511  0.00  0.00    +0.000 C 
ENDBRANCH   9  12
ENDBRANCH   3   6
ENDBRANCH   1   2
BRANCH   1  16
ATOM     16  C   UNL     1       8.892   9.327  18.807  0.00  0.00    +0.000 C 
BRANCH  16  17
ATOM     17  C   UNL     1       9.141  10.829  18.821  0.00  0.00    +0.000 C 
BRANCH  17  18
ATOM     18  O   UNL     1      10.119  11.149  19.805  0.00  0.00    +0.000 OA
BRANCH  18  23
ATOM     19  C   UNL     1       8.464  12.246  22.964  0.00  0.00    +0.000 A 
ATOM     20  C   UNL     1       8.833  13.594  22.918  0.00  0.00    +0.000 A 
ATOM     21  C   UNL     1       9.604  14.083  21.865  0.00  0.00    +0.000 A 
ATOM     22  C   UNL     1      10.013  13.231  20.844  0.00  0.00    +0.000 A 
ATOM     23  C   UNL     1       9.671  11.880  20.876  0.00  0.00    +0.000 A 
ATOM     24  C   UNL     1       8.915  11.388  21.948  0.00  0.00    +0.000 A 
BRANCH  19  28
ATOM     25  C   UNL     1       5.740  11.146  25.332  0.00  0.00    +0.000 C 
ATOM     26  C   UNL     1       6.292  11.793  24.089  0.00  0.00    +0.000 C 
ATOM     27  O   UNL     1       5.535  12.326  23.283  0.00  0.00    +0.000 OA
ATOM     28  N   UNL     1       7.669  11.696  23.992  0.00  0.00    +0.000 N 
ATOM     29  H   UNL     1       8.135  11.088  24.653  0.00  0.00    +0.000 HD
ENDBRANCH  19  28
ENDBRANCH  18  23
ENDBRANCH  17  18
ENDBRANCH  16  17
ENDBRANCH   1  16
TORSDOF 8
ENDMDL
MODEL 9
REMARK VINA RESULT:      -6.9      2.080      3.112
REMARK  Name = 
REMARK  12 active torsions:
REMARK  status: ('A' for Active; 'I' for Inactive)
REMARK    1  A    between atoms: C_1  and  C_2
REMARK    2  A    between atoms: N_4  and  C_5
REMARK    3  A    between atoms: C_9  and  O_10
REMARK    4  A    between atoms: O_10  and  C_11
REMARK    5  A    between atoms: C_11  and  C_12
REMARK    6  A    between atoms: C_12  and  C_13
REMARK    7  A    between atoms: C_13  and  N_14
REMARK    8  A    between atoms: C_15  and  C_17
REMARK    9  A    between atoms: C_20  and  C_21
REMARK   10  A    between atoms: C_21  and  C_22
REMARK   11  A    between atoms: C_21  and  C_23
REMARK   12  A    between atoms: C_21  and  C_24
REMARK                            x       y       z     vdW  Elec       q    Type
REMARK                         _______ _______ _______ _____ _____    ______ ____
ROOT
ATOM      1  C   UNL     1       2.352   4.663  20.895  0.00  0.00    +0.000 C 
ENDROOT
BRANCH   1   2
ATOM      2  N   UNL     1       1.781   5.980  21.027  0.00  0.00    +0.000 N 
ATOM      3  C   UNL     1       2.077   6.994  20.140  0.00  0.00    +0.000 C 
ATOM      4  O   UNL     1       2.825   6.864  19.180  0.00  0.00    +0.000 OA
ATOM      5  H   UNL     1       1.062   6.119  21.724  0.00  0.00    +0.000 HD
BRANCH   3   6
ATOM      6  C   UNL     1       1.391   8.287  20.396  0.00  0.00    +0.000 A 
ATOM      7  C   UNL     1       0.862   8.580  21.655  0.00  0.00    +0.000 A 
ATOM      8  C   UNL     1       0.215   9.795  21.877  0.00  0.00    +0.000 A 
ATOM      9  C   UNL     1       0.093  10.761  20.863  0.00  0.00    +0.000 A 
ATOM     10  C   UNL     1       0.638  10.448  19.603  0.00  0.00    +0.000 A 
ATOM     11  C   UNL     1       1.288   9.228  19.371  0.00  0.00    +0.000 A 
BRANCH   9  12
ATOM     12  C   UNL     1      -0.563  12.130  21.124  0.00  0.00    +0.000 C 
ATOM     13  C   UNL     1      -0.956  12.337  22.605  0.00  0.00    +0.000 C 
ATOM     14  C   UNL     1       0.422  13.256  20.747  0.00  0.00    +0.000 C 
ATOM     15  C   UNL     1      -1.848  12.290  20.286  0.00  0.00    +0.000 C 
ENDBRANCH   9  12
ENDBRANCH   3   6
ENDBRANCH   1   2
BRANCH   1  16
ATOM     16  C   UNL     1       1.784   3.907  19.699  0.00  0.00    +0.000 C 
BRANCH  16  17
ATOM     17  C   UNL     1       2.914   3.169  18.994  0.00  0.00    +0.000 C 
BRANCH  17  18
ATOM     18  O   UNL     1       4.170   3.607  19.501  0.00  0.00    +0.000 OA
BRANCH  18  23
ATOM     19  C   UNL     1       6.073   4.297  16.365  0.00  0.00    +0.000 A 
ATOM     20  C   UNL     1       6.980   5.222  16.889  0.00  0.00    +0.000 A 
ATOM     21  C   UNL     1       6.931   5.580  18.235  0.00  0.00    +0.000 A 
ATOM     22  C   UNL     1       5.975   5.016  19.075  0.00  0.00    +0.000 A 
ATOM     23  C   UNL     1       5.049   4.104  18.571  0.00  0.00    +0.000 A 
ATOM     24  C   UNL     1       5.088   3.763  17.213  0.00  0.00    +0.000 A 
BRANCH  19  28
ATOM     25  C   UNL     1       6.557   3.826  12.653  0.00  0.00    +0.000 C 
ATOM     26  C   UNL     1       6.796   4.474  13.992  0.00  0.00    +0.000 C 
ATOM     27  O   UNL     1       7.566   5.424  14.089  0.00  0.00    +0.000 OA
ATOM     28  N   UNL     1       6.084   3.878  15.018  0.00  0.00    +0.000 N 
ATOM     29  H   UNL     1       5.617   3.005  14.808  0.00  0.00    +0.000 HD
ENDBRANCH  19  28
ENDBRANCH  18  23
ENDBRANCH  17  18
ENDBRANCH  16  17
ENDBRANCH   1  16
TORSDOF 8
ENDMDL
