MODEL 1
REMARK VINA RESULT:      -7.3      0.000      0.000
REMARK  Name = 
REMARK  8 active torsions:
REMARK  status: ('A' for Active; 'I' for Inactive)
REMARK    1  A    between atoms: C_1  and  C_2
REMARK    2  A    between atoms: C_2  and  N_3
REMARK    3  A    between atoms: N_3  and  C_4
REMARK    4  A    between atoms: N_3  and  C_6
REMARK    5  A    between atoms: C_4  and  C_5
REMARK    6  A    between atoms: C_6  and  C_7
REMARK    7  A    between atoms: C_8  and  C_9
REMARK    8  A    between atoms: C_14  and  C_15
REMARK                            x       y       z     vdW  Elec       q    Type
REMARK                         _______ _______ _______ _____ _____    ______ ____
ROOT
ATOM      1  C   UNL     1       7.115   7.033  17.860  0.00  0.00    +0.000 A 
ATOM      2  C   UNL     1       7.834   5.834  17.915  0.00  0.00    +0.000 A 
ATOM      3  C   UNL     1       7.157   4.608  17.941  0.00  0.00    +0.000 A 
ATOM      4  C   UNL     1       5.760   4.574  17.894  0.00  0.00    +0.000 A 
ATOM      5  N   UNL     1       5.071   3.357  17.920  0.00  0.00    +0.000 N 
ATOM      6  C   UNL     1       3.693   3.291  17.807  0.00  0.00    +0.000 A 
ATOM      7  C   UNL     1       3.093   1.908  17.772  0.00  0.00    +0.000 C 
ATOM      8  C   UNL     1       2.920   4.397  17.733  0.00  0.00    +0.000 A 
ATOM      9 CL   UNL     1       1.208   4.357  17.573  0.00  0.00    +0.000 Cl
ATOM     10  C   UNL     1       3.573   5.744  17.771  0.00  0.00    +0.000 A 
ATOM     11  O   UNL     1       2.930   6.791  17.748  0.00  0.00    +0.000 OA
ATOM     12  C   UNL     1       5.054   5.784  17.833  0.00  0.00    +0.000 A 
ATOM     13  C   UNL     1       5.725   7.011  17.818  0.00  0.00    +0.000 A 
ATOM     14  H   UNL     1       5.602   2.495  17.940  0.00  0.00    +0.000 HD
ENDROOT
BRANCH   1  16
ATOM     15  C   UNL     1       8.432   9.422  17.909  0.00  0.00    +0.000 C 
ATOM     16  C   UNL     1       7.810   8.278  17.860  0.00  0.00    +0.000 C 
BRANCH  15  17
ATOM     17  C   UNL     1       9.159  10.757  17.967  0.00  0.00    +0.000 C 
BRANCH  17  18
ATOM     18  N   UNL     1      10.030  10.864  19.151  0.00  0.00    +0.000 NA
BRANCH  18  20
ATOM     19  C   UNL     1      11.099  12.543  17.599  0.00  0.00    +0.000 C 
ATOM     20  C   UNL     1      11.258  11.591  18.781  0.00  0.00    +0.000 C 
ENDBRANCH  18  20
BRANCH  18  21
ATOM     21  C   UNL     1       9.354  11.405  20.343  0.00  0.00    +0.000 C 
ATOM     22  C   UNL     1      10.163  12.360  21.215  0.00  0.00    +0.000 C 
ENDBRANCH  18  21
ENDBRANCH  17  18
ENDBRANCH  15  17
ENDBRANCH   1  16
TORSDOF 5
ENDMDL
MODEL 2
REMARK VINA RESULT:      -7.1      4.976      7.745
REMARK  Name = 
REMARK  8 active torsions:
REMARK  status: ('A' for Active; 'I' for Inactive)
REMARK    1  A    between atoms: C_1  and  C_2
REMARK    2  A    between atoms: C_2  and  N_3
REMARK    3  A    between atoms: N_3  and  C_4
REMARK    4  A    between atoms: N_3  and  C_6
REMARK    5  A    between atoms: C_4  and  C_5
REMARK    6  A    between atoms: C_6  and  C_7
REMARK    7  A    between atoms: C_8  and  C_9
REMARK    8  A    between atoms: C_14  and  C_15
REMARK                            x       y       z     vdW  Elec       q    Type
REMARK                         _______ _______ _______ _____ _____    ______ ____
ROOT
ATOM      1  C   UNL     1       5.048   4.884  15.647  0.00  0.00    +0.000 A 
ATOM      2  C   UNL     1       5.184   6.215  16.059  0.00  0.00    +0.000 A 
ATOM      3  C   UNL     1       4.485   6.679  17.181  0.00  0.00    +0.000 A 
ATOM      4  C   UNL     1       3.662   5.812  17.906  0.00  0.00    +0.000 A 
ATOM      5  N   UNL     1       2.959   6.263  19.028  0.00  0.00    +0.000 N 
ATOM      6  C   UNL     1       2.191   5.412  19.803  0.00  0.00    +0.000 A 
ATOM      7  C   UNL     1       1.551   6.019  21.027  0.00  0.00    +0.000 C 
ATOM      8  C   UNL     1       2.017   4.109  19.491  0.00  0.00    +0.000 A 
ATOM      9 CL   UNL     1       1.086   3.015  20.438  0.00  0.00    +0.000 Cl
ATOM     10  C   UNL     1       2.677   3.560  18.264  0.00  0.00    +0.000 A 
ATOM     11  O   UNL     1       2.530   2.397  17.897  0.00  0.00    +0.000 OA
ATOM     12  C   UNL     1       3.541   4.481  17.485  0.00  0.00    +0.000 A 
ATOM     13  C   UNL     1       4.228   4.014  16.358  0.00  0.00    +0.000 A 
ATOM     14  H   UNL     1       3.080   7.222  19.328  0.00  0.00    +0.000 HD
ENDROOT
BRANCH   1  16
ATOM     15  C   UNL     1       6.401   4.049  13.430  0.00  0.00    +0.000 C 
ATOM     16  C   UNL     1       5.741   4.425  14.490  0.00  0.00    +0.000 C 
BRANCH  15  17
ATOM     17  C   UNL     1       7.172   3.612  12.194  0.00  0.00    +0.000 C 
BRANCH  17  18
ATOM     18  N   UNL     1       6.369   2.741  11.318  0.00  0.00    +0.000 NA
BRANCH  18  20
ATOM     19  C   UNL     1       6.142   0.229  11.217  0.00  0.00    +0.000 C 
ATOM     20  C   UNL     1       7.059   1.448  11.160  0.00  0.00    +0.000 C 
ENDBRANCH  18  20
BRANCH  18  21
ATOM     21  C   UNL     1       4.959   2.618  11.729  0.00  0.00    +0.000 C 
ATOM     22  C   UNL     1       3.931   3.353  10.875  0.00  0.00    +0.000 C 
ENDBRANCH  18  21
ENDBRANCH  17  18
ENDBRANCH  15  17
ENDBRANCH   1  16
TORSDOF 5
ENDMDL
MODEL 3
REMARK VINA RESULT:      -7.1      4.658      9.687
REMARK  Name = 
REMARK  8 active torsions:
REMARK  status: ('A' for Active; 'I' for Inactive)
REMARK    1  A    between atoms: C_1  and  C_2
REMARK    2  A    between atoms: C_2  and  N_3
REMARK    3  A    between atoms: N_3  and  C_4
REMARK    4  A    between atoms: N_3  and  C_6
REMARK    5  A    between atoms: C_4  and  C_5
REMARK    6  A    between atoms: C_6  and  C_7
REMARK    7  A    between atoms: C_8  and  C_9
REMARK    8  A    between atoms: C_14  and  C_15
REMARK                            x       y       z     vdW  Elec       q    Type
REMARK                         _______ _______ _______ _____ _____    ______ ____
ROOT
ATOM      1  C   UNL     1       9.177  10.400  18.771  0.00  0.00    +0.000 A 
ATOM      2  C   UNL     1       9.233  10.550  20.161  0.00  0.00    +0.000 A 
ATOM      3  C   UNL     1       9.900  11.645  20.725  0.00  0.00    +0.000 A 
ATOM      4  C   UNL     1      10.498  12.604  19.903  0.00  0.00    +0.000 A 
ATOM      5  N   UNL     1      11.167  13.703  20.452  0.00  0.00    +0.000 N 
ATOM      6  C   UNL     1      11.710  14.702  19.663  0.00  0.00    +0.000 A 
ATOM      7  C   UNL     1      12.333  15.865  20.394  0.00  0.00    +0.000 C 
ATOM      8  C   UNL     1      11.687  14.649  18.313  0.00  0.00    +0.000 A 
ATOM      9 CL   UNL     1      12.333  15.879  17.298  0.00  0.00    +0.000 Cl
ATOM     10  C   UNL     1      11.053  13.471  17.642  0.00  0.00    +0.000 A 
ATOM     11  O   UNL     1      11.032  13.336  16.421  0.00  0.00    +0.000 OA
ATOM     12  C   UNL     1      10.428  12.444  18.512  0.00  0.00    +0.000 A 
ATOM     13  C   UNL     1       9.773  11.346  17.943  0.00  0.00    +0.000 A 
ATOM     14  H   UNL     1      11.184  13.811  21.459  0.00  0.00    +0.000 HD
ENDROOT
BRANCH   1  16
ATOM     15  C   UNL     1       7.960   8.207  17.697  0.00  0.00    +0.000 C 
ATOM     16  C   UNL     1       8.520   9.269  18.204  0.00  0.00    +0.000 C 
BRANCH  15  17
ATOM     17  C   UNL     1       7.307   6.968  17.106  0.00  0.00    +0.000 C 
BRANCH  17  18
ATOM     18  N   UNL     1       7.688   5.741  17.827  0.00  0.00    +0.000 NA
BRANCH  18  20
ATOM     19  C   UNL     1       5.889   4.783  19.316  0.00  0.00    +0.000 C 
ATOM     20  C   UNL     1       7.059   5.750  19.160  0.00  0.00    +0.000 C 
ENDBRANCH  18  20
BRANCH  18  21
ATOM     21  C   UNL     1       7.451   4.502  17.065  0.00  0.00    +0.000 C 
ATOM     22  C   UNL     1       7.035   4.665  15.607  0.00  0.00    +0.000 C 
ENDBRANCH  18  21
ENDBRANCH  17  18
ENDBRANCH  15  17
ENDBRANCH   1  16
TORSDOF 5
ENDMDL
MODEL 4
REMARK VINA RESULT:      -7.0      5.546      7.166
REMARK  Name = 
REMARK  8 active torsions:
REMARK  status: ('A' for Active; 'I' for Inactive)
REMARK    1  A    between atoms: C_1  and  C_2
REMARK    2  A    between atoms: C_2  and  N_3
REMARK    3  A    between atoms: N_3  and  C_4
REMARK    4  A    between atoms: N_3  and  C_6
REMARK    5  A    between atoms: C_4  and  C_5
REMARK    6  A    between atoms: C_6  and  C_7
REMARK    7  A    between atoms: C_8  and  C_9
REMARK    8  A    between atoms: C_14  and  C_15
REMARK                            x       y       z     vdW  Elec       q    Type
REMARK                         _______ _______ _______ _____ _____    ______ ____
ROOT
ATOM      1  C   UNL     1       3.732   5.522  17.940  0.00  0.00    +0.000 A 
ATOM      2  C   UNL     1       3.538   4.899  19.178  0.00  0.00    +0.000 A 
ATOM      3  C   UNL     1       2.821   5.551  20.190  0.00  0.00    +0.000 A 
ATOM      4  C   UNL     1       2.281   6.820  19.963  0.00  0.00    +0.000 A 
ATOM      5  N   UNL     1       1.563   7.483  20.964  0.00  0.00    +0.000 N 
ATOM      6  C   UNL     1       0.961   8.710  20.747  0.00  0.00    +0.000 A 
ATOM      7  C   UNL     1       0.155   9.270  21.892  0.00  0.00    +0.000 C 
ATOM      8  C   UNL     1       1.082   9.377  19.578  0.00  0.00    +0.000 A 
ATOM      9 CL   UNL     1       0.333  10.893  19.261  0.00  0.00    +0.000 Cl
ATOM     10  C   UNL     1       1.894   8.771  18.475  0.00  0.00    +0.000 A 
ATOM     11  O   UNL     1       2.080   9.338  17.401  0.00  0.00    +0.000 OA
ATOM     12  C   UNL     1       2.479   7.429  18.716  0.00  0.00    +0.000 A 
ATOM     13  C   UNL     1       3.203   6.787  17.706  0.00  0.00    +0.000 A 
ATOM     14  H   UNL     1       1.412   7.014  21.849  0.00  0.00    +0.000 HD
ENDROOT
BRANCH   1  16
ATOM     15  C   UNL     1       5.165   4.217  16.020  0.00  0.00    +0.000 C 
ATOM     16  C   UNL     1       4.484   4.864  16.924  0.00  0.00    +0.000 C 
BRANCH  15  17
ATOM     17  C   UNL     1       5.959   3.462  14.965  0.00  0.00    +0.000 C 
BRANCH  17  18
ATOM     18  N   UNL     1       6.201   4.278  13.762  0.00  0.00    +0.000 NA
BRANCH  18  20
ATOM     19  C   UNL     1       8.098   5.553  12.691  0.00  0.00    +0.000 C 
ATOM     20  C   UNL     1       7.403   5.104  13.974  0.00  0.00    +0.000 C 
ENDBRANCH  18  20
BRANCH  18  21
ATOM     21  C   UNL     1       6.224   3.503  12.510  0.00  0.00    +0.000 C 
ATOM     22  C   UNL     1       4.874   3.201  11.866  0.00  0.00    +0.000 C 
ENDBRANCH  18  21
ENDBRANCH  17  18
ENDBRANCH  15  17
ENDBRANCH   1  16
TORSDOF 5
ENDMDL
MODEL 5
REMARK VINA RESULT:      -6.9      4.954      7.475
REMARK  Name = 
REMARK  8 active torsions:
REMARK  status: ('A' for Active; 'I' for Inactive)
REMARK    1  A    between atoms: C_1  and  C_2
REMARK    2  A    between atoms: C_2  and  N_3
REMARK    3  A    between atoms: N_3  and  C_4
REMARK    4  A    between atoms: N_3  and  C_6
REMARK    5  A    between atoms: C_4  and  C_5
REMARK    6  A    between atoms: C_6  and  C_7
REMARK    7  A    between atoms: C_8  and  C_9
REMARK    8  A    between atoms: C_14  and  C_15
REMARK                            x       y       z     vdW  Elec       q    Type
REMARK                         _______ _______ _______ _____ _____    ______ ____
ROOT
ATOM      1  C   UNL     1       5.694   4.234  16.137  0.00  0.00    +0.000 A 
ATOM      2  C   UNL     1       6.489   4.705  17.187  0.00  0.00    +0.000 A 
ATOM      3  C   UNL     1       5.966   4.790  18.484  0.00  0.00    +0.000 A 
ATOM      4  C   UNL     1       4.652   4.388  18.740  0.00  0.00    +0.000 A 
ATOM      5  N   UNL     1       4.117   4.467  20.030  0.00  0.00    +0.000 N 
ATOM      6  C   UNL     1       2.843   4.014  20.325  0.00  0.00    +0.000 A 
ATOM      7  C   UNL     1       2.426   4.091  21.773  0.00  0.00    +0.000 C 
ATOM      8  C   UNL     1       2.011   3.528  19.378  0.00  0.00    +0.000 A 
ATOM      9 CL   UNL     1       0.428   2.938  19.707  0.00  0.00    +0.000 Cl
ATOM     10  C   UNL     1       2.479   3.475  17.957  0.00  0.00    +0.000 A 
ATOM     11  O   UNL     1       1.763   3.083  17.038  0.00  0.00    +0.000 OA
ATOM     12  C   UNL     1       3.869   3.912  17.679  0.00  0.00    +0.000 A 
ATOM     13  C   UNL     1       4.383   3.836  16.380  0.00  0.00    +0.000 A 
ATOM     14  H   UNL     1       4.707   4.791  20.785  0.00  0.00    +0.000 HD
ENDROOT
BRANCH   1  16
ATOM     15  C   UNL     1       6.663   4.106  13.590  0.00  0.00    +0.000 C 
ATOM     16  C   UNL     1       6.224   4.174  14.815  0.00  0.00    +0.000 C 
BRANCH  15  17
ATOM     17  C   UNL     1       7.174   4.027  12.160  0.00  0.00    +0.000 C 
BRANCH  17  18
ATOM     18  N   UNL     1       6.380   3.098  11.337  0.00  0.00    +0.000 NA
BRANCH  18  20
ATOM     19  C   UNL     1       6.276   0.584  11.141  0.00  0.00    +0.000 C 
ATOM     20  C   UNL     1       7.135   1.845  11.160  0.00  0.00    +0.000 C 
ENDBRANCH  18  20
BRANCH  18  21
ATOM     21  C   UNL     1       5.002   2.900  11.820  0.00  0.00    +0.000 C 
ATOM     22  C   UNL     1       3.879   3.347  10.890  0.00  0.00    +0.000 C 
ENDBRANCH  18  21
ENDBRANCH  17  18
ENDBRANCH  15  17
ENDBRANCH   1  16
TORSDOF 5
ENDMDL
MODEL 6
REMARK VINA RESULT:      -6.9      0.665      1.425
REMARK  Name = 
REMARK  8 active torsions:
REMARK  status: ('A' for Active; 'I' for Inactive)
REMARK    1  A    between atoms: C_1  and  C_2
REMARK    2  A    between atoms: C_2  and  N_3
REMARK    3  A    between atoms: N_3  and  C_4
REMARK    4  A    between atoms: N_3  and  C_6
REMARK    5  A    between atoms: C_4  and  C_5
REMARK    6  A    between atoms: C_6  and  C_7
REMARK    7  A    between atoms: C_8  and  C_9
REMARK    8  A    between atoms: C_14  and  C_15
REMARK                            x       y       z     vdW  Elec       q    Type
REMARK                         _______ _______ _______ _____ _____    ______ ____
ROOT
ATOM      1  C   UNL     1       7.276   7.392  17.931  0.00  0.00    +0.000 A 
ATOM      2  C   UNL     1       8.049   6.239  18.108  0.00  0.00    +0.000 A 
ATOM      3  C   UNL     1       7.433   4.983  18.184  0.00  0.00    +0.000 A 
ATOM      4  C   UNL     1       6.046   4.872  18.066  0.00  0.00    +0.000 A 
ATOM      5  N   UNL     1       5.417   3.625  18.140  0.00  0.00    +0.000 N 
ATOM      6  C   UNL     1       4.053   3.477  17.960  0.00  0.00    +0.000 A 
ATOM      7  C   UNL     1       3.525   2.064  17.990  0.00  0.00    +0.000 C 
ATOM      8  C   UNL     1       3.231   4.532  17.767  0.00  0.00    +0.000 A 
ATOM      9 CL   UNL     1       1.535   4.390  17.521  0.00  0.00    +0.000 Cl
ATOM     10  C   UNL     1       3.813   5.912  17.746  0.00  0.00    +0.000 A 
ATOM     11  O   UNL     1       3.121   6.920  17.616  0.00  0.00    +0.000 OA
ATOM     12  C   UNL     1       5.285   6.035  17.883  0.00  0.00    +0.000 A 
ATOM     13  C   UNL     1       5.894   7.293  17.818  0.00  0.00    +0.000 A 
ATOM     14  H   UNL     1       5.988   2.795  18.249  0.00  0.00    +0.000 HD
ENDROOT
BRANCH   1  16
ATOM     15  C   UNL     1       8.461   9.849  17.878  0.00  0.00    +0.000 C 
ATOM     16  C   UNL     1       7.907   8.669  17.881  0.00  0.00    +0.000 C 
BRANCH  15  17
ATOM     17  C   UNL     1       9.107  11.226  17.877  0.00  0.00    +0.000 C 
BRANCH  17  18
ATOM     18  N   UNL     1       9.926  11.457  19.080  0.00  0.00    +0.000 NA
BRANCH  18  20
ATOM     19  C   UNL     1       9.016  11.537  21.432  0.00  0.00    +0.000 C 
ATOM     20  C   UNL     1       9.354  10.696  20.205  0.00  0.00    +0.000 C 
ENDBRANCH  18  20
BRANCH  18  21
ATOM     21  C   UNL     1      11.366  11.225  18.875  0.00  0.00    +0.000 C 
ATOM     22  C   UNL     1      12.319  11.969  19.805  0.00  0.00    +0.000 C 
ENDBRANCH  18  21
ENDBRANCH  17  18
ENDBRANCH  15  17
ENDBRANCH   1  16
TORSDOF 5
ENDMDL
MODEL 7
REMARK VINA RESULT:      -6.8      0.694      1.380
REMARK  Name = 
REMARK  8 active torsions:
REMARK  status: ('A' for Active; 'I' for Inactive)
REMARK    1  A    between atoms: C_1  and  C_2
REMARK    2  A    between atoms: C_2  and  N_3
REMARK    3  A    between atoms: N_3  and  C_4
REMARK    4  A    between atoms: N_3  and  C_6
REMARK    5  A    between atoms: C_4  and  C_5
REMARK    6  A    between atoms: C_6  and  C_7
REMARK    7  A    between atoms: C_8  and  C_9
REMARK    8  A    between atoms: C_14  and  C_15
REMARK                            x       y       z     vdW  Elec       q    Type
REMARK                         _______ _______ _______ _____ _____    ______ ____
ROOT
ATOM      1  C   UNL     1       7.183   7.076  17.947  0.00  0.00    +0.000 A 
ATOM      2  C   UNL     1       7.890   5.875  18.073  0.00  0.00    +0.000 A 
ATOM      3  C   UNL     1       7.204   4.654  18.114  0.00  0.00    +0.000 A 
ATOM      4  C   UNL     1       5.811   4.627  18.012  0.00  0.00    +0.000 A 
ATOM      5  N   UNL     1       5.114   3.415  18.051  0.00  0.00    +0.000 N 
ATOM      6  C   UNL     1       3.741   3.352  17.885  0.00  0.00    +0.000 A 
ATOM      7  C   UNL     1       3.133   1.971  17.873  0.00  0.00    +0.000 C 
ATOM      8  C   UNL     1       2.979   4.458  17.740  0.00  0.00    +0.000 A 
ATOM      9 CL   UNL     1       1.274   4.421  17.512  0.00  0.00    +0.000 Cl
ATOM     10  C   UNL     1       3.638   5.803  17.759  0.00  0.00    +0.000 A 
ATOM     11  O   UNL     1       3.004   6.852  17.673  0.00  0.00    +0.000 OA
ATOM     12  C   UNL     1       5.116   5.837  17.880  0.00  0.00    +0.000 A 
ATOM     13  C   UNL     1       5.795   7.060  17.849  0.00  0.00    +0.000 A 
ATOM     14  H   UNL     1       5.637   2.551  18.123  0.00  0.00    +0.000 HD
ENDROOT
BRANCH   1  16
ATOM     15  C   UNL     1       8.498   9.465  17.878  0.00  0.00    +0.000 C 
ATOM     16  C   UNL     1       7.885   8.316  17.932  0.00  0.00    +0.000 C 
BRANCH  15  17
ATOM     17  C   UNL     1       9.212  10.806  17.815  0.00  0.00    +0.000 C 
BRANCH  17  18
ATOM     18  N   UNL     1       8.904  11.655  18.979  0.00  0.00    +0.000 NA
BRANCH  18  20
ATOM     19  C   UNL     1      10.392  11.890  21.004  0.00  0.00    +0.000 C 
ATOM     20  C   UNL     1       9.437  11.016  20.196  0.00  0.00    +0.000 C 
ENDBRANCH  18  20
BRANCH  18  21
ATOM     21  C   UNL     1       9.312  13.061  18.817  0.00  0.00    +0.000 C 
ATOM     22  C   UNL     1      10.079  13.409  17.545  0.00  0.00    +0.000 C 
ENDBRANCH  18  21
ENDBRANCH  17  18
ENDBRANCH  15  17
ENDBRANCH   1  16
TORSDOF 5
ENDMDL
MODEL 8
REMARK VINA RESULT:      -6.8      5.241      7.795
REMARK  Name = 
REMARK  8 active torsions:
REMARK  status: ('A' for Active; 'I' for Inactive)
REMARK    1  A    between atoms: C_1  and  C_2
REMARK    2  A    between atoms: C_2  and  N_3
REMARK    3  A    between atoms: N_3  and  C_4
REMARK    4  A    between atoms: N_3  and  C_6
REMARK    5  A    between atoms: C_4  and  C_5
REMARK    6  A    between atoms: C_6  and  C_7
REMARK    7  A    between atoms: C_8  and  C_9
REMARK    8  A    between atoms: C_14  and  C_15
REMARK                            x       y       z     vdW  Elec       q    Type
REMARK                         _______ _______ _______ _____ _____    ______ ____
ROOT
ATOM      1  C   UNL     1       2.269   7.663  19.138  0.00  0.00    +0.000 A 
ATOM      2  C   UNL     1       2.008   8.361  17.953  0.00  0.00    +0.000 A 
ATOM      3  C   UNL     1       1.154   9.472  17.964  0.00  0.00    +0.000 A 
ATOM      4  C   UNL     1       0.572   9.901  19.160  0.00  0.00    +0.000 A 
ATOM      5  N   UNL     1      -0.282  11.008  19.185  0.00  0.00    +0.000 N 
ATOM      6  C   UNL     1      -0.818  11.495  20.364  0.00  0.00    +0.000 A 
ATOM      7  C   UNL     1      -1.660  12.742  20.248  0.00  0.00    +0.000 C 
ATOM      8  C   UNL     1      -0.607  10.896  21.556  0.00  0.00    +0.000 A 
ATOM      9 CL   UNL     1      -1.239  11.481  23.045  0.00  0.00    +0.000 Cl
ATOM     10  C   UNL     1       0.239   9.661  21.609  0.00  0.00    +0.000 A 
ATOM     11  O   UNL     1       0.440   9.042  22.651  0.00  0.00    +0.000 OA
ATOM     12  C   UNL     1       0.848   9.196  20.340  0.00  0.00    +0.000 A 
ATOM     13  C   UNL     1       1.691   8.079  20.333  0.00  0.00    +0.000 A 
ATOM     14  H   UNL     1      -0.448  11.517  18.325  0.00  0.00    +0.000 HD
ENDROOT
BRANCH   1  16
ATOM     15  C   UNL     1       3.933   5.502  19.110  0.00  0.00    +0.000 C 
ATOM     16  C   UNL     1       3.118   6.519  19.116  0.00  0.00    +0.000 C 
BRANCH  15  17
ATOM     17  C   UNL     1       4.885   4.316  19.104  0.00  0.00    +0.000 C 
BRANCH  17  18
ATOM     18  N   UNL     1       5.867   4.397  18.007  0.00  0.00    +0.000 NA
BRANCH  18  20
ATOM     19  C   UNL     1       5.556   5.064  15.593  0.00  0.00    +0.000 C 
ATOM     20  C   UNL     1       5.186   4.116  16.730  0.00  0.00    +0.000 C 
ENDBRANCH  18  20
BRANCH  18  21
ATOM     21  C   UNL     1       6.654   5.643  18.001  0.00  0.00    +0.000 C 
ATOM     22  C   UNL     1       7.718   5.785  19.085  0.00  0.00    +0.000 C 
ENDBRANCH  18  21
ENDBRANCH  17  18
ENDBRANCH  15  17
ENDBRANCH   1  16
TORSDOF 5
ENDMDL
MODEL 9
REMARK VINA RESULT:      -6.8      6.098      9.001
REMARK  Name = 
REMARK  8 active torsions:
REMARK  status: ('A' for Active; 'I' for Inactive)
REMARK    1  A    between atoms: C_1  and  C_2
REMARK    2  A    between atoms: C_2  and  N_3
REMARK    3  A    between atoms: N_3  and  C_4
REMARK    4  A    between atoms: N_3  and  C_6
REMARK    5  A    between atoms: C_4  and  C_5
REMARK    6  A    between atoms: C_6  and  C_7
REMARK    7  A    between atoms: C_8  and  C_9
REMARK    8  A    between atoms: C_14  and  C_15
REMARK                            x       y       z     vdW  Elec       q    Type
REMARK                         _______ _______ _______ _____ _____    ______ ____
ROOT
ATOM      1  C   UNL     1       2.206   7.593  19.231  0.00  0.00    +0.000 A 
ATOM      2  C   UNL     1       2.058   8.305  18.034  0.00  0.00    +0.000 A 
ATOM      3  C   UNL     1       1.300   9.482  18.005  0.00  0.00    +0.000 A 
ATOM      4  C   UNL     1       0.702   9.964  19.173  0.00  0.00    +0.000 A 
ATOM      5  N   UNL     1      -0.057  11.138  19.157  0.00  0.00    +0.000 N 
ATOM      6  C   UNL     1      -0.605  11.674  20.310  0.00  0.00    +0.000 A 
ATOM      7  C   UNL     1      -1.333  12.986  20.156  0.00  0.00    +0.000 C 
ATOM      8  C   UNL     1      -0.498  11.065  21.512  0.00  0.00    +0.000 A 
ATOM      9 CL   UNL     1      -1.146  11.707  22.970  0.00  0.00    +0.000 Cl
ATOM     10  C   UNL     1       0.239   9.765  21.605  0.00  0.00    +0.000 A 
ATOM     11  O   UNL     1       0.341   9.135  22.655  0.00  0.00    +0.000 OA
ATOM     12  C   UNL     1       0.865   9.244  20.365  0.00  0.00    +0.000 A 
ATOM     13  C   UNL     1       1.611   8.061  20.398  0.00  0.00    +0.000 A 
ATOM     14  H   UNL     1      -0.141  11.655  18.291  0.00  0.00    +0.000 HD
ENDROOT
BRANCH   1  16
ATOM     15  C   UNL     1       3.671   5.293  19.304  0.00  0.00    +0.000 C 
ATOM     16  C   UNL     1       2.957   6.382  19.248  0.00  0.00    +0.000 C 
BRANCH  15  17
ATOM     17  C   UNL     1       4.503   4.022  19.371  0.00  0.00    +0.000 C 
BRANCH  17  18
ATOM     18  N   UNL     1       3.703   2.854  19.779  0.00  0.00    +0.000 NA
BRANCH  18  20
ATOM     19  C   UNL     1       2.070   2.675  21.695  0.00  0.00    +0.000 C 
ATOM     20  C   UNL     1       2.431   3.321  20.360  0.00  0.00    +0.000 C 
ENDBRANCH  18  20
BRANCH  18  21
ATOM     21  C   UNL     1       3.538   1.844  18.719  0.00  0.00    +0.000 C 
ATOM     22  C   UNL     1       2.538   2.168  17.614  0.00  0.00    +0.000 C 
ENDBRANCH  18  21
ENDBRANCH  17  18
ENDBRANCH  15  17
ENDBRANCH   1  16
TORSDOF 5
ENDMDL
