MODEL 1
REMARK VINA RESULT:      -7.4      0.000      0.000
REMARK  Name = 
REMARK  3 active torsions:
REMARK  status: ('A' for Active; 'I' for Inactive)
REMARK    1  A    between atoms: S_2  and  C_4
REMARK    2  A    between atoms: S_2  and  N_11
REMARK    3  A    between atoms: C_14  and  N_15
REMARK                            x       y       z     vdW  Elec       q    Type
REMARK                         _______ _______ _______ _____ _____    ______ ____
ROOT
ATOM      1  N   UNL     1       5.739   6.184  17.883  0.00  0.00    +0.000 NA
ATOM      2  C   UNL     1       4.584   6.141  16.939  0.00  0.00    +0.000 C 
ATOM      3  C   UNL     1       3.256   6.334  17.663  0.00  0.00    +0.000 C 
ATOM      4  C   UNL     1       3.023   5.291  18.773  0.00  0.00    +0.000 C 
ATOM      5  C   UNL     1       4.214   5.465  19.741  0.00  0.00    +0.000 C 
ATOM      6  C   UNL     1       5.564   5.267  19.054  0.00  0.00    +0.000 C 
ENDROOT
BRANCH   4   7
ATOM      7  N   UNL     1       2.904   3.878  18.341  0.00  0.00    +0.000 NA
ATOM      8  C   UNL     1       1.540   3.380  18.053  0.00  0.00    +0.000 C 
ATOM      9  C   UNL     1       0.698   3.040  19.292  0.00  0.00    +0.000 C 
ATOM     10  O   UNL     1       1.363   2.083  20.120  0.00  0.00    +0.000 OA
ATOM     11  C   UNL     1       2.644   2.580  20.523  0.00  0.00    +0.000 C 
ATOM     12  C   UNL     1       3.524   2.928  19.306  0.00  0.00    +0.000 C 
ENDBRANCH   4   7
BRANCH   1  14
ATOM     13  O   UNL     1       8.020   4.983  17.943  0.00  0.00    +0.000 OA
ATOM     14  S   UNL     1       7.263   5.889  17.103  0.00  0.00    +0.000 S 
ATOM     15  O   UNL     1       7.817   7.157  16.683  0.00  0.00    +0.000 OA
BRANCH  14  16
ATOM     16  C   UNL     1       6.791   5.011  15.630  0.00  0.00    +0.000 A 
ATOM     17  C   UNL     1       7.322   5.425  14.403  0.00  0.00    +0.000 A 
ATOM     18  C   UNL     1       6.961   4.752  13.237  0.00  0.00    +0.000 A 
ATOM     19  C   UNL     1       6.082   3.669  13.304  0.00  0.00    +0.000 A 
ATOM     20 CL   UNL     1       5.625   2.853  11.860  0.00  0.00    +0.000 Cl
ATOM     21  C   UNL     1       5.575   3.239  14.532  0.00  0.00    +0.000 A 
ATOM     22  C   UNL     1       5.934   3.907  15.705  0.00  0.00    +0.000 A 
ENDBRANCH  14  16
ENDBRANCH   1  14
TORSDOF 3
ENDMDL
MODEL 2
REMARK VINA RESULT:      -7.3      0.297      1.078
REMARK  Name = 
REMARK  3 active torsions:
REMARK  status: ('A' for Active; 'I' for Inactive)
REMARK    1  A    between atoms: S_2  and  C_4
REMARK    2  A    between atoms: S_2  and  N_11
REMARK    3  A    between atoms: C_14  and  N_15
REMARK                            x       y       z     vdW  Elec       q    Type
REMARK                         _______ _______ _______ _____ _____    ______ ____
ROOT
ATOM      1  N   UNL     1       5.730   6.090  17.856  0.00  0.00    +0.000 NA
ATOM      2  C   UNL     1       4.574   5.893  16.932  0.00  0.00    +0.000 C 
ATOM      3  C   UNL     1       3.240   6.027  17.659  0.00  0.00    +0.000 C 
ATOM      4  C   UNL     1       3.101   5.045  18.838  0.00  0.00    +0.000 C 
ATOM      5  C   UNL     1       4.282   5.376  19.777  0.00  0.00    +0.000 C 
ATOM      6  C   UNL     1       5.638   5.241  19.086  0.00  0.00    +0.000 C 
ENDROOT
BRANCH   4   7
ATOM      7  N   UNL     1       3.092   3.601  18.501  0.00  0.00    +0.000 NA
ATOM      8  C   UNL     1       1.893   3.085  17.803  0.00  0.00    +0.000 C 
ATOM      9  C   UNL     1       0.669   2.852  18.703  0.00  0.00    +0.000 C 
ATOM     10  O   UNL     1       0.984   1.964  19.779  0.00  0.00    +0.000 OA
ATOM     11  C   UNL     1       2.065   2.489  20.555  0.00  0.00    +0.000 C 
ATOM     12  C   UNL     1       3.318   2.732  19.689  0.00  0.00    +0.000 C 
ENDBRANCH   4   7
BRANCH   1  14
ATOM     13  O   UNL     1       8.051   4.968  17.899  0.00  0.00    +0.000 OA
ATOM     14  S   UNL     1       7.265   5.866  17.077  0.00  0.00    +0.000 S 
ATOM     15  O   UNL     1       7.776   7.162  16.688  0.00  0.00    +0.000 OA
BRANCH  14  16
ATOM     16  C   UNL     1       6.831   5.007  15.582  0.00  0.00    +0.000 A 
ATOM     17  C   UNL     1       5.963   3.911  15.664  0.00  0.00    +0.000 A 
ATOM     18  C   UNL     1       5.614   3.223  14.504  0.00  0.00    +0.000 A 
ATOM     19  C   UNL     1       6.125   3.636  13.272  0.00  0.00    +0.000 A 
ATOM     20 CL   UNL     1       5.706   2.771  11.844  0.00  0.00    +0.000 Cl
ATOM     21  C   UNL     1       6.968   4.746  13.186  0.00  0.00    +0.000 A 
ATOM     22  C   UNL     1       7.319   5.442  14.345  0.00  0.00    +0.000 A 
ENDBRANCH  14  16
ENDBRANCH   1  14
TORSDOF 3
ENDMDL
MODEL 3
REMARK VINA RESULT:      -7.0      1.473      2.340
REMARK  Name = 
REMARK  3 active torsions:
REMARK  status: ('A' for Active; 'I' for Inactive)
REMARK    1  A    between atoms: S_2  and  C_4
REMARK    2  A    between atoms: S_2  and  N_11
REMARK    3  A    between atoms: C_14  and  N_15
REMARK                            x       y       z     vdW  Elec       q    Type
REMARK                         _______ _______ _______ _____ _____    ______ ____
ROOT
ATOM      1  N   UNL     1       5.830   4.779  17.055  0.00  0.00    +0.000 NA
ATOM      2  C   UNL     1       5.676   5.349  18.426  0.00  0.00    +0.000 C 
ATOM      3  C   UNL     1       5.266   4.284  19.438  0.00  0.00    +0.000 C 
ATOM      4  C   UNL     1       3.958   3.567  19.053  0.00  0.00    +0.000 C 
ATOM      5  C   UNL     1       4.236   2.941  17.669  0.00  0.00    +0.000 C 
ATOM      6  C   UNL     1       4.639   3.980  16.624  0.00  0.00    +0.000 C 
ENDROOT
BRANCH   4   7
ATOM      7  N   UNL     1       2.732   4.400  19.012  0.00  0.00    +0.000 NA
ATOM      8  C   UNL     1       2.178   4.839  20.312  0.00  0.00    +0.000 C 
ATOM      9  C   UNL     1       1.386   3.766  21.076  0.00  0.00    +0.000 C 
ATOM     10  O   UNL     1       0.317   3.252  20.279  0.00  0.00    +0.000 OA
ATOM     11  C   UNL     1       0.825   2.705  19.058  0.00  0.00    +0.000 C 
ATOM     12  C   UNL     1       1.623   3.753  18.257  0.00  0.00    +0.000 C 
ENDBRANCH   4   7
BRANCH   1  14
ATOM     13  O   UNL     1       7.482   6.584  16.240  0.00  0.00    +0.000 OA
ATOM     14  S   UNL     1       6.219   5.980  15.863  0.00  0.00    +0.000 S 
ATOM     15  O   UNL     1       5.045   6.790  15.627  0.00  0.00    +0.000 OA
BRANCH  14  16
ATOM     16  C   UNL     1       6.488   5.011  14.396  0.00  0.00    +0.000 A 
ATOM     17  C   UNL     1       5.529   4.057  14.036  0.00  0.00    +0.000 A 
ATOM     18  C   UNL     1       5.723   3.285  12.892  0.00  0.00    +0.000 A 
ATOM     19  C   UNL     1       6.866   3.476  12.112  0.00  0.00    +0.000 A 
ATOM     20 CL   UNL     1       7.111   2.507  10.711  0.00  0.00    +0.000 Cl
ATOM     21  C   UNL     1       7.809   4.447  12.456  0.00  0.00    +0.000 A 
ATOM     22  C   UNL     1       7.619   5.225  13.600  0.00  0.00    +0.000 A 
ENDBRANCH  14  16
ENDBRANCH   1  14
TORSDOF 3
ENDMDL
MODEL 4
REMARK VINA RESULT:      -6.8      1.502      2.159
REMARK  Name = 
REMARK  3 active torsions:
REMARK  status: ('A' for Active; 'I' for Inactive)
REMARK    1  A    between atoms: S_2  and  C_4
REMARK    2  A    between atoms: S_2  and  N_11
REMARK    3  A    between atoms: C_14  and  N_15
REMARK                            x       y       z     vdW  Elec       q    Type
REMARK                         _______ _______ _______ _____ _____    ______ ____
ROOT
ATOM      1  N   UNL     1       5.834   4.702  17.033  0.00  0.00    +0.000 NA
ATOM      2  C   UNL     1       5.747   5.258  18.415  0.00  0.00    +0.000 C 
ATOM      3  C   UNL     1       5.343   4.192  19.428  0.00  0.00    +0.000 C 
ATOM      4  C   UNL     1       4.001   3.518  19.083  0.00  0.00    +0.000 C 
ATOM      5  C   UNL     1       4.210   2.903  17.682  0.00  0.00    +0.000 C 
ATOM      6  C   UNL     1       4.605   3.944  16.636  0.00  0.00    +0.000 C 
ENDROOT
BRANCH   4   7
ATOM      7  N   UNL     1       2.800   4.387  19.097  0.00  0.00    +0.000 NA
ATOM      8  C   UNL     1       2.271   4.776  20.424  0.00  0.00    +0.000 C 
ATOM      9  C   UNL     1       1.455   3.689  21.141  0.00  0.00    +0.000 C 
ATOM     10  O   UNL     1       0.364   3.247  20.331  0.00  0.00    +0.000 OA
ATOM     11  C   UNL     1       0.845   2.747  19.079  0.00  0.00    +0.000 C 
ATOM     12  C   UNL     1       1.665   3.812  18.323  0.00  0.00    +0.000 C 
ENDBRANCH   4   7
BRANCH   1  14
ATOM     13  O   UNL     1       7.485   6.502  16.206  0.00  0.00    +0.000 OA
ATOM     14  S   UNL     1       6.215   5.907  15.841  0.00  0.00    +0.000 S 
ATOM     15  O   UNL     1       5.042   6.725  15.625  0.00  0.00    +0.000 OA
BRANCH  14  16
ATOM     16  C   UNL     1       6.460   4.944  14.367  0.00  0.00    +0.000 A 
ATOM     17  C   UNL     1       7.606   5.173  13.597  0.00  0.00    +0.000 A 
ATOM     18  C   UNL     1       7.813   4.432  12.435  0.00  0.00    +0.000 A 
ATOM     19  C   UNL     1       6.882   3.463  12.055  0.00  0.00    +0.000 A 
ATOM     20 CL   UNL     1       7.132   2.563  10.609  0.00  0.00    +0.000 Cl
ATOM     21  C   UNL     1       5.752   3.215  12.838  0.00  0.00    +0.000 A 
ATOM     22  C   UNL     1       5.540   3.953  14.004  0.00  0.00    +0.000 A 
ENDBRANCH  14  16
ENDBRANCH   1  14
TORSDOF 3
ENDMDL
MODEL 5
REMARK VINA RESULT:      -6.8      1.563      2.334
REMARK  Name = 
REMARK  3 active torsions:
REMARK  status: ('A' for Active; 'I' for Inactive)
REMARK    1  A    between atoms: S_2  and  C_4
REMARK    2  A    between atoms: S_2  and  N_11
REMARK    3  A    between atoms: C_14  and  N_15
REMARK                            x       y       z     vdW  Elec       q    Type
REMARK                         _______ _______ _______ _____ _____    ______ ____
ROOT
ATOM      1  N   UNL     1       4.454   5.071  16.670  0.00  0.00    +0.000 NA
ATOM      2  C   UNL     1       4.536   3.731  17.324  0.00  0.00    +0.000 C 
ATOM      3  C   UNL     1       3.160   3.224  17.746  0.00  0.00    +0.000 C 
ATOM      4  C   UNL     1       2.433   4.193  18.698  0.00  0.00    +0.000 C 
ATOM      5  C   UNL     1       2.320   5.518  17.912  0.00  0.00    +0.000 C 
ATOM      6  C   UNL     1       3.681   6.064  17.481  0.00  0.00    +0.000 C 
ENDROOT
BRANCH   4   7
ATOM      7  N   UNL     1       3.064   4.424  20.019  0.00  0.00    +0.000 NA
ATOM      8  C   UNL     1       4.111   3.464  20.437  0.00  0.00    +0.000 C 
ATOM      9  C   UNL     1       3.586   2.117  20.957  0.00  0.00    +0.000 C 
ATOM     10  O   UNL     1       2.683   2.304  22.049  0.00  0.00    +0.000 OA
ATOM     11  C   UNL     1       1.586   3.132  21.650  0.00  0.00    +0.000 C 
ATOM     12  C   UNL     1       2.071   4.499  21.126  0.00  0.00    +0.000 C 
ENDBRANCH   4   7
BRANCH   1  14
ATOM     13  O   UNL     1       6.969   5.227  17.222  0.00  0.00    +0.000 OA
ATOM     14  S   UNL     1       6.012   5.713  16.248  0.00  0.00    +0.000 S 
ATOM     15  O   UNL     1       5.868   7.128  15.984  0.00  0.00    +0.000 OA
BRANCH  14  16
ATOM     16  C   UNL     1       6.358   4.925  14.692  0.00  0.00    +0.000 A 
ATOM     17  C   UNL     1       5.453   3.976  14.203  0.00  0.00    +0.000 A 
ATOM     18  C   UNL     1       5.709   3.344  12.988  0.00  0.00    +0.000 A 
ATOM     19  C   UNL     1       6.860   3.669  12.266  0.00  0.00    +0.000 A 
ATOM     20 CL   UNL     1       7.182   2.873  10.775  0.00  0.00    +0.000 Cl
ATOM     21  C   UNL     1       7.749   4.636  12.741  0.00  0.00    +0.000 A 
ATOM     22  C   UNL     1       7.497   5.274  13.957  0.00  0.00    +0.000 A 
ENDBRANCH  14  16
ENDBRANCH   1  14
TORSDOF 3
ENDMDL
MODEL 6
REMARK VINA RESULT:      -6.7      3.222      6.429
REMARK  Name = 
REMARK  3 active torsions:
REMARK  status: ('A' for Active; 'I' for Inactive)
REMARK    1  A    between atoms: S_2  and  C_4
REMARK    2  A    between atoms: S_2  and  N_11
REMARK    3  A    between atoms: C_14  and  N_15
REMARK                            x       y       z     vdW  Elec       q    Type
REMARK                         _______ _______ _______ _____ _____    ______ ____
ROOT
ATOM      1  N   UNL     1       3.141   3.683  19.570  0.00  0.00    +0.000 NA
ATOM      2  C   UNL     1       2.762   3.225  18.200  0.00  0.00    +0.000 C 
ATOM      3  C   UNL     1       3.940   2.584  17.473  0.00  0.00    +0.000 C 
ATOM      4  C   UNL     1       5.155   3.524  17.360  0.00  0.00    +0.000 C 
ATOM      5  C   UNL     1       5.527   3.877  18.817  0.00  0.00    +0.000 C 
ATOM      6  C   UNL     1       4.373   4.533  19.575  0.00  0.00    +0.000 C 
ENDROOT
BRANCH   4   7
ATOM      7  N   UNL     1       4.968   4.756  16.557  0.00  0.00    +0.000 NA
ATOM      8  C   UNL     1       5.188   4.643  15.097  0.00  0.00    +0.000 C 
ATOM      9  C   UNL     1       6.662   4.621  14.663  0.00  0.00    +0.000 C 
ATOM     10  O   UNL     1       7.355   5.778  15.136  0.00  0.00    +0.000 OA
ATOM     11  C   UNL     1       7.269   5.859  16.563  0.00  0.00    +0.000 C 
ATOM     12  C   UNL     1       5.803   5.890  17.040  0.00  0.00    +0.000 C 
ENDBRANCH   4   7
BRANCH   1  14
ATOM     13  O   UNL     1       2.196   4.568  21.800  0.00  0.00    +0.000 OA
ATOM     14  S   UNL     1       1.844   4.489  20.396  0.00  0.00    +0.000 S 
ATOM     15  O   UNL     1       0.593   3.899  19.973  0.00  0.00    +0.000 OA
BRANCH  14  16
ATOM     16  C   UNL     1       1.902   6.132  19.719  0.00  0.00    +0.000 A 
ATOM     17  C   UNL     1       1.596   7.215  20.553  0.00  0.00    +0.000 A 
ATOM     18  C   UNL     1       1.632   8.509  20.040  0.00  0.00    +0.000 A 
ATOM     19  C   UNL     1       1.981   8.716  18.703  0.00  0.00    +0.000 A 
ATOM     20 CL   UNL     1       2.005  10.316  18.069  0.00  0.00    +0.000 Cl
ATOM     21  C   UNL     1       2.313   7.639  17.879  0.00  0.00    +0.000 A 
ATOM     22  C   UNL     1       2.281   6.339  18.388  0.00  0.00    +0.000 A 
ENDBRANCH  14  16
ENDBRANCH   1  14
TORSDOF 3
ENDMDL
MODEL 7
REMARK VINA RESULT:      -6.7      1.672      2.263
REMARK  Name = 
REMARK  3 active torsions:
REMARK  status: ('A' for Active; 'I' for Inactive)
REMARK    1  A    between atoms: S_2  and  C_4
REMARK    2  A    between atoms: S_2  and  N_11
REMARK    3  A    between atoms: C_14  and  N_15
REMARK                            x       y       z     vdW  Elec       q    Type
REMARK                         _______ _______ _______ _____ _____    ______ ____
ROOT
ATOM      1  N   UNL     1       4.246   5.018  16.508  0.00  0.00    +0.000 NA
ATOM      2  C   UNL     1       4.527   3.680  17.109  0.00  0.00    +0.000 C 
ATOM      3  C   UNL     1       3.256   3.017  17.629  0.00  0.00    +0.000 C 
ATOM      4  C   UNL     1       2.516   3.879  18.670  0.00  0.00    +0.000 C 
ATOM      5  C   UNL     1       2.193   5.201  17.938  0.00  0.00    +0.000 C 
ATOM      6  C   UNL     1       3.445   5.902  17.412  0.00  0.00    +0.000 C 
ENDROOT
BRANCH   4   7
ATOM      7  N   UNL     1       3.231   4.147  19.940  0.00  0.00    +0.000 NA
ATOM      8  C   UNL     1       4.148   3.091  20.427  0.00  0.00    +0.000 C 
ATOM      9  C   UNL     1       3.458   1.895  21.103  0.00  0.00    +0.000 C 
ATOM     10  O   UNL     1       2.640   2.323  22.194  0.00  0.00    +0.000 OA
ATOM     11  C   UNL     1       1.657   3.259  21.741  0.00  0.00    +0.000 C 
ATOM     12  C   UNL     1       2.309   4.479  21.060  0.00  0.00    +0.000 C 
ENDBRANCH   4   7
BRANCH   1  14
ATOM     13  O   UNL     1       6.711   5.616  16.974  0.00  0.00    +0.000 OA
ATOM     14  S   UNL     1       5.683   5.836  15.976  0.00  0.00    +0.000 S 
ATOM     15  O   UNL     1       5.322   7.173  15.559  0.00  0.00    +0.000 OA
BRANCH  14  16
ATOM     16  C   UNL     1       6.134   4.935  14.511  0.00  0.00    +0.000 A 
ATOM     17  C   UNL     1       7.385   5.179  13.931  0.00  0.00    +0.000 A 
ATOM     18  C   UNL     1       7.755   4.486  12.780  0.00  0.00    +0.000 A 
ATOM     19  C   UNL     1       6.881   3.551  12.222  0.00  0.00    +0.000 A 
ATOM     20 CL   UNL     1       7.334   2.712  10.789  0.00  0.00    +0.000 Cl
ATOM     21  C   UNL     1       5.645   3.288  12.816  0.00  0.00    +0.000 A 
ATOM     22  C   UNL     1       5.269   3.977  13.971  0.00  0.00    +0.000 A 
ENDBRANCH  14  16
ENDBRANCH   1  14
TORSDOF 3
ENDMDL
MODEL 8
REMARK VINA RESULT:      -6.7      3.239      4.171
REMARK  Name = 
REMARK  3 active torsions:
REMARK  status: ('A' for Active; 'I' for Inactive)
REMARK    1  A    between atoms: S_2  and  C_4
REMARK    2  A    between atoms: S_2  and  N_11
REMARK    3  A    between atoms: C_14  and  N_15
REMARK                            x       y       z     vdW  Elec       q    Type
REMARK                         _______ _______ _______ _____ _____    ______ ____
ROOT
ATOM      1  N   UNL     1       3.632   4.852  18.954  0.00  0.00    +0.000 NA
ATOM      2  C   UNL     1       3.002   4.970  20.302  0.00  0.00    +0.000 C 
ATOM      3  C   UNL     1       1.538   5.388  20.206  0.00  0.00    +0.000 C 
ATOM      4  C   UNL     1       1.344   6.718  19.454  0.00  0.00    +0.000 C 
ATOM      5  C   UNL     1       1.947   6.477  18.052  0.00  0.00    +0.000 C 
ATOM      6  C   UNL     1       3.418   6.068  18.107  0.00  0.00    +0.000 C 
ENDROOT
BRANCH   4   7
ATOM      7  N   UNL     1       1.939   7.925  20.076  0.00  0.00    +0.000 NA
ATOM      8  C   UNL     1       1.445   8.295  21.422  0.00  0.00    +0.000 C 
ATOM      9  C   UNL     1       0.078   8.996  21.441  0.00  0.00    +0.000 C 
ATOM     10  O   UNL     1       0.090  10.170  20.625  0.00  0.00    +0.000 OA
ATOM     11  C   UNL     1       0.447   9.836  19.280  0.00  0.00    +0.000 C 
ATOM     12  C   UNL     1       1.819   9.134  19.216  0.00  0.00    +0.000 C 
ENDBRANCH   4   7
BRANCH   1  14
ATOM     13  O   UNL     1       5.434   3.096  19.518  0.00  0.00    +0.000 OA
ATOM     14  S   UNL     1       5.321   4.456  19.030  0.00  0.00    +0.000 S 
ATOM     15  O   UNL     1       6.019   5.543  19.681  0.00  0.00    +0.000 OA
BRANCH  14  16
ATOM     16  C   UNL     1       5.810   4.471  17.321  0.00  0.00    +0.000 A 
ATOM     17  C   UNL     1       7.023   5.078  16.973  0.00  0.00    +0.000 A 
ATOM     18  C   UNL     1       7.421   5.103  15.639  0.00  0.00    +0.000 A 
ATOM     19  C   UNL     1       6.613   4.516  14.662  0.00  0.00    +0.000 A 
ATOM     20 CL   UNL     1       7.099   4.567  13.012  0.00  0.00    +0.000 Cl
ATOM     21  C   UNL     1       5.417   3.886  15.012  0.00  0.00    +0.000 A 
ATOM     22  C   UNL     1       5.013   3.855  16.348  0.00  0.00    +0.000 A 
ENDBRANCH  14  16
ENDBRANCH   1  14
TORSDOF 3
ENDMDL
MODEL 9
REMARK VINA RESULT:      -6.7      3.189      6.374
REMARK  Name = 
REMARK  3 active torsions:
REMARK  status: ('A' for Active; 'I' for Inactive)
REMARK    1  A    between atoms: S_2  and  C_4
REMARK    2  A    between atoms: S_2  and  N_11
REMARK    3  A    between atoms: C_14  and  N_15
REMARK                            x       y       z     vdW  Elec       q    Type
REMARK                         _______ _______ _______ _____ _____    ______ ____
ROOT
ATOM      1  N   UNL     1       3.153   3.619  19.561  0.00  0.00    +0.000 NA
ATOM      2  C   UNL     1       2.765   3.175  18.190  0.00  0.00    +0.000 C 
ATOM      3  C   UNL     1       3.939   2.540  17.450  0.00  0.00    +0.000 C 
ATOM      4  C   UNL     1       5.154   3.481  17.338  0.00  0.00    +0.000 C 
ATOM      5  C   UNL     1       5.534   3.819  18.797  0.00  0.00    +0.000 C 
ATOM      6  C   UNL     1       4.386   4.468  19.568  0.00  0.00    +0.000 C 
ENDROOT
BRANCH   4   7
ATOM      7  N   UNL     1       4.963   4.721  16.549  0.00  0.00    +0.000 NA
ATOM      8  C   UNL     1       5.215   4.632  15.093  0.00  0.00    +0.000 C 
ATOM      9  C   UNL     1       6.697   4.640  14.689  0.00  0.00    +0.000 C 
ATOM     10  O   UNL     1       7.361   5.802  15.193  0.00  0.00    +0.000 OA
ATOM     11  C   UNL     1       7.244   5.862  16.618  0.00  0.00    +0.000 C 
ATOM     12  C   UNL     1       5.768   5.862  17.065  0.00  0.00    +0.000 C 
ENDBRANCH   4   7
BRANCH   1  14
ATOM     13  O   UNL     1       2.221   4.481  21.806  0.00  0.00    +0.000 OA
ATOM     14  S   UNL     1       1.861   4.418  20.404  0.00  0.00    +0.000 S 
ATOM     15  O   UNL     1       0.607   3.834  19.980  0.00  0.00    +0.000 OA
BRANCH  14  16
ATOM     16  C   UNL     1       1.917   6.068  19.744  0.00  0.00    +0.000 A 
ATOM     17  C   UNL     1       2.225   6.241  18.389  0.00  0.00    +0.000 A 
ATOM     18  C   UNL     1       2.278   7.526  17.855  0.00  0.00    +0.000 A 
ATOM     19  C   UNL     1       2.016   8.629  18.672  0.00  0.00    +0.000 A 
ATOM     20 CL   UNL     1       2.102  10.216  18.013  0.00  0.00    +0.000 Cl
ATOM     21  C   UNL     1       1.682   8.455  20.017  0.00  0.00    +0.000 A 
ATOM     22  C   UNL     1       1.625   7.168  20.558  0.00  0.00    +0.000 A 
ENDBRANCH  14  16
ENDBRANCH   1  14
TORSDOF 3
ENDMDL
