MODEL 1
REMARK VINA RESULT:      -8.0      0.000      0.000
REMARK  Name = 
REMARK  7 active torsions:
REMARK  status: ('A' for Active; 'I' for Inactive)
REMARK    1  A    between atoms: C_1  and  N_2
REMARK    2  A    between atoms: N_2  and  C_3
REMARK    3  A    between atoms: C_5  and  C_6
REMARK    4  A    between atoms: C_13  and  S_14
REMARK    5  A    between atoms: S_14  and  C_17
REMARK    6  A    between atoms: C_20  and  C_21
REMARK    7  A    between atoms: C_21  and  N_22
REMARK                            x       y       z     vdW  Elec       q    Type
REMARK                         _______ _______ _______ _____ _____    ______ ____
ROOT
ATOM      1  C   UNL     1       3.827   3.941  18.891  0.00  0.00    +0.000 A 
ATOM      2  C   UNL     1       3.033   5.085  19.092  0.00  0.00    +0.000 A 
ATOM      3  C   UNL     1       3.422   6.346  18.576  0.00  0.00    +0.000 A 
ATOM      4  C   UNL     1       4.638   6.423  17.860  0.00  0.00    +0.000 A 
ATOM      5  C   UNL     1       5.424   5.289  17.664  0.00  0.00    +0.000 A 
ATOM      6  C   UNL     1       5.020   4.064  18.170  0.00  0.00    +0.000 A 
ENDROOT
BRANCH   3   7
ATOM      7  C   UNL     1       2.543   7.550  18.736  0.00  0.00    +0.000 A 
ATOM      8  C   UNL     1       2.334   8.469  17.682  0.00  0.00    +0.000 A 
ATOM      9  C   UNL     1       1.534   9.602  17.867  0.00  0.00    +0.000 A 
ATOM     10  C   UNL     1       0.938   9.847  19.105  0.00  0.00    +0.000 A 
ATOM     11  C   UNL     1       1.131   8.953  20.156  0.00  0.00    +0.000 A 
ATOM     12  C   UNL     1       1.918   7.815  19.976  0.00  0.00    +0.000 A 
ENDBRANCH   3   7
BRANCH   1  14
ATOM     13  C   UNL     1       3.499   1.434  18.637  0.00  0.00    +0.000 C 
ATOM     14  N   UNL     1       3.384   2.675  19.375  0.00  0.00    +0.000 N 
ATOM     15  H   UNL     1       2.981   2.622  20.323  0.00  0.00    +0.000 HD
ENDBRANCH   1  14
BRANCH   5  16
ATOM     16  S   UNL     1       6.890   5.337  16.651  0.00  0.00    +0.000 S 
ATOM     17  O   UNL     1       7.462   6.762  16.595  0.00  0.00    +0.000 OA
ATOM     18  O   UNL     1       8.029   4.603  17.374  0.00  0.00    +0.000 OA
BRANCH  16  19
ATOM     19  C   UNL     1       6.722   4.666  15.012  0.00  0.00    +0.000 A 
ATOM     20  C   UNL     1       7.506   5.000  13.916  0.00  0.00    +0.000 A 
ATOM     21  N   UNL     1       7.096   4.445  12.749  0.00  0.00    +0.000 NA
ATOM     22  C   UNL     1       5.987   3.684  12.911  0.00  0.00    +0.000 A 
ATOM     23  S   UNL     1       5.473   3.661  14.515  0.00  0.00    +0.000 S 
BRANCH  22  24
ATOM     24  C   UNL     1       5.295   2.992  11.782  0.00  0.00    +0.000 C 
BRANCH  24  25
ATOM     25  N   UNL     1       5.925   1.700  11.528  0.00  0.00    +0.000 NA
ATOM     26  H   UNL     1       5.289   0.939  11.867  0.00  0.00    +0.000 HD
ATOM     27  H   UNL     1       6.810   1.648  12.079  0.00  0.00    +0.000 HD
ENDBRANCH  24  25
ENDBRANCH  22  24
ENDBRANCH  16  19
ENDBRANCH   5  16
TORSDOF 6
ENDMDL
MODEL 2
REMARK VINA RESULT:      -7.9      0.486      1.100
REMARK  Name = 
REMARK  7 active torsions:
REMARK  status: ('A' for Active; 'I' for Inactive)
REMARK    1  A    between atoms: C_1  and  N_2
REMARK    2  A    between atoms: N_2  and  C_3
REMARK    3  A    between atoms: C_5  and  C_6
REMARK    4  A    between atoms: C_13  and  S_14
REMARK    5  A    between atoms: S_14  and  C_17
REMARK    6  A    between atoms: C_20  and  C_21
REMARK    7  A    between atoms: C_21  and  N_22
REMARK                            x       y       z     vdW  Elec       q    Type
REMARK                         _______ _______ _______ _____ _____    ______ ____
ROOT
ATOM      1  C   UNL     1       3.596   3.867  18.683  0.00  0.00    +0.000 A 
ATOM      2  C   UNL     1       2.857   5.030  18.962  0.00  0.00    +0.000 A 
ATOM      3  C   UNL     1       3.322   6.307  18.563  0.00  0.00    +0.000 A 
ATOM      4  C   UNL     1       4.558   6.379  17.881  0.00  0.00    +0.000 A 
ATOM      5  C   UNL     1       5.289   5.224  17.606  0.00  0.00    +0.000 A 
ATOM      6  C   UNL     1       4.811   3.985  17.999  0.00  0.00    +0.000 A 
ENDROOT
BRANCH   3   7
ATOM      7  C   UNL     1       2.502   7.539  18.805  0.00  0.00    +0.000 A 
ATOM      8  C   UNL     1       1.867   7.782  20.045  0.00  0.00    +0.000 A 
ATOM      9  C   UNL     1       1.080   8.924  20.236  0.00  0.00    +0.000 A 
ATOM     10  C   UNL     1       0.903   9.836  19.194  0.00  0.00    +0.000 A 
ATOM     11  C   UNL     1       1.521   9.615  17.966  0.00  0.00    +0.000 A 
ATOM     12  C   UNL     1       2.317   8.485  17.772  0.00  0.00    +0.000 A 
ENDBRANCH   3   7
BRANCH   1  14
ATOM     13  C   UNL     1       2.052   2.383  20.053  0.00  0.00    +0.000 C 
ATOM     14  N   UNL     1       3.076   2.590  19.049  0.00  0.00    +0.000 N 
ATOM     15  H   UNL     1       3.422   1.755  18.552  0.00  0.00    +0.000 HD
ENDBRANCH   1  14
BRANCH   5  16
ATOM     16  S   UNL     1       6.781   5.279  16.631  0.00  0.00    +0.000 S 
ATOM     17  O   UNL     1       7.349   6.706  16.589  0.00  0.00    +0.000 OA
ATOM     18  O   UNL     1       7.904   4.549  17.383  0.00  0.00    +0.000 OA
BRANCH  16  19
ATOM     19  C   UNL     1       6.658   4.607  14.988  0.00  0.00    +0.000 A 
ATOM     20  C   UNL     1       7.511   4.892  13.930  0.00  0.00    +0.000 A 
ATOM     21  N   UNL     1       7.129   4.352  12.747  0.00  0.00    +0.000 NA
ATOM     22  C   UNL     1       5.975   3.652  12.857  0.00  0.00    +0.000 A 
ATOM     23  S   UNL     1       5.383   3.665  14.434  0.00  0.00    +0.000 S 
BRANCH  22  24
ATOM     24  C   UNL     1       5.304   2.989  11.699  0.00  0.00    +0.000 C 
BRANCH  24  25
ATOM     25  N   UNL     1       5.830   1.640  11.522  0.00  0.00    +0.000 NA
ATOM     26  H   UNL     1       6.865   1.655  11.682  0.00  0.00    +0.000 HD
ATOM     27  H   UNL     1       5.663   1.345  10.534  0.00  0.00    +0.000 HD
ENDBRANCH  24  25
ENDBRANCH  22  24
ENDBRANCH  16  19
ENDBRANCH   5  16
TORSDOF 6
ENDMDL
MODEL 3
REMARK VINA RESULT:      -7.7      1.983      3.787
REMARK  Name = 
REMARK  7 active torsions:
REMARK  status: ('A' for Active; 'I' for Inactive)
REMARK    1  A    between atoms: C_1  and  N_2
REMARK    2  A    between atoms: N_2  and  C_3
REMARK    3  A    between atoms: C_5  and  C_6
REMARK    4  A    between atoms: C_13  and  S_14
REMARK    5  A    between atoms: S_14  and  C_17
REMARK    6  A    between atoms: C_20  and  C_21
REMARK    7  A    between atoms: C_21  and  N_22
REMARK                            x       y       z     vdW  Elec       q    Type
REMARK                         _______ _______ _______ _____ _____    ______ ____
ROOT
ATOM      1  C   UNL     1       3.317   7.572  17.735  0.00  0.00    +0.000 A 
ATOM      2  C   UNL     1       2.647   6.617  18.520  0.00  0.00    +0.000 A 
ATOM      3  C   UNL     1       3.177   5.316  18.702  0.00  0.00    +0.000 A 
ATOM      4  C   UNL     1       4.398   5.003  18.063  0.00  0.00    +0.000 A 
ATOM      5  C   UNL     1       5.060   5.951  17.284  0.00  0.00    +0.000 A 
ATOM      6  C   UNL     1       4.526   7.220  17.127  0.00  0.00    +0.000 A 
ENDROOT
BRANCH   3   7
ATOM      7  C   UNL     1       2.494   4.320  19.591  0.00  0.00    +0.000 A 
ATOM      8  C   UNL     1       1.507   3.433  19.100  0.00  0.00    +0.000 A 
ATOM      9  C   UNL     1       0.862   2.535  19.957  0.00  0.00    +0.000 A 
ATOM     10  C   UNL     1       1.177   2.511  21.317  0.00  0.00    +0.000 A 
ATOM     11  C   UNL     1       2.146   3.376  21.819  0.00  0.00    +0.000 A 
ATOM     12  C   UNL     1       2.803   4.267  20.969  0.00  0.00    +0.000 A 
ENDBRANCH   3   7
BRANCH   1  14
ATOM     13  C   UNL     1       1.461   9.280  18.052  0.00  0.00    +0.000 C 
ATOM     14  N   UNL     1       2.786   8.891  17.615  0.00  0.00    +0.000 N 
ATOM     15  H   UNL     1       3.387   9.631  17.222  0.00  0.00    +0.000 HD
ENDBRANCH   1  14
BRANCH   5  16
ATOM     16  S   UNL     1       6.665   5.621  16.581  0.00  0.00    +0.000 S 
ATOM     17  O   UNL     1       7.513   6.901  16.543  0.00  0.00    +0.000 OA
ATOM     18  O   UNL     1       7.482   4.769  17.565  0.00  0.00    +0.000 OA
BRANCH  16  19
ATOM     19  C   UNL     1       6.665   4.821  14.992  0.00  0.00    +0.000 A 
ATOM     20  C   UNL     1       7.460   5.173  13.909  0.00  0.00    +0.000 A 
ATOM     21  N   UNL     1       7.181   4.493  12.771  0.00  0.00    +0.000 NA
ATOM     22  C   UNL     1       6.164   3.614  12.941  0.00  0.00    +0.000 A 
ATOM     23  S   UNL     1       5.573   3.638  14.518  0.00  0.00    +0.000 S 
BRANCH  22  24
ATOM     24  C   UNL     1       5.621   2.764  11.838  0.00  0.00    +0.000 C 
BRANCH  24  25
ATOM     25  N   UNL     1       6.584   1.726  11.487  0.00  0.00    +0.000 NA
ATOM     26  H   UNL     1       6.220   0.800  11.815  0.00  0.00    +0.000 HD
ATOM     27  H   UNL     1       7.477   1.917  11.992  0.00  0.00    +0.000 HD
ENDBRANCH  24  25
ENDBRANCH  22  24
ENDBRANCH  16  19
ENDBRANCH   5  16
TORSDOF 6
ENDMDL
MODEL 4
REMARK VINA RESULT:      -7.6      1.089      1.112
REMARK  Name = 
REMARK  7 active torsions:
REMARK  status: ('A' for Active; 'I' for Inactive)
REMARK    1  A    between atoms: C_1  and  N_2
REMARK    2  A    between atoms: N_2  and  C_3
REMARK    3  A    between atoms: C_5  and  C_6
REMARK    4  A    between atoms: C_13  and  S_14
REMARK    5  A    between atoms: S_14  and  C_17
REMARK    6  A    between atoms: C_20  and  C_21
REMARK    7  A    between atoms: C_21  and  N_22
REMARK                            x       y       z     vdW  Elec       q    Type
REMARK                         _______ _______ _______ _____ _____    ______ ____
ROOT
ATOM      1  C   UNL     1       3.386   4.030  19.730  0.00  0.00    +0.000 A 
ATOM      2  C   UNL     1       2.581   5.183  19.765  0.00  0.00    +0.000 A 
ATOM      3  C   UNL     1       3.034   6.408  19.216  0.00  0.00    +0.000 A 
ATOM      4  C   UNL     1       4.324   6.441  18.640  0.00  0.00    +0.000 A 
ATOM      5  C   UNL     1       5.121   5.297  18.609  0.00  0.00    +0.000 A 
ATOM      6  C   UNL     1       4.654   4.107  19.144  0.00  0.00    +0.000 A 
ENDROOT
BRANCH   3   7
ATOM      7  C   UNL     1       2.150   7.620  19.197  0.00  0.00    +0.000 A 
ATOM      8  C   UNL     1       1.944   8.376  18.020  0.00  0.00    +0.000 A 
ATOM      9  C   UNL     1       1.139   9.520  18.035  0.00  0.00    +0.000 A 
ATOM     10  C   UNL     1       0.535   9.938  19.223  0.00  0.00    +0.000 A 
ATOM     11  C   UNL     1       0.725   9.206  20.392  0.00  0.00    +0.000 A 
ATOM     12  C   UNL     1       1.517   8.057  20.382  0.00  0.00    +0.000 A 
ENDBRANCH   3   7
BRANCH   1  14
ATOM     13  C   UNL     1       1.557   2.626  20.801  0.00  0.00    +0.000 C 
ATOM     14  N   UNL     1       2.883   2.797  20.241  0.00  0.00    +0.000 N 
ATOM     15  H   UNL     1       3.481   1.958  20.185  0.00  0.00    +0.000 HD
ENDBRANCH   1  14
BRANCH   5  16
ATOM     16  S   UNL     1       6.693   5.282  17.768  0.00  0.00    +0.000 S 
ATOM     17  O   UNL     1       7.422   6.621  17.960  0.00  0.00    +0.000 OA
ATOM     18  O   UNL     1       7.650   4.331  18.504  0.00  0.00    +0.000 OA
BRANCH  16  19
ATOM     19  C   UNL     1       6.647   4.834  16.047  0.00  0.00    +0.000 A 
ATOM     20  C   UNL     1       7.409   5.413  15.040  0.00  0.00    +0.000 A 
ATOM     21  N   UNL     1       7.097   4.984  13.792  0.00  0.00    +0.000 NA
ATOM     22  C   UNL     1       6.088   4.080  13.803  0.00  0.00    +0.000 A 
ATOM     23  S   UNL     1       5.545   3.767  15.366  0.00  0.00    +0.000 S 
BRANCH  22  24
ATOM     24  C   UNL     1       5.514   3.477  12.562  0.00  0.00    +0.000 C 
BRANCH  24  25
ATOM     25  N   UNL     1       6.357   2.376  12.106  0.00  0.00    +0.000 NA
ATOM     26  H   UNL     1       5.907   1.925  11.275  0.00  0.00    +0.000 HD
ATOM     27  H   UNL     1       6.412   1.664  12.867  0.00  0.00    +0.000 HD
ENDBRANCH  24  25
ENDBRANCH  22  24
ENDBRANCH  16  19
ENDBRANCH   5  16
TORSDOF 6
ENDMDL
MODEL 5
REMARK VINA RESULT:      -7.6      1.964      3.900
REMARK  Name = 
REMARK  7 active torsions:
REMARK  status: ('A' for Active; 'I' for Inactive)
REMARK    1  A    between atoms: C_1  and  N_2
REMARK    2  A    between atoms: N_2  and  C_3
REMARK    3  A    between atoms: C_5  and  C_6
REMARK    4  A    between atoms: C_13  and  S_14
REMARK    5  A    between atoms: S_14  and  C_17
REMARK    6  A    between atoms: C_20  and  C_21
REMARK    7  A    between atoms: C_21  and  N_22
REMARK                            x       y       z     vdW  Elec       q    Type
REMARK                         _______ _______ _______ _____ _____    ______ ____
ROOT
ATOM      1  C   UNL     1       3.428   7.585  17.699  0.00  0.00    +0.000 A 
ATOM      2  C   UNL     1       2.755   6.629  18.481  0.00  0.00    +0.000 A 
ATOM      3  C   UNL     1       3.273   5.320  18.644  0.00  0.00    +0.000 A 
ATOM      4  C   UNL     1       4.485   5.001  17.992  0.00  0.00    +0.000 A 
ATOM      5  C   UNL     1       5.150   5.950  17.217  0.00  0.00    +0.000 A 
ATOM      6  C   UNL     1       4.629   7.226  17.078  0.00  0.00    +0.000 A 
ENDROOT
BRANCH   3   7
ATOM      7  C   UNL     1       2.586   4.323  19.529  0.00  0.00    +0.000 A 
ATOM      8  C   UNL     1       2.624   4.423  20.939  0.00  0.00    +0.000 A 
ATOM      9  C   UNL     1       2.002   3.462  21.743  0.00  0.00    +0.000 A 
ATOM     10  C   UNL     1       1.343   2.379  21.159  0.00  0.00    +0.000 A 
ATOM     11  C   UNL     1       1.294   2.262  19.772  0.00  0.00    +0.000 A 
ATOM     12  C   UNL     1       1.901   3.223  18.963  0.00  0.00    +0.000 A 
ENDBRANCH   3   7
BRANCH   1  14
ATOM     13  C   UNL     1       1.518   9.260  17.789  0.00  0.00    +0.000 C 
ATOM     14  N   UNL     1       2.911   8.910  17.597  0.00  0.00    +0.000 N 
ATOM     15  H   UNL     1       3.567   9.683  17.405  0.00  0.00    +0.000 HD
ENDBRANCH   1  14
BRANCH   5  16
ATOM     16  S   UNL     1       6.746   5.610  16.497  0.00  0.00    +0.000 S 
ATOM     17  O   UNL     1       7.598   6.886  16.443  0.00  0.00    +0.000 OA
ATOM     18  O   UNL     1       7.570   4.759  17.475  0.00  0.00    +0.000 OA
BRANCH  16  19
ATOM     19  C   UNL     1       6.723   4.804  14.911  0.00  0.00    +0.000 A 
ATOM     20  C   UNL     1       7.535   5.122  13.830  0.00  0.00    +0.000 A 
ATOM     21  N   UNL     1       7.237   4.447  12.693  0.00  0.00    +0.000 NA
ATOM     22  C   UNL     1       6.188   3.606  12.863  0.00  0.00    +0.000 A 
ATOM     23  S   UNL     1       5.592   3.658  14.437  0.00  0.00    +0.000 S 
BRANCH  22  24
ATOM     24  C   UNL     1       5.619   2.772  11.761  0.00  0.00    +0.000 C 
BRANCH  24  25
ATOM     25  N   UNL     1       4.268   3.220  11.443  0.00  0.00    +0.000 NA
ATOM     26  H   UNL     1       3.756   2.443  10.962  0.00  0.00    +0.000 HD
ATOM     27  H   UNL     1       4.332   4.022  10.777  0.00  0.00    +0.000 HD
ENDBRANCH  24  25
ENDBRANCH  22  24
ENDBRANCH  16  19
ENDBRANCH   5  16
TORSDOF 6
ENDMDL
MODEL 6
REMARK VINA RESULT:      -7.3      1.268      1.695
REMARK  Name = 
REMARK  7 active torsions:
REMARK  status: ('A' for Active; 'I' for Inactive)
REMARK    1  A    between atoms: C_1  and  N_2
REMARK    2  A    between atoms: N_2  and  C_3
REMARK    3  A    between atoms: C_5  and  C_6
REMARK    4  A    between atoms: C_13  and  S_14
REMARK    5  A    between atoms: S_14  and  C_17
REMARK    6  A    between atoms: C_20  and  C_21
REMARK    7  A    between atoms: C_21  and  N_22
REMARK                            x       y       z     vdW  Elec       q    Type
REMARK                         _______ _______ _______ _____ _____    ______ ____
ROOT
ATOM      1  C   UNL     1       3.336   4.238  19.880  0.00  0.00    +0.000 A 
ATOM      2  C   UNL     1       2.551   5.403  19.931  0.00  0.00    +0.000 A 
ATOM      3  C   UNL     1       2.956   6.588  19.268  0.00  0.00    +0.000 A 
ATOM      4  C   UNL     1       4.178   6.567  18.559  0.00  0.00    +0.000 A 
ATOM      5  C   UNL     1       4.955   5.411  18.511  0.00  0.00    +0.000 A 
ATOM      6  C   UNL     1       4.536   4.261  19.160  0.00  0.00    +0.000 A 
ENDROOT
BRANCH   3   7
ATOM      7  C   UNL     1       2.086   7.810  19.271  0.00  0.00    +0.000 A 
ATOM      8  C   UNL     1       1.408   8.243  20.434  0.00  0.00    +0.000 A 
ATOM      9  C   UNL     1       0.577   9.368  20.403  0.00  0.00    +0.000 A 
ATOM     10  C   UNL     1       0.397  10.075  19.212  0.00  0.00    +0.000 A 
ATOM     11  C   UNL     1       1.056   9.665  18.056  0.00  0.00    +0.000 A 
ATOM     12  C   UNL     1       1.896   8.550  18.082  0.00  0.00    +0.000 A 
ENDBRANCH   3   7
BRANCH   1  14
ATOM     13  C   UNL     1       1.561   2.471  20.315  0.00  0.00    +0.000 C 
ATOM     14  N   UNL     1       2.877   3.044  20.511  0.00  0.00    +0.000 N 
ATOM     15  H   UNL     1       3.526   2.529  21.126  0.00  0.00    +0.000 HD
ENDBRANCH   1  14
BRANCH   5  16
ATOM     16  S   UNL     1       6.430   5.323  17.513  0.00  0.00    +0.000 S 
ATOM     17  O   UNL     1       7.201   6.651  17.568  0.00  0.00    +0.000 OA
ATOM     18  O   UNL     1       7.440   4.381  18.185  0.00  0.00    +0.000 OA
BRANCH  16  19
ATOM     19  C   UNL     1       6.195   4.806  15.827  0.00  0.00    +0.000 A 
ATOM     20  C   UNL     1       5.067   4.170  15.325  0.00  0.00    +0.000 A 
ATOM     21  N   UNL     1       5.184   3.764  14.038  0.00  0.00    +0.000 NA
ATOM     22  C   UNL     1       6.400   4.062  13.520  0.00  0.00    +0.000 A 
ATOM     23  S   UNL     1       7.379   4.853  14.639  0.00  0.00    +0.000 S 
BRANCH  22  24
ATOM     24  C   UNL     1       6.816   3.689  12.134  0.00  0.00    +0.000 C 
BRANCH  24  25
ATOM     25  N   UNL     1       6.350   2.342  11.819  0.00  0.00    +0.000 NA
ATOM     26  H   UNL     1       5.878   2.355  10.884  0.00  0.00    +0.000 HD
ATOM     27  H   UNL     1       5.641   2.061  12.532  0.00  0.00    +0.000 HD
ENDBRANCH  24  25
ENDBRANCH  22  24
ENDBRANCH  16  19
ENDBRANCH   5  16
TORSDOF 6
ENDMDL
MODEL 7
REMARK VINA RESULT:      -7.2      3.442      7.344
REMARK  Name = 
REMARK  7 active torsions:
REMARK  status: ('A' for Active; 'I' for Inactive)
REMARK    1  A    between atoms: C_1  and  N_2
REMARK    2  A    between atoms: N_2  and  C_3
REMARK    3  A    between atoms: C_5  and  C_6
REMARK    4  A    between atoms: C_13  and  S_14
REMARK    5  A    between atoms: S_14  and  C_17
REMARK    6  A    between atoms: C_20  and  C_21
REMARK    7  A    between atoms: C_21  and  N_22
REMARK                            x       y       z     vdW  Elec       q    Type
REMARK                         _______ _______ _______ _____ _____    ______ ____
ROOT
ATOM      1  C   UNL     1       7.054   4.813  18.130  0.00  0.00    +0.000 A 
ATOM      2  C   UNL     1       7.281   4.621  16.755  0.00  0.00    +0.000 A 
ATOM      3  C   UNL     1       6.202   4.458  15.851  0.00  0.00    +0.000 A 
ATOM      4  C   UNL     1       4.890   4.486  16.372  0.00  0.00    +0.000 A 
ATOM      5  C   UNL     1       4.667   4.675  17.735  0.00  0.00    +0.000 A 
ATOM      6  C   UNL     1       5.737   4.840  18.600  0.00  0.00    +0.000 A 
ENDROOT
BRANCH   3   7
ATOM      7  C   UNL     1       6.445   4.317  14.377  0.00  0.00    +0.000 A 
ATOM      8  C   UNL     1       7.452   5.054  13.712  0.00  0.00    +0.000 A 
ATOM      9  C   UNL     1       7.637   4.928  12.330  0.00  0.00    +0.000 A 
ATOM     10  C   UNL     1       6.817   4.078  11.586  0.00  0.00    +0.000 A 
ATOM     11  C   UNL     1       5.820   3.344  12.224  0.00  0.00    +0.000 A 
ATOM     12  C   UNL     1       5.636   3.454  13.603  0.00  0.00    +0.000 A 
ENDBRANCH   3   7
BRANCH   1  14
ATOM     13  C   UNL     1       8.042   5.597  20.336  0.00  0.00    +0.000 C 
ATOM     14  N   UNL     1       8.156   5.028  19.009  0.00  0.00    +0.000 N 
ATOM     15  H   UNL     1       9.097   4.736  18.702  0.00  0.00    +0.000 HD
ENDBRANCH   1  14
BRANCH   5  16
ATOM     16  S   UNL     1       3.019   4.847  18.393  0.00  0.00    +0.000 S 
ATOM     17  O   UNL     1       1.987   4.226  17.439  0.00  0.00    +0.000 OA
ATOM     18  O   UNL     1       2.863   3.929  19.615  0.00  0.00    +0.000 OA
BRANCH  16  19
ATOM     19  C   UNL     1       2.535   6.497  18.849  0.00  0.00    +0.000 A 
ATOM     20  C   UNL     1       2.054   6.886  20.092  0.00  0.00    +0.000 A 
ATOM     21  N   UNL     1       1.635   8.174  20.149  0.00  0.00    +0.000 NA
ATOM     22  C   UNL     1       1.769   8.804  18.957  0.00  0.00    +0.000 A 
ATOM     23  S   UNL     1       2.425   7.790  17.783  0.00  0.00    +0.000 S 
BRANCH  22  24
ATOM     24  C   UNL     1       1.343  10.217  18.724  0.00  0.00    +0.000 C 
BRANCH  24  25
ATOM     25  N   UNL     1       2.054  10.770  17.575  0.00  0.00    +0.000 NA
ATOM     26  H   UNL     1       3.085  10.723  17.759  0.00  0.00    +0.000 HD
ATOM     27  H   UNL     1       1.791  11.775  17.475  0.00  0.00    +0.000 HD
ENDBRANCH  24  25
ENDBRANCH  22  24
ENDBRANCH  16  19
ENDBRANCH   5  16
TORSDOF 6
ENDMDL
MODEL 8
REMARK VINA RESULT:      -7.2      1.909      2.670
REMARK  Name = 
REMARK  7 active torsions:
REMARK  status: ('A' for Active; 'I' for Inactive)
REMARK    1  A    between atoms: C_1  and  N_2
REMARK    2  A    between atoms: N_2  and  C_3
REMARK    3  A    between atoms: C_5  and  C_6
REMARK    4  A    between atoms: C_13  and  S_14
REMARK    5  A    between atoms: S_14  and  C_17
REMARK    6  A    between atoms: C_20  and  C_21
REMARK    7  A    between atoms: C_21  and  N_22
REMARK                            x       y       z     vdW  Elec       q    Type
REMARK                         _______ _______ _______ _____ _____    ______ ____
ROOT
ATOM      1  C   UNL     1       1.782   4.544  20.435  0.00  0.00    +0.000 A 
ATOM      2  C   UNL     1       1.313   5.865  20.330  0.00  0.00    +0.000 A 
ATOM      3  C   UNL     1       2.138   6.896  19.815  0.00  0.00    +0.000 A 
ATOM      4  C   UNL     1       3.450   6.558  19.415  0.00  0.00    +0.000 A 
ATOM      5  C   UNL     1       3.913   5.247  19.522  0.00  0.00    +0.000 A 
ATOM      6  C   UNL     1       3.086   4.254  20.022  0.00  0.00    +0.000 A 
ENDROOT
BRANCH   3   7
ATOM      7  C   UNL     1       1.614   8.291  19.644  0.00  0.00    +0.000 A 
ATOM      8  C   UNL     1       0.936   8.968  20.684  0.00  0.00    +0.000 A 
ATOM      9  C   UNL     1       0.430  10.258  20.489  0.00  0.00    +0.000 A 
ATOM     10  C   UNL     1       0.579  10.891  19.254  0.00  0.00    +0.000 A 
ATOM     11  C   UNL     1       1.244  10.242  18.217  0.00  0.00    +0.000 A 
ATOM     12  C   UNL     1       1.763   8.960  18.408  0.00  0.00    +0.000 A 
ENDBRANCH   3   7
BRANCH   1  14
ATOM     13  C   UNL     1       1.318   2.447  21.795  0.00  0.00    +0.000 C 
ATOM     14  N   UNL     1       0.911   3.517  20.907  0.00  0.00    +0.000 N 
ATOM     15  H   UNL     1      -0.082   3.545  20.629  0.00  0.00    +0.000 HD
ENDBRANCH   1  14
BRANCH   5  16
ATOM     16  S   UNL     1       5.516   4.774  18.901  0.00  0.00    +0.000 S 
ATOM     17  O   UNL     1       6.632   5.385  19.762  0.00  0.00    +0.000 OA
ATOM     18  O   UNL     1       5.739   3.277  19.167  0.00  0.00    +0.000 OA
BRANCH  16  19
ATOM     19  C   UNL     1       5.806   5.101  17.176  0.00  0.00    +0.000 A 
ATOM     20  C   UNL     1       5.288   6.169  16.457  0.00  0.00    +0.000 A 
ATOM     21  N   UNL     1       5.552   6.125  15.128  0.00  0.00    +0.000 NA
ATOM     22  C   UNL     1       6.264   5.024  14.788  0.00  0.00    +0.000 A 
ATOM     23  S   UNL     1       6.605   4.062  16.128  0.00  0.00    +0.000 S 
BRANCH  22  24
ATOM     24  C   UNL     1       6.654   4.701  13.383  0.00  0.00    +0.000 C 
BRANCH  24  25
ATOM     25  N   UNL     1       6.322   3.313  13.079  0.00  0.00    +0.000 NA
ATOM     26  H   UNL     1       5.307   3.254  12.826  0.00  0.00    +0.000 HD
ATOM     27  H   UNL     1       6.472   2.740  13.938  0.00  0.00    +0.000 HD
ENDBRANCH  24  25
ENDBRANCH  22  24
ENDBRANCH  16  19
ENDBRANCH   5  16
TORSDOF 6
ENDMDL
MODEL 9
REMARK VINA RESULT:      -7.2      3.522      7.628
REMARK  Name = 
REMARK  7 active torsions:
REMARK  status: ('A' for Active; 'I' for Inactive)
REMARK    1  A    between atoms: C_1  and  N_2
REMARK    2  A    between atoms: N_2  and  C_3
REMARK    3  A    between atoms: C_5  and  C_6
REMARK    4  A    between atoms: C_13  and  S_14
REMARK    5  A    between atoms: S_14  and  C_17
REMARK    6  A    between atoms: C_20  and  C_21
REMARK    7  A    between atoms: C_21  and  N_22
REMARK                            x       y       z     vdW  Elec       q    Type
REMARK                         _______ _______ _______ _____ _____    ______ ____
ROOT
ATOM      1  C   UNL     1       6.795   4.886  18.172  0.00  0.00    +0.000 A 
ATOM      2  C   UNL     1       7.067   4.703  16.804  0.00  0.00    +0.000 A 
ATOM      3  C   UNL     1       6.027   4.436  15.880  0.00  0.00    +0.000 A 
ATOM      4  C   UNL     1       4.706   4.350  16.375  0.00  0.00    +0.000 A 
ATOM      5  C   UNL     1       4.439   4.530  17.732  0.00  0.00    +0.000 A 
ATOM      6  C   UNL     1       5.472   4.799  18.616  0.00  0.00    +0.000 A 
ENDROOT
BRANCH   3   7
ATOM      7  C   UNL     1       6.312   4.304  14.413  0.00  0.00    +0.000 A 
ATOM      8  C   UNL     1       5.551   3.454  13.577  0.00  0.00    +0.000 A 
ATOM      9  C   UNL     1       5.857   3.326  12.218  0.00  0.00    +0.000 A 
ATOM     10  C   UNL     1       6.931   4.030  11.670  0.00  0.00    +0.000 A 
ATOM     11  C   UNL     1       7.692   4.873  12.477  0.00  0.00    +0.000 A 
ATOM     12  C   UNL     1       7.385   5.016  13.831  0.00  0.00    +0.000 A 
ENDBRANCH   3   7
BRANCH   1  14
ATOM     13  C   UNL     1       8.341   6.552  19.311  0.00  0.00    +0.000 C 
ATOM     14  N   UNL     1       7.856   5.208  19.070  0.00  0.00    +0.000 N 
ATOM     15  H   UNL     1       8.292   4.447  19.612  0.00  0.00    +0.000 HD
ENDBRANCH   1  14
BRANCH   5  16
ATOM     16  S   UNL     1       2.769   4.559  18.355  0.00  0.00    +0.000 S 
ATOM     17  O   UNL     1       1.788   4.031  17.297  0.00  0.00    +0.000 OA
ATOM     18  O   UNL     1       2.617   3.486  19.443  0.00  0.00    +0.000 OA
BRANCH  16  19
ATOM     19  C   UNL     1       2.211   6.119  19.003  0.00  0.00    +0.000 A 
ATOM     20  C   UNL     1       2.312   7.346  18.360  0.00  0.00    +0.000 A 
ATOM     21  N   UNL     1       1.930   8.403  19.117  0.00  0.00    +0.000 NA
ATOM     22  C   UNL     1       1.539   8.025  20.357  0.00  0.00    +0.000 A 
ATOM     23  S   UNL     1       1.642   6.357  20.564  0.00  0.00    +0.000 S 
BRANCH  22  24
ATOM     24  C   UNL     1       1.111   8.992  21.413  0.00  0.00    +0.000 C 
BRANCH  24  25
ATOM     25  N   UNL     1       2.081   9.003  22.503  0.00  0.00    +0.000 NA
ATOM     26  H   UNL     1       2.916   8.437  22.221  0.00  0.00    +0.000 HD
ATOM     27  H   UNL     1       1.649   8.545  23.336  0.00  0.00    +0.000 HD
ENDBRANCH  24  25
ENDBRANCH  22  24
ENDBRANCH  16  19
ENDBRANCH   5  16
TORSDOF 6
ENDMDL
