MODEL 1
REMARK VINA RESULT:      -7.6      0.000      0.000
REMARK  Name = 
REMARK  8 active torsions:
REMARK  status: ('A' for Active; 'I' for Inactive)
REMARK    1  A    between atoms: C_1  and  C_2
REMARK    2  A    between atoms: C_2  and  N_3
REMARK    3  A    between atoms: C_2  and  C_16
REMARK    4  A    between atoms: C_4  and  C_6
REMARK    5  A    between atoms: N_12  and  C_13
REMARK    6  A    between atoms: N_12  and  C_14
REMARK    7  A    between atoms: C_19  and  O_20
REMARK    8  A    between atoms: O_20  and  C_21
REMARK                            x       y       z     vdW  Elec       q    Type
REMARK                         _______ _______ _______ _____ _____    ______ ____
ROOT
ATOM      1  N   UNL     1      -0.120  10.496  18.243  0.00  0.00    +0.000 N 
ATOM      2  C   UNL     1      -1.227  11.007  18.875  0.00  0.00    +0.000 C 
ATOM      3  O   UNL     1      -1.226  11.390  20.042  0.00  0.00    +0.000 OA
ATOM      4  H   UNL     1      -0.239  10.243  17.268  0.00  0.00    +0.000 HD
ENDROOT
BRANCH   2   5
ATOM      5  C   UNL     1      -2.458  11.058  17.998  0.00  0.00    +0.000 A 
ATOM      6  C   UNL     1      -2.363  10.426  16.826  0.00  0.00    +0.000 A 
ATOM      7  C   UNL     1      -3.529  10.462  15.952  0.00  0.00    +0.000 A 
ATOM      8  O   UNL     1      -3.526   9.917  14.854  0.00  0.00    +0.000 OA
ATOM      9  N   UNL     1      -4.597  11.152  16.443  0.00  0.00    +0.000 N 
ATOM     10  C   UNL     1      -4.626  11.769  17.664  0.00  0.00    +0.000 A 
ATOM     11  N   UNL     1      -5.785  12.423  18.054  0.00  0.00    +0.000 N 
ATOM     12  C   UNL     1      -7.019  12.522  17.295  0.00  0.00    +0.000 C 
ATOM     13  C   UNL     1      -5.876  13.034  19.383  0.00  0.00    +0.000 C 
ATOM     14  N   UNL     1      -3.578  11.733  18.440  0.00  0.00    +0.000 NA
ATOM     15  H   UNL     1      -5.395  11.161  15.823  0.00  0.00    +0.000 HD
ENDBRANCH   2   5
BRANCH   1  17
ATOM     16  C   UNL     1       2.135  11.489  18.388  0.00  0.00    +0.000 C 
ATOM     17  C   UNL     1       1.178  10.404  18.892  0.00  0.00    +0.000 C 
BRANCH  17  18
ATOM     18  C   UNL     1       1.775   9.026  18.688  0.00  0.00    +0.000 A 
ATOM     19  C   UNL     1       2.619   8.759  17.608  0.00  0.00    +0.000 A 
ATOM     20  C   UNL     1       3.209   7.498  17.473  0.00  0.00    +0.000 A 
ATOM     21  C   UNL     1       2.975   6.467  18.403  0.00  0.00    +0.000 A 
ATOM     22  C   UNL     1       2.135   6.736  19.490  0.00  0.00    +0.000 A 
ATOM     23 CL   UNL     1       1.870   5.688  20.838  0.00  0.00    +0.000 Cl
ATOM     24  C   UNL     1       1.524   7.993  19.604  0.00  0.00    +0.000 A 
BRANCH  21  25
ATOM     25  O   UNL     1       3.729   5.369  18.131  0.00  0.00    +0.000 OA
BRANCH  25  26
ATOM     26  C   UNL     1       3.181   4.136  17.702  0.00  0.00    +0.000 C 
ATOM     27  F   UNL     1       3.121   3.183  18.648  0.00  0.00    +0.000 F 
ATOM     28  F   UNL     1       1.908   4.362  17.293  0.00  0.00    +0.000 F 
ATOM     29  F   UNL     1       3.881   3.690  16.640  0.00  0.00    +0.000 F 
ENDBRANCH  25  26
ENDBRANCH  21  25
ENDBRANCH  17  18
ENDBRANCH   1  17
TORSDOF 5
ENDMDL
MODEL 2
REMARK VINA RESULT:      -7.5      1.388      1.802
REMARK  Name = 
REMARK  8 active torsions:
REMARK  status: ('A' for Active; 'I' for Inactive)
REMARK    1  A    between atoms: C_1  and  C_2
REMARK    2  A    between atoms: C_2  and  N_3
REMARK    3  A    between atoms: C_2  and  C_16
REMARK    4  A    between atoms: C_4  and  C_6
REMARK    5  A    between atoms: N_12  and  C_13
REMARK    6  A    between atoms: N_12  and  C_14
REMARK    7  A    between atoms: C_19  and  O_20
REMARK    8  A    between atoms: O_20  and  C_21
REMARK                            x       y       z     vdW  Elec       q    Type
REMARK                         _______ _______ _______ _____ _____    ______ ____
ROOT
ATOM      1  N   UNL     1       0.143  10.295  18.203  0.00  0.00    +0.000 N 
ATOM      2  C   UNL     1      -0.870  11.002  18.802  0.00  0.00    +0.000 C 
ATOM      3  O   UNL     1      -0.742  11.603  19.864  0.00  0.00    +0.000 OA
ATOM      4  H   UNL     1      -0.078   9.866  17.310  0.00  0.00    +0.000 HD
ENDROOT
BRANCH   2   5
ATOM      5  C   UNL     1      -2.170  10.975  18.028  0.00  0.00    +0.000 A 
ATOM      6  C   UNL     1      -2.127  10.365  16.841  0.00  0.00    +0.000 A 
ATOM      7  C   UNL     1      -3.359  10.329  16.065  0.00  0.00    +0.000 A 
ATOM      8  O   UNL     1      -3.408   9.798  14.961  0.00  0.00    +0.000 OA
ATOM      9  N   UNL     1      -4.430  10.934  16.653  0.00  0.00    +0.000 N 
ATOM     10  C   UNL     1      -4.402  11.533  17.883  0.00  0.00    +0.000 A 
ATOM     11  N   UNL     1      -5.569  12.097  18.378  0.00  0.00    +0.000 N 
ATOM     12  C   UNL     1      -6.864  12.117  17.723  0.00  0.00    +0.000 C 
ATOM     13  C   UNL     1      -5.593  12.684  19.721  0.00  0.00    +0.000 C 
ATOM     14  N   UNL     1      -3.294  11.563  18.571  0.00  0.00    +0.000 NA
ATOM     15  H   UNL     1      -5.275  10.893  16.100  0.00  0.00    +0.000 HD
ENDBRANCH   2   5
BRANCH   1  17
ATOM     16  C   UNL     1       2.519  10.822  17.791  0.00  0.00    +0.000 C 
ATOM     17  C   UNL     1       1.486  10.232  18.756  0.00  0.00    +0.000 C 
BRANCH  17  18
ATOM     18  C   UNL     1       1.844   8.803  19.117  0.00  0.00    +0.000 A 
ATOM     19  C   UNL     1       1.347   8.207  20.277  0.00  0.00    +0.000 A 
ATOM     20  C   UNL     1       1.639   6.869  20.560  0.00  0.00    +0.000 A 
ATOM     21  C   UNL     1       2.433   6.087  19.699  0.00  0.00    +0.000 A 
ATOM     22  C   UNL     1       2.925   6.681  18.531  0.00  0.00    +0.000 A 
ATOM     23 CL   UNL     1       3.748   5.858  17.255  0.00  0.00    +0.000 Cl
ATOM     24  C   UNL     1       2.653   8.031  18.269  0.00  0.00    +0.000 A 
BRANCH  21  25
ATOM     25  O   UNL     1       2.497   4.795  20.117  0.00  0.00    +0.000 OA
BRANCH  25  26
ATOM     26  C   UNL     1       1.569   3.802  19.720  0.00  0.00    +0.000 C 
ATOM     27  F   UNL     1       2.043   2.544  19.740  0.00  0.00    +0.000 F 
ATOM     28  F   UNL     1       0.522   3.839  20.580  0.00  0.00    +0.000 F 
ATOM     29  F   UNL     1       1.104   4.101  18.491  0.00  0.00    +0.000 F 
ENDBRANCH  25  26
ENDBRANCH  21  25
ENDBRANCH  17  18
ENDBRANCH   1  17
TORSDOF 5
ENDMDL
MODEL 3
REMARK VINA RESULT:      -7.5      1.031      1.220
REMARK  Name = 
REMARK  8 active torsions:
REMARK  status: ('A' for Active; 'I' for Inactive)
REMARK    1  A    between atoms: C_1  and  C_2
REMARK    2  A    between atoms: C_2  and  N_3
REMARK    3  A    between atoms: C_2  and  C_16
REMARK    4  A    between atoms: C_4  and  C_6
REMARK    5  A    between atoms: N_12  and  C_13
REMARK    6  A    between atoms: N_12  and  C_14
REMARK    7  A    between atoms: C_19  and  O_20
REMARK    8  A    between atoms: O_20  and  C_21
REMARK                            x       y       z     vdW  Elec       q    Type
REMARK                         _______ _______ _______ _____ _____    ______ ____
ROOT
ATOM      1  N   UNL     1       0.091  10.436  18.055  0.00  0.00    +0.000 N 
ATOM      2  C   UNL     1      -1.075  10.608  18.760  0.00  0.00    +0.000 C 
ATOM      3  O   UNL     1      -1.129  10.629  19.986  0.00  0.00    +0.000 OA
ATOM      4  H   UNL     1       0.011  10.468  17.044  0.00  0.00    +0.000 HD
ENDROOT
BRANCH   2   5
ATOM      5  C   UNL     1      -2.296  10.771  17.883  0.00  0.00    +0.000 A 
ATOM      6  C   UNL     1      -2.225  10.206  16.675  0.00  0.00    +0.000 A 
ATOM      7  C   UNL     1      -3.381  10.352  15.801  0.00  0.00    +0.000 A 
ATOM      8  O   UNL     1      -3.398   9.873  14.673  0.00  0.00    +0.000 OA
ATOM      9  N   UNL     1      -4.418  11.062  16.329  0.00  0.00    +0.000 N 
ATOM     10  C   UNL     1      -4.425  11.607  17.585  0.00  0.00    +0.000 A 
ATOM     11  N   UNL     1      -5.553  12.292  18.009  0.00  0.00    +0.000 N 
ATOM     12  C   UNL     1      -6.776  12.496  17.253  0.00  0.00    +0.000 C 
ATOM     13  C   UNL     1      -5.623  12.826  19.373  0.00  0.00    +0.000 C 
ATOM     14  N   UNL     1      -3.385  11.473  18.361  0.00  0.00    +0.000 NA
ATOM     15  H   UNL     1      -5.211  11.147  15.708  0.00  0.00    +0.000 HD
ENDBRANCH   2   5
BRANCH   1  17
ATOM     16  C   UNL     1       2.392  11.325  18.154  0.00  0.00    +0.000 C 
ATOM     17  C   UNL     1       1.386  10.309  18.704  0.00  0.00    +0.000 C 
BRANCH  17  18
ATOM     18  C   UNL     1       1.916   8.896  18.556  0.00  0.00    +0.000 A 
ATOM     19  C   UNL     1       2.750   8.547  17.493  0.00  0.00    +0.000 A 
ATOM     20  C   UNL     1       3.277   7.254  17.408  0.00  0.00    +0.000 A 
ATOM     21  C   UNL     1       2.989   6.273  18.375  0.00  0.00    +0.000 A 
ATOM     22  C   UNL     1       2.159   6.623  19.447  0.00  0.00    +0.000 A 
ATOM     23 CL   UNL     1       1.836   5.642  20.831  0.00  0.00    +0.000 Cl
ATOM     24  C   UNL     1       1.610   7.912  19.509  0.00  0.00    +0.000 A 
BRANCH  21  25
ATOM     25  O   UNL     1       3.689   5.129  18.150  0.00  0.00    +0.000 OA
BRANCH  25  26
ATOM     26  C   UNL     1       4.703   4.654  19.016  0.00  0.00    +0.000 C 
ATOM     27  F   UNL     1       4.314   3.689  19.867  0.00  0.00    +0.000 F 
ATOM     28  F   UNL     1       5.693   4.128  18.255  0.00  0.00    +0.000 F 
ATOM     29  F   UNL     1       5.218   5.695  19.702  0.00  0.00    +0.000 F 
ENDBRANCH  25  26
ENDBRANCH  21  25
ENDBRANCH  17  18
ENDBRANCH   1  17
TORSDOF 5
ENDMDL
MODEL 4
REMARK VINA RESULT:      -7.2      4.776      8.742
REMARK  Name = 
REMARK  8 active torsions:
REMARK  status: ('A' for Active; 'I' for Inactive)
REMARK    1  A    between atoms: C_1  and  C_2
REMARK    2  A    between atoms: C_2  and  N_3
REMARK    3  A    between atoms: C_2  and  C_16
REMARK    4  A    between atoms: C_4  and  C_6
REMARK    5  A    between atoms: N_12  and  C_13
REMARK    6  A    between atoms: N_12  and  C_14
REMARK    7  A    between atoms: C_19  and  O_20
REMARK    8  A    between atoms: O_20  and  C_21
REMARK                            x       y       z     vdW  Elec       q    Type
REMARK                         _______ _______ _______ _____ _____    ______ ____
ROOT
ATOM      1  N   UNL     1       1.091   9.794  19.364  0.00  0.00    +0.000 N 
ATOM      2  C   UNL     1       1.949   9.356  18.385  0.00  0.00    +0.000 C 
ATOM      3  O   UNL     1       2.298  10.044  17.431  0.00  0.00    +0.000 OA
ATOM      4  H   UNL     1       0.902   9.143  20.118  0.00  0.00    +0.000 HD
ENDROOT
BRANCH   2   5
ATOM      5  C   UNL     1       2.429   7.936  18.590  0.00  0.00    +0.000 A 
ATOM      6  C   UNL     1       1.911   7.293  19.639  0.00  0.00    +0.000 A 
ATOM      7  C   UNL     1       2.359   5.926  19.871  0.00  0.00    +0.000 A 
ATOM      8  O   UNL     1       1.942   5.265  20.816  0.00  0.00    +0.000 OA
ATOM      9  N   UNL     1       3.272   5.458  18.974  0.00  0.00    +0.000 N 
ATOM     10  C   UNL     1       3.753   6.174  17.912  0.00  0.00    +0.000 A 
ATOM     11  N   UNL     1       4.668   5.573  17.060  0.00  0.00    +0.000 N 
ATOM     12  C   UNL     1       5.184   4.220  17.162  0.00  0.00    +0.000 C 
ATOM     13  C   UNL     1       5.149   6.286  15.873  0.00  0.00    +0.000 C 
ATOM     14  N   UNL     1       3.348   7.398  17.712  0.00  0.00    +0.000 NA
ATOM     15  H   UNL     1       3.566   4.507  19.151  0.00  0.00    +0.000 HD
ENDBRANCH   2   5
BRANCH   1  17
ATOM     16  C   UNL     1       0.696  11.788  20.765  0.00  0.00    +0.000 C 
ATOM     17  C   UNL     1       0.551  11.144  19.382  0.00  0.00    +0.000 C 
BRANCH  17  18
ATOM     18  C   UNL     1      -0.901  11.139  18.943  0.00  0.00    +0.000 A 
ATOM     19  C   UNL     1      -1.853  11.928  19.591  0.00  0.00    +0.000 A 
ATOM     20  C   UNL     1      -3.173  11.955  19.131  0.00  0.00    +0.000 A 
ATOM     21  C   UNL     1      -3.584  11.200  18.016  0.00  0.00    +0.000 A 
ATOM     22  C   UNL     1      -2.629  10.416  17.360  0.00  0.00    +0.000 A 
ATOM     23 CL   UNL     1      -2.871   9.572  15.873  0.00  0.00    +0.000 Cl
ATOM     24  C   UNL     1      -1.314  10.369  17.844  0.00  0.00    +0.000 A 
BRANCH  21  25
ATOM     25  O   UNL     1      -4.877  11.461  17.687  0.00  0.00    +0.000 OA
BRANCH  25  26
ATOM     26  C   UNL     1      -5.977  11.090  18.498  0.00  0.00    +0.000 C 
ATOM     27  F   UNL     1      -6.095  11.784  19.644  0.00  0.00    +0.000 F 
ATOM     28  F   UNL     1      -7.113  11.307  17.791  0.00  0.00    +0.000 F 
ATOM     29  F   UNL     1      -5.902   9.770  18.763  0.00  0.00    +0.000 F 
ENDBRANCH  25  26
ENDBRANCH  21  25
ENDBRANCH  17  18
ENDBRANCH   1  17
TORSDOF 5
ENDMDL
MODEL 5
REMARK VINA RESULT:      -7.1      0.745      1.083
REMARK  Name = 
REMARK  8 active torsions:
REMARK  status: ('A' for Active; 'I' for Inactive)
REMARK    1  A    between atoms: C_1  and  C_2
REMARK    2  A    between atoms: C_2  and  N_3
REMARK    3  A    between atoms: C_2  and  C_16
REMARK    4  A    between atoms: C_4  and  C_6
REMARK    5  A    between atoms: N_12  and  C_13
REMARK    6  A    between atoms: N_12  and  C_14
REMARK    7  A    between atoms: C_19  and  O_20
REMARK    8  A    between atoms: O_20  and  C_21
REMARK                            x       y       z     vdW  Elec       q    Type
REMARK                         _______ _______ _______ _____ _____    ______ ____
ROOT
ATOM      1  N   UNL     1      -0.558  10.179  19.186  0.00  0.00    +0.000 N 
ATOM      2  C   UNL     1      -1.527  11.103  19.490  0.00  0.00    +0.000 C 
ATOM      3  O   UNL     1      -1.561  11.729  20.545  0.00  0.00    +0.000 OA
ATOM      4  H   UNL     1      -0.620   9.750  18.269  0.00  0.00    +0.000 HD
ENDROOT
BRANCH   2   5
ATOM      5  C   UNL     1      -2.559  11.283  18.398  0.00  0.00    +0.000 A 
ATOM      6  C   UNL     1      -2.203  10.851  17.186  0.00  0.00    +0.000 A 
ATOM      7  C   UNL     1      -3.170  11.016  16.109  0.00  0.00    +0.000 A 
ATOM      8  O   UNL     1      -2.923  10.656  14.963  0.00  0.00    +0.000 OA
ATOM      9  N   UNL     1      -4.344  11.605  16.472  0.00  0.00    +0.000 N 
ATOM     10  C   UNL     1      -4.644  12.016  17.743  0.00  0.00    +0.000 A 
ATOM     11  N   UNL     1      -5.885  12.585  17.985  0.00  0.00    +0.000 N 
ATOM     12  C   UNL     1      -6.945  12.794  17.014  0.00  0.00    +0.000 C 
ATOM     13  C   UNL     1      -6.268  12.971  19.346  0.00  0.00    +0.000 C 
ATOM     14  N   UNL     1      -3.773  11.865  18.702  0.00  0.00    +0.000 NA
ATOM     15  H   UNL     1      -5.001  11.707  15.711  0.00  0.00    +0.000 HD
ENDBRANCH   2   5
BRANCH   1  17
ATOM     16  C   UNL     1       1.465  11.109  20.251  0.00  0.00    +0.000 C 
ATOM     17  C   UNL     1       0.554   9.891  20.078  0.00  0.00    +0.000 C 
BRANCH  17  18
ATOM     18  C   UNL     1       1.343   8.699  19.572  0.00  0.00    +0.000 A 
ATOM     19  C   UNL     1       2.046   8.759  18.368  0.00  0.00    +0.000 A 
ATOM     20  C   UNL     1       2.817   7.670  17.949  0.00  0.00    +0.000 A 
ATOM     21  C   UNL     1       2.910   6.491  18.713  0.00  0.00    +0.000 A 
ATOM     22  C   UNL     1       2.212   6.433  19.926  0.00  0.00    +0.000 A 
ATOM     23 CL   UNL     1       2.340   5.171  21.099  0.00  0.00    +0.000 Cl
ATOM     24  C   UNL     1       1.417   7.516  20.325  0.00  0.00    +0.000 A 
BRANCH  21  25
ATOM     25  O   UNL     1       3.793   5.612  18.169  0.00  0.00    +0.000 OA
BRANCH  25  26
ATOM     26  C   UNL     1       3.400   4.409  17.533  0.00  0.00    +0.000 C 
ATOM     27  F   UNL     1       4.051   4.135  16.389  0.00  0.00    +0.000 F 
ATOM     28  F   UNL     1       3.654   3.384  18.383  0.00  0.00    +0.000 F 
ATOM     29  F   UNL     1       2.071   4.442  17.312  0.00  0.00    +0.000 F 
ENDBRANCH  25  26
ENDBRANCH  21  25
ENDBRANCH  17  18
ENDBRANCH   1  17
TORSDOF 5
ENDMDL
MODEL 6
REMARK VINA RESULT:      -7.0      3.419      4.634
REMARK  Name = 
REMARK  8 active torsions:
REMARK  status: ('A' for Active; 'I' for Inactive)
REMARK    1  A    between atoms: C_1  and  C_2
REMARK    2  A    between atoms: C_2  and  N_3
REMARK    3  A    between atoms: C_2  and  C_16
REMARK    4  A    between atoms: C_4  and  C_6
REMARK    5  A    between atoms: N_12  and  C_13
REMARK    6  A    between atoms: N_12  and  C_14
REMARK    7  A    between atoms: C_19  and  O_20
REMARK    8  A    between atoms: O_20  and  C_21
REMARK                            x       y       z     vdW  Elec       q    Type
REMARK                         _______ _______ _______ _____ _____    ______ ____
ROOT
ATOM      1  N   UNL     1       1.507   8.901  19.664  0.00  0.00    +0.000 N 
ATOM      2  C   UNL     1       0.983  10.167  19.762  0.00  0.00    +0.000 C 
ATOM      3  O   UNL     1       1.135  11.031  18.903  0.00  0.00    +0.000 OA
ATOM      4  H   UNL     1       1.286   8.266  20.424  0.00  0.00    +0.000 HD
ENDROOT
BRANCH   2   5
ATOM      5  C   UNL     1       0.194  10.402  21.030  0.00  0.00    +0.000 A 
ATOM      6  C   UNL     1       0.599   9.717  22.102  0.00  0.00    +0.000 A 
ATOM      7  C   UNL     1      -0.144   9.914  23.340  0.00  0.00    +0.000 A 
ATOM      8  O   UNL     1       0.154   9.319  24.369  0.00  0.00    +0.000 OA
ATOM      9  N   UNL     1      -1.186  10.788  23.255  0.00  0.00    +0.000 N 
ATOM     10  C   UNL     1      -1.540  11.465  22.118  0.00  0.00    +0.000 A 
ATOM     11  N   UNL     1      -2.611  12.343  22.170  0.00  0.00    +0.000 N 
ATOM     12  C   UNL     1      -3.425  12.646  23.334  0.00  0.00    +0.000 C 
ATOM     13  C   UNL     1      -2.973  13.137  20.992  0.00  0.00    +0.000 C 
ATOM     14  N   UNL     1      -0.870  11.283  21.014  0.00  0.00    +0.000 NA
ATOM     15  H   UNL     1      -1.685  10.913  24.124  0.00  0.00    +0.000 HD
ENDBRANCH   2   5
BRANCH   1  17
ATOM     16  C   UNL     1       1.436   8.586  17.218  0.00  0.00    +0.000 C 
ATOM     17  C   UNL     1       2.258   8.453  18.503  0.00  0.00    +0.000 C 
BRANCH  17  18
ATOM     18  C   UNL     1       2.726   7.023  18.695  0.00  0.00    +0.000 A 
ATOM     19  C   UNL     1       2.289   6.262  19.780  0.00  0.00    +0.000 A 
ATOM     20  C   UNL     1       2.683   4.926  19.905  0.00  0.00    +0.000 A 
ATOM     21  C   UNL     1       3.523   4.310  18.957  0.00  0.00    +0.000 A 
ATOM     22  C   UNL     1       3.955   5.070  17.864  0.00  0.00    +0.000 A 
ATOM     23 CL   UNL     1       4.822   4.464  16.499  0.00  0.00    +0.000 Cl
ATOM     24  C   UNL     1       3.580   6.417  17.760  0.00  0.00    +0.000 A 
BRANCH  21  25
ATOM     25  O   UNL     1       3.689   2.987  19.223  0.00  0.00    +0.000 OA
BRANCH  25  26
ATOM     26  C   UNL     1       2.913   1.969  18.618  0.00  0.00    +0.000 C 
ATOM     27  F   UNL     1       2.456   2.261  17.387  0.00  0.00    +0.000 F 
ATOM     28  F   UNL     1       3.690   0.866  18.494  0.00  0.00    +0.000 F 
ATOM     29  F   UNL     1       1.883   1.659  19.431  0.00  0.00    +0.000 F 
ENDBRANCH  25  26
ENDBRANCH  21  25
ENDBRANCH  17  18
ENDBRANCH   1  17
TORSDOF 5
ENDMDL
MODEL 7
REMARK VINA RESULT:      -6.9      5.843      8.920
REMARK  Name = 
REMARK  8 active torsions:
REMARK  status: ('A' for Active; 'I' for Inactive)
REMARK    1  A    between atoms: C_1  and  C_2
REMARK    2  A    between atoms: C_2  and  N_3
REMARK    3  A    between atoms: C_2  and  C_16
REMARK    4  A    between atoms: C_4  and  C_6
REMARK    5  A    between atoms: N_12  and  C_13
REMARK    6  A    between atoms: N_12  and  C_14
REMARK    7  A    between atoms: C_19  and  O_20
REMARK    8  A    between atoms: O_20  and  C_21
REMARK                            x       y       z     vdW  Elec       q    Type
REMARK                         _______ _______ _______ _____ _____    ______ ____
ROOT
ATOM      1  N   UNL     1       1.227   9.155  19.373  0.00  0.00    +0.000 N 
ATOM      2  C   UNL     1       1.538   8.156  20.263  0.00  0.00    +0.000 C 
ATOM      3  O   UNL     1       1.230   8.185  21.451  0.00  0.00    +0.000 OA
ATOM      4  H   UNL     1       1.509   9.001  18.411  0.00  0.00    +0.000 HD
ENDROOT
BRANCH   2   5
ATOM      5  C   UNL     1       2.300   7.006  19.643  0.00  0.00    +0.000 A 
ATOM      6  C   UNL     1       2.966   7.288  18.520  0.00  0.00    +0.000 A 
ATOM      7  C   UNL     1       3.704   6.200  17.891  0.00  0.00    +0.000 A 
ATOM      8  O   UNL     1       4.336   6.368  16.854  0.00  0.00    +0.000 OA
ATOM      9  N   UNL     1       3.623   5.001  18.533  0.00  0.00    +0.000 N 
ATOM     10  C   UNL     1       2.925   4.787  19.691  0.00  0.00    +0.000 A 
ATOM     11  N   UNL     1       2.939   3.520  20.255  0.00  0.00    +0.000 N 
ATOM     12  C   UNL     1       3.642   2.355  19.746  0.00  0.00    +0.000 C 
ATOM     13  C   UNL     1       2.262   3.272  21.531  0.00  0.00    +0.000 C 
ATOM     14  N   UNL     1       2.266   5.765  20.248  0.00  0.00    +0.000 NA
ATOM     15  H   UNL     1       4.145   4.262  18.083  0.00  0.00    +0.000 HD
ENDBRANCH   2   5
BRANCH   1  17
ATOM     16  C   UNL     1      -0.850  10.423  18.960  0.00  0.00    +0.000 C 
ATOM     17  C   UNL     1       0.456  10.328  19.754  0.00  0.00    +0.000 C 
BRANCH  17  18
ATOM     18  C   UNL     1       1.285  11.586  19.575  0.00  0.00    +0.000 A 
ATOM     19  C   UNL     1       1.954  11.844  18.377  0.00  0.00    +0.000 A 
ATOM     20  C   UNL     1       2.661  13.038  18.211  0.00  0.00    +0.000 A 
ATOM     21  C   UNL     1       2.726  14.008  19.230  0.00  0.00    +0.000 A 
ATOM     22  C   UNL     1       2.049  13.754  20.429  0.00  0.00    +0.000 A 
ATOM     23 CL   UNL     1       1.839  14.880  21.721  0.00  0.00    +0.000 Cl
ATOM     24  C   UNL     1       1.366  12.542  20.600  0.00  0.00    +0.000 A 
BRANCH  21  25
ATOM     25  O   UNL     1       3.376  15.127  18.812  0.00  0.00    +0.000 OA
BRANCH  25  26
ATOM     26  C   UNL     1       2.713  16.255  18.270  0.00  0.00    +0.000 C 
ATOM     27  F   UNL     1       3.041  16.547  16.999  0.00  0.00    +0.000 F 
ATOM     28  F   UNL     1       1.381  16.005  18.283  0.00  0.00    +0.000 F 
ATOM     29  F   UNL     1       2.940  17.321  19.063  0.00  0.00    +0.000 F 
ENDBRANCH  25  26
ENDBRANCH  21  25
ENDBRANCH  17  18
ENDBRANCH   1  17
TORSDOF 5
ENDMDL
MODEL 8
REMARK VINA RESULT:      -6.9      1.370      1.830
REMARK  Name = 
REMARK  8 active torsions:
REMARK  status: ('A' for Active; 'I' for Inactive)
REMARK    1  A    between atoms: C_1  and  C_2
REMARK    2  A    between atoms: C_2  and  N_3
REMARK    3  A    between atoms: C_2  and  C_16
REMARK    4  A    between atoms: C_4  and  C_6
REMARK    5  A    between atoms: N_12  and  C_13
REMARK    6  A    between atoms: N_12  and  C_14
REMARK    7  A    between atoms: C_19  and  O_20
REMARK    8  A    between atoms: O_20  and  C_21
REMARK                            x       y       z     vdW  Elec       q    Type
REMARK                         _______ _______ _______ _____ _____    ______ ____
ROOT
ATOM      1  N   UNL     1       0.001  10.532  18.246  0.00  0.00    +0.000 N 
ATOM      2  C   UNL     1      -1.016  11.304  18.752  0.00  0.00    +0.000 C 
ATOM      3  O   UNL     1      -0.898  12.015  19.746  0.00  0.00    +0.000 OA
ATOM      4  H   UNL     1      -0.210  10.012  17.402  0.00  0.00    +0.000 HD
ENDROOT
BRANCH   2   5
ATOM      5  C   UNL     1      -2.305  11.199  17.968  0.00  0.00    +0.000 A 
ATOM      6  C   UNL     1      -2.228  10.543  16.808  0.00  0.00    +0.000 A 
ATOM      7  C   UNL     1      -3.450  10.432  16.022  0.00  0.00    +0.000 A 
ATOM      8  O   UNL     1      -3.468   9.854  14.941  0.00  0.00    +0.000 OA
ATOM      9  N   UNL     1      -4.547  11.023  16.574  0.00  0.00    +0.000 N 
ATOM     10  C   UNL     1      -4.554  11.674  17.778  0.00  0.00    +0.000 A 
ATOM     11  N   UNL     1      -5.744  12.217  18.237  0.00  0.00    +0.000 N 
ATOM     12  C   UNL     1      -7.032  12.164  17.569  0.00  0.00    +0.000 C 
ATOM     13  C   UNL     1      -5.804  12.858  19.554  0.00  0.00    +0.000 C 
ATOM     14  N   UNL     1      -3.455  11.770  18.475  0.00  0.00    +0.000 NA
ATOM     15  H   UNL     1      -5.384  10.930  16.015  0.00  0.00    +0.000 HD
ENDBRANCH   2   5
BRANCH   1  17
ATOM     16  C   UNL     1       2.285  11.448  18.053  0.00  0.00    +0.000 C 
ATOM     17  C   UNL     1       1.337  10.524  18.822  0.00  0.00    +0.000 C 
BRANCH  17  18
ATOM     18  C   UNL     1       1.884   9.110  18.867  0.00  0.00    +0.000 A 
ATOM     19  C   UNL     1       1.485   8.214  19.860  0.00  0.00    +0.000 A 
ATOM     20  C   UNL     1       1.955   6.897  19.847  0.00  0.00    +0.000 A 
ATOM     21  C   UNL     1       2.835   6.434  18.850  0.00  0.00    +0.000 A 
ATOM     22  C   UNL     1       3.230   7.330  17.850  0.00  0.00    +0.000 A 
ATOM     23 CL   UNL     1       4.140   6.923  16.439  0.00  0.00    +0.000 Cl
ATOM     24  C   UNL     1       2.779   8.657  17.885  0.00  0.00    +0.000 A 
BRANCH  21  25
ATOM     25  O   UNL     1       3.074   5.102  18.976  0.00  0.00    +0.000 OA
BRANCH  25  26
ATOM     26  C   UNL     1       4.369   4.559  19.164  0.00  0.00    +0.000 C 
ATOM     27  F   UNL     1       5.004   4.206  18.033  0.00  0.00    +0.000 F 
ATOM     28  F   UNL     1       5.136   5.500  19.765  0.00  0.00    +0.000 F 
ATOM     29  F   UNL     1       4.285   3.502  19.996  0.00  0.00    +0.000 F 
ENDBRANCH  25  26
ENDBRANCH  21  25
ENDBRANCH  17  18
ENDBRANCH   1  17
TORSDOF 5
ENDMDL
MODEL 9
REMARK VINA RESULT:      -6.9      4.441      5.575
REMARK  Name = 
REMARK  8 active torsions:
REMARK  status: ('A' for Active; 'I' for Inactive)
REMARK    1  A    between atoms: C_1  and  C_2
REMARK    2  A    between atoms: C_2  and  N_3
REMARK    3  A    between atoms: C_2  and  C_16
REMARK    4  A    between atoms: C_4  and  C_6
REMARK    5  A    between atoms: N_12  and  C_13
REMARK    6  A    between atoms: N_12  and  C_14
REMARK    7  A    between atoms: C_19  and  O_20
REMARK    8  A    between atoms: O_20  and  C_21
REMARK                            x       y       z     vdW  Elec       q    Type
REMARK                         _______ _______ _______ _____ _____    ______ ____
ROOT
ATOM      1  N   UNL     1       2.202   6.677  19.674  0.00  0.00    +0.000 N 
ATOM      2  C   UNL     1       1.887   7.467  18.596  0.00  0.00    +0.000 C 
ATOM      3  O   UNL     1       1.781   7.040  17.450  0.00  0.00    +0.000 OA
ATOM      4  H   UNL     1       2.230   7.141  20.575  0.00  0.00    +0.000 HD
ENDROOT
BRANCH   2   5
ATOM      5  C   UNL     1       1.680   8.923  18.950  0.00  0.00    +0.000 A 
ATOM      6  C   UNL     1       2.217   9.808  18.105  0.00  0.00    +0.000 A 
ATOM      7  C   UNL     1       2.045  11.220  18.421  0.00  0.00    +0.000 A 
ATOM      8  O   UNL     1       2.512  12.099  17.706  0.00  0.00    +0.000 OA
ATOM      9  N   UNL     1       1.345  11.475  19.562  0.00  0.00    +0.000 N 
ATOM     10  C   UNL     1       0.813  10.513  20.377  0.00  0.00    +0.000 A 
ATOM     11  N   UNL     1       0.104  10.907  21.502  0.00  0.00    +0.000 N 
ATOM     12  C   UNL     1      -0.158  12.271  21.924  0.00  0.00    +0.000 C 
ATOM     13  C   UNL     1      -0.539   9.906  22.358  0.00  0.00    +0.000 C 
ATOM     14  N   UNL     1       0.973   9.250  20.089  0.00  0.00    +0.000 NA
ATOM     15  H   UNL     1       1.233  12.460  19.759  0.00  0.00    +0.000 HD
ENDBRANCH   2   5
BRANCH   1  17
ATOM     16  C   UNL     1       2.539   4.583  20.936  0.00  0.00    +0.000 C 
ATOM     17  C   UNL     1       2.395   5.240  19.560  0.00  0.00    +0.000 C 
BRANCH  17  18
ATOM     18  C   UNL     1       3.599   4.935  18.691  0.00  0.00    +0.000 A 
ATOM     19  C   UNL     1       3.492   4.099  17.578  0.00  0.00    +0.000 A 
ATOM     20  C   UNL     1       4.600   3.880  16.754  0.00  0.00    +0.000 A 
ATOM     21  C   UNL     1       5.846   4.482  17.014  0.00  0.00    +0.000 A 
ATOM     22  C   UNL     1       5.953   5.327  18.125  0.00  0.00    +0.000 A 
ATOM     23 CL   UNL     1       7.320   6.309  18.512  0.00  0.00    +0.000 Cl
ATOM     24  C   UNL     1       4.846   5.519  18.964  0.00  0.00    +0.000 A 
BRANCH  21  25
ATOM     25  O   UNL     1       6.745   4.213  16.030  0.00  0.00    +0.000 OA
BRANCH  25  26
ATOM     26  C   UNL     1       6.632   4.721  14.713  0.00  0.00    +0.000 C 
ATOM     27  F   UNL     1       7.783   5.162  14.175  0.00  0.00    +0.000 F 
ATOM     28  F   UNL     1       6.184   3.721  13.914  0.00  0.00    +0.000 F 
ATOM     29  F   UNL     1       5.709   5.704  14.699  0.00  0.00    +0.000 F 
ENDBRANCH  25  26
ENDBRANCH  21  25
ENDBRANCH  17  18
ENDBRANCH   1  17
TORSDOF 5
ENDMDL
