MODEL 1
REMARK VINA RESULT:      -6.7      0.000      0.000
REMARK  Name = 
REMARK  10 active torsions:
REMARK  status: ('A' for Active; 'I' for Inactive)
REMARK    1  A    between atoms: C_1  and  C_2
REMARK    2  A    between atoms: C_2  and  O_3
REMARK    3  A    between atoms: O_3  and  C_4
REMARK    4  A    between atoms: C_7  and  C_8
REMARK    5  A    between atoms: N_10  and  C_11
REMARK    6  A    between atoms: C_11  and  C_12
REMARK    7  A    between atoms: C_12  and  N_13
REMARK    8  A    between atoms: C_19  and  O_20
REMARK    9  A    between atoms: O_20  and  C_21
REMARK   10  A    between atoms: C_21  and  C_22
REMARK                            x       y       z     vdW  Elec       q    Type
REMARK                         _______ _______ _______ _____ _____    ______ ____
ROOT
ATOM      1  C   UNL     1       5.653   4.602  14.764  0.00  0.00    +0.000 A 
ATOM      2  C   UNL     1       7.001   4.444  15.072  0.00  0.00    +0.000 A 
ATOM      3  C   UNL     1       7.584   5.232  16.064  0.00  0.00    +0.000 A 
ATOM      4  C   UNL     1       6.830   6.198  16.752  0.00  0.00    +0.000 A 
ATOM      5  C   UNL     1       5.464   6.354  16.456  0.00  0.00    +0.000 A 
ATOM      6  C   UNL     1       4.894   5.550  15.458  0.00  0.00    +0.000 A 
ENDROOT
BRANCH   4   7
ATOM      7  C   UNL     1       7.556   6.986  17.785  0.00  0.00    +0.000 C 
ATOM      8  O   UNL     1       7.926   6.430  18.816  0.00  0.00    +0.000 OA
ATOM      9  N   UNL     1       7.825   8.304  17.506  0.00  0.00    +0.000 N 
ATOM     10  H   UNL     1       7.483   8.711  16.641  0.00  0.00    +0.000 HD
BRANCH   9  11
ATOM     11  C   UNL     1       8.516   9.168  18.445  0.00  0.00    +0.000 C 
BRANCH  11  12
ATOM     12  C   UNL     1       8.493  10.649  18.020  0.00  0.00    +0.000 C 
BRANCH  12  13
ATOM     13  N   UNL     1       9.535  11.514  18.626  0.00  0.00    +0.000 NA
ATOM     14  C   UNL     1       9.840  11.120  20.010  0.00  0.00    +0.000 C 
ATOM     15  C   UNL     1      10.908  12.030  20.623  0.00  0.00    +0.000 C 
ATOM     16  C   UNL     1      12.182  12.022  19.791  0.00  0.00    +0.000 C 
ATOM     17  C   UNL     1      11.861  12.360  18.342  0.00  0.00    +0.000 C 
ATOM     18  C   UNL     1      10.753  11.459  17.792  0.00  0.00    +0.000 C 
ENDBRANCH  12  13
ENDBRANCH  11  12
ENDBRANCH   9  11
ENDBRANCH   4   7
BRANCH   1  19
ATOM     19  O   UNL     1       5.178   3.778  13.778  0.00  0.00    +0.000 OA
BRANCH  19  21
ATOM     20  C   UNL     1       5.329   2.681  11.656  0.00  0.00    +0.000 C 
ATOM     21  C   UNL     1       6.054   3.533  12.678  0.00  0.00    +0.000 C 
ENDBRANCH  19  21
ENDBRANCH   1  19
BRANCH   5  22
ATOM     22  O   UNL     1       4.748   7.277  17.178  0.00  0.00    +0.000 OA
BRANCH  22  23
ATOM     23  C   UNL     1       3.604   6.814  17.898  0.00  0.00    +0.000 C 
ATOM     24  C   UNL     1       2.599   7.948  17.975  0.00  0.00    +0.000 C 
ENDBRANCH  22  23
ENDBRANCH   5  22
TORSDOF 8
ENDMDL
MODEL 2
REMARK VINA RESULT:      -6.5      2.376      3.592
REMARK  Name = 
REMARK  10 active torsions:
REMARK  status: ('A' for Active; 'I' for Inactive)
REMARK    1  A    between atoms: C_1  and  C_2
REMARK    2  A    between atoms: C_2  and  O_3
REMARK    3  A    between atoms: O_3  and  C_4
REMARK    4  A    between atoms: C_7  and  C_8
REMARK    5  A    between atoms: N_10  and  C_11
REMARK    6  A    between atoms: C_11  and  C_12
REMARK    7  A    between atoms: C_12  and  N_13
REMARK    8  A    between atoms: C_19  and  O_20
REMARK    9  A    between atoms: O_20  and  C_21
REMARK   10  A    between atoms: C_21  and  C_22
REMARK                            x       y       z     vdW  Elec       q    Type
REMARK                         _______ _______ _______ _____ _____    ______ ____
ROOT
ATOM      1  C   UNL     1       3.804   3.538  17.565  0.00  0.00    +0.000 A 
ATOM      2  C   UNL     1       4.273   3.751  18.858  0.00  0.00    +0.000 A 
ATOM      3  C   UNL     1       5.391   4.558  19.068  0.00  0.00    +0.000 A 
ATOM      4  C   UNL     1       6.063   5.151  17.986  0.00  0.00    +0.000 A 
ATOM      5  C   UNL     1       5.589   4.952  16.678  0.00  0.00    +0.000 A 
ATOM      6  C   UNL     1       4.461   4.141  16.486  0.00  0.00    +0.000 A 
ENDROOT
BRANCH   4   7
ATOM      7  C   UNL     1       7.248   5.986  18.327  0.00  0.00    +0.000 C 
ATOM      8  O   UNL     1       8.164   5.492  18.982  0.00  0.00    +0.000 OA
ATOM      9  N   UNL     1       7.281   7.271  17.843  0.00  0.00    +0.000 N 
ATOM     10  H   UNL     1       6.488   7.626  17.317  0.00  0.00    +0.000 HD
BRANCH   9  11
ATOM     11  C   UNL     1       8.380   8.176  18.124  0.00  0.00    +0.000 C 
BRANCH  11  12
ATOM     12  C   UNL     1       8.058   9.636  17.754  0.00  0.00    +0.000 C 
BRANCH  12  13
ATOM     13  N   UNL     1       8.803  10.675  18.508  0.00  0.00    +0.000 NA
ATOM     14  C   UNL     1       9.033  10.281  19.907  0.00  0.00    +0.000 C 
ATOM     15  C   UNL     1       9.791  11.368  20.673  0.00  0.00    +0.000 C 
ATOM     16  C   UNL     1      11.118  11.691  20.002  0.00  0.00    +0.000 C 
ATOM     17  C   UNL     1      10.893  12.031  18.535  0.00  0.00    +0.000 C 
ATOM     18  C   UNL     1      10.086  10.939  17.827  0.00  0.00    +0.000 C 
ENDBRANCH  12  13
ENDBRANCH  11  12
ENDBRANCH   9  11
ENDBRANCH   4   7
BRANCH   1  19
ATOM     19  O   UNL     1       2.700   2.733  17.467  0.00  0.00    +0.000 OA
BRANCH  19  21
ATOM     20  C   UNL     1       0.790   2.671  18.909  0.00  0.00    +0.000 C 
ATOM     21  C   UNL     1       2.208   2.181  18.688  0.00  0.00    +0.000 C 
ENDBRANCH  19  21
ENDBRANCH   1  19
BRANCH   5  22
ATOM     22  O   UNL     1       6.245   5.583  15.650  0.00  0.00    +0.000 OA
BRANCH  22  23
ATOM     23  C   UNL     1       7.096   4.790  14.819  0.00  0.00    +0.000 C 
ATOM     24  C   UNL     1       6.235   4.091  13.786  0.00  0.00    +0.000 C 
ENDBRANCH  22  23
ENDBRANCH   5  22
TORSDOF 8
ENDMDL
MODEL 3
REMARK VINA RESULT:      -6.5      5.278      7.531
REMARK  Name = 
REMARK  10 active torsions:
REMARK  status: ('A' for Active; 'I' for Inactive)
REMARK    1  A    between atoms: C_1  and  C_2
REMARK    2  A    between atoms: C_2  and  O_3
REMARK    3  A    between atoms: O_3  and  C_4
REMARK    4  A    between atoms: C_7  and  C_8
REMARK    5  A    between atoms: N_10  and  C_11
REMARK    6  A    between atoms: C_11  and  C_12
REMARK    7  A    between atoms: C_12  and  N_13
REMARK    8  A    between atoms: C_19  and  O_20
REMARK    9  A    between atoms: O_20  and  C_21
REMARK   10  A    between atoms: C_21  and  C_22
REMARK                            x       y       z     vdW  Elec       q    Type
REMARK                         _______ _______ _______ _____ _____    ______ ____
ROOT
ATOM      1  C   UNL     1       4.460   4.768  16.726  0.00  0.00    +0.000 A 
ATOM      2  C   UNL     1       4.772   6.123  16.679  0.00  0.00    +0.000 A 
ATOM      3  C   UNL     1       4.060   7.028  17.466  0.00  0.00    +0.000 A 
ATOM      4  C   UNL     1       3.018   6.592  18.300  0.00  0.00    +0.000 A 
ATOM      5  C   UNL     1       2.705   5.222  18.365  0.00  0.00    +0.000 A 
ATOM      6  C   UNL     1       3.434   4.326  17.569  0.00  0.00    +0.000 A 
ENDROOT
BRANCH   4   7
ATOM      7  C   UNL     1       2.323   7.645  19.089  0.00  0.00    +0.000 C 
ATOM      8  O   UNL     1       1.883   8.637  18.512  0.00  0.00    +0.000 OA
ATOM      9  N   UNL     1       2.161   7.428  20.436  0.00  0.00    +0.000 N 
ATOM     10  H   UNL     1       2.557   6.594  20.858  0.00  0.00    +0.000 HD
BRANCH   9  11
ATOM     11  C   UNL     1       1.510   8.393  21.303  0.00  0.00    +0.000 C 
BRANCH  11  12
ATOM     12  C   UNL     1      -0.026   8.278  21.274  0.00  0.00    +0.000 C 
BRANCH  12  13
ATOM     13  N   UNL     1      -0.776   9.531  21.539  0.00  0.00    +0.000 NA
ATOM     14  C   UNL     1      -0.574  10.012  22.914  0.00  0.00    +0.000 C 
ATOM     15  C   UNL     1      -1.363  11.298  23.174  0.00  0.00    +0.000 C 
ATOM     16  C   UNL     1      -0.981  12.388  22.184  0.00  0.00    +0.000 C 
ATOM     17  C   UNL     1      -1.121  11.872  20.758  0.00  0.00    +0.000 C 
ATOM     18  C   UNL     1      -0.358  10.559  20.564  0.00  0.00    +0.000 C 
ENDBRANCH  12  13
ENDBRANCH  11  12
ENDBRANCH   9  11
ENDBRANCH   4   7
BRANCH   1  19
ATOM     19  O   UNL     1       5.219   3.963  15.919  0.00  0.00    +0.000 OA
BRANCH  19  21
ATOM     20  C   UNL     1       6.898   4.597  14.333  0.00  0.00    +0.000 C 
ATOM     21  C   UNL     1       5.413   4.412  14.577  0.00  0.00    +0.000 C 
ENDBRANCH  19  21
ENDBRANCH   1  19
BRANCH   5  22
ATOM     22  O   UNL     1       1.710   4.827  19.224  0.00  0.00    +0.000 OA
BRANCH  22  23
ATOM     23  C   UNL     1       1.318   3.453  19.199  0.00  0.00    +0.000 C 
ATOM     24  C   UNL     1       1.157   2.978  20.630  0.00  0.00    +0.000 C 
ENDBRANCH  22  23
ENDBRANCH   5  22
TORSDOF 8
ENDMDL
MODEL 4
REMARK VINA RESULT:      -6.5      5.138      7.291
REMARK  Name = 
REMARK  10 active torsions:
REMARK  status: ('A' for Active; 'I' for Inactive)
REMARK    1  A    between atoms: C_1  and  C_2
REMARK    2  A    between atoms: C_2  and  O_3
REMARK    3  A    between atoms: O_3  and  C_4
REMARK    4  A    between atoms: C_7  and  C_8
REMARK    5  A    between atoms: N_10  and  C_11
REMARK    6  A    between atoms: C_11  and  C_12
REMARK    7  A    between atoms: C_12  and  N_13
REMARK    8  A    between atoms: C_19  and  O_20
REMARK    9  A    between atoms: O_20  and  C_21
REMARK   10  A    between atoms: C_21  and  C_22
REMARK                            x       y       z     vdW  Elec       q    Type
REMARK                         _______ _______ _______ _____ _____    ______ ____
ROOT
ATOM      1  C   UNL     1       5.092   4.812  16.970  0.00  0.00    +0.000 A 
ATOM      2  C   UNL     1       5.192   6.200  16.945  0.00  0.00    +0.000 A 
ATOM      3  C   UNL     1       4.259   6.976  17.633  0.00  0.00    +0.000 A 
ATOM      4  C   UNL     1       3.208   6.375  18.345  0.00  0.00    +0.000 A 
ATOM      5  C   UNL     1       3.108   4.973  18.387  0.00  0.00    +0.000 A 
ATOM      6  C   UNL     1       4.057   4.208  17.692  0.00  0.00    +0.000 A 
ENDROOT
BRANCH   4   7
ATOM      7  C   UNL     1       2.268   7.300  19.035  0.00  0.00    +0.000 C 
ATOM      8  O   UNL     1       1.804   8.257  18.419  0.00  0.00    +0.000 OA
ATOM      9  N   UNL     1       1.922   7.004  20.331  0.00  0.00    +0.000 N 
ATOM     10  H   UNL     1       2.347   6.206  20.792  0.00  0.00    +0.000 HD
BRANCH   9  11
ATOM     11  C   UNL     1       1.024   7.844  21.104  0.00  0.00    +0.000 C 
BRANCH  11  12
ATOM     12  C   UNL     1       1.762   8.956  21.873  0.00  0.00    +0.000 C 
BRANCH  12  13
ATOM     13  N   UNL     1       0.986  10.196  22.123  0.00  0.00    +0.000 NA
ATOM     14  C   UNL     1       0.773  10.970  20.890  0.00  0.00    +0.000 C 
ATOM     15  C   UNL     1      -0.017  12.250  21.168  0.00  0.00    +0.000 C 
ATOM     16  C   UNL     1      -1.356  11.940  21.821  0.00  0.00    +0.000 C 
ATOM     17  C   UNL     1      -1.147  11.079  23.059  0.00  0.00    +0.000 C 
ATOM     18  C   UNL     1      -0.307   9.840  22.740  0.00  0.00    +0.000 C 
ENDBRANCH  12  13
ENDBRANCH  11  12
ENDBRANCH   9  11
ENDBRANCH   4   7
BRANCH   1  19
ATOM     19  O   UNL     1       6.058   4.143  16.266  0.00  0.00    +0.000 OA
BRANCH  19  21
ATOM     20  C   UNL     1       6.067   3.906  13.884  0.00  0.00    +0.000 C 
ATOM     21  C   UNL     1       6.504   4.759  15.058  0.00  0.00    +0.000 C 
ENDBRANCH  19  21
ENDBRANCH   1  19
BRANCH   5  22
ATOM     22  O   UNL     1       2.093   4.419  19.128  0.00  0.00    +0.000 OA
BRANCH  22  23
ATOM     23  C   UNL     1       2.177   3.025  19.432  0.00  0.00    +0.000 C 
ATOM     24  C   UNL     1       2.242   2.871  20.940  0.00  0.00    +0.000 C 
ENDBRANCH  22  23
ENDBRANCH   5  22
TORSDOF 8
ENDMDL
MODEL 5
REMARK VINA RESULT:      -6.3      5.176      7.575
REMARK  Name = 
REMARK  10 active torsions:
REMARK  status: ('A' for Active; 'I' for Inactive)
REMARK    1  A    between atoms: C_1  and  C_2
REMARK    2  A    between atoms: C_2  and  O_3
REMARK    3  A    between atoms: O_3  and  C_4
REMARK    4  A    between atoms: C_7  and  C_8
REMARK    5  A    between atoms: N_10  and  C_11
REMARK    6  A    between atoms: C_11  and  C_12
REMARK    7  A    between atoms: C_12  and  N_13
REMARK    8  A    between atoms: C_19  and  O_20
REMARK    9  A    between atoms: O_20  and  C_21
REMARK   10  A    between atoms: C_21  and  C_22
REMARK                            x       y       z     vdW  Elec       q    Type
REMARK                         _______ _______ _______ _____ _____    ______ ____
ROOT
ATOM      1  C   UNL     1       5.007   4.930  17.364  0.00  0.00    +0.000 A 
ATOM      2  C   UNL     1       4.800   6.239  16.938  0.00  0.00    +0.000 A 
ATOM      3  C   UNL     1       3.857   7.039  17.584  0.00  0.00    +0.000 A 
ATOM      4  C   UNL     1       3.100   6.536  18.655  0.00  0.00    +0.000 A 
ATOM      5  C   UNL     1       3.312   5.220  19.100  0.00  0.00    +0.000 A 
ATOM      6  C   UNL     1       4.267   4.431  18.442  0.00  0.00    +0.000 A 
ENDROOT
BRANCH   4   7
ATOM      7  C   UNL     1       2.118   7.476  19.263  0.00  0.00    +0.000 C 
ATOM      8  O   UNL     1       1.673   8.401  18.588  0.00  0.00    +0.000 OA
ATOM      9  N   UNL     1       1.716   7.228  20.553  0.00  0.00    +0.000 N 
ATOM     10  H   UNL     1       2.129   6.454  21.064  0.00  0.00    +0.000 HD
BRANCH   9  11
ATOM     11  C   UNL     1       0.774   8.085  21.249  0.00  0.00    +0.000 C 
BRANCH  11  12
ATOM     12  C   UNL     1       1.464   9.081  22.200  0.00  0.00    +0.000 C 
BRANCH  12  13
ATOM     13  N   UNL     1       0.817  10.410  22.330  0.00  0.00    +0.000 NA
ATOM     14  C   UNL     1       0.836  11.157  21.063  0.00  0.00    +0.000 C 
ATOM     15  C   UNL     1       0.176  12.529  21.217  0.00  0.00    +0.000 C 
ATOM     16  C   UNL     1      -1.255  12.398  21.718  0.00  0.00    +0.000 C 
ATOM     17  C   UNL     1      -1.288  11.565  22.992  0.00  0.00    +0.000 C 
ATOM     18  C   UNL     1      -0.571  10.227  22.802  0.00  0.00    +0.000 C 
ENDBRANCH  12  13
ENDBRANCH  11  12
ENDBRANCH   9  11
ENDBRANCH   4   7
BRANCH   1  19
ATOM     19  O   UNL     1       5.955   4.230  16.667  0.00  0.00    +0.000 OA
BRANCH  19  21
ATOM     20  C   UNL     1       7.804   4.734  18.102  0.00  0.00    +0.000 C 
ATOM     21  C   UNL     1       7.278   4.767  16.681  0.00  0.00    +0.000 C 
ENDBRANCH  19  21
ENDBRANCH   1  19
BRANCH   5  22
ATOM     22  O   UNL     1       2.584   4.777  20.177  0.00  0.00    +0.000 OA
BRANCH  22  23
ATOM     23  C   UNL     1       2.709   3.401  20.543  0.00  0.00    +0.000 C 
ATOM     24  C   UNL     1       1.412   2.962  21.194  0.00  0.00    +0.000 C 
ENDBRANCH  22  23
ENDBRANCH   5  22
TORSDOF 8
ENDMDL
MODEL 6
REMARK VINA RESULT:      -6.3      2.258      4.065
REMARK  Name = 
REMARK  10 active torsions:
REMARK  status: ('A' for Active; 'I' for Inactive)
REMARK    1  A    between atoms: C_1  and  C_2
REMARK    2  A    between atoms: C_2  and  O_3
REMARK    3  A    between atoms: O_3  and  C_4
REMARK    4  A    between atoms: C_7  and  C_8
REMARK    5  A    between atoms: N_10  and  C_11
REMARK    6  A    between atoms: C_11  and  C_12
REMARK    7  A    between atoms: C_12  and  N_13
REMARK    8  A    between atoms: C_19  and  O_20
REMARK    9  A    between atoms: O_20  and  C_21
REMARK   10  A    between atoms: C_21  and  C_22
REMARK                            x       y       z     vdW  Elec       q    Type
REMARK                         _______ _______ _______ _____ _____    ______ ____
ROOT
ATOM      1  C   UNL     1       3.492   4.025  18.295  0.00  0.00    +0.000 A 
ATOM      2  C   UNL     1       3.862   4.817  19.378  0.00  0.00    +0.000 A 
ATOM      3  C   UNL     1       5.036   5.568  19.321  0.00  0.00    +0.000 A 
ATOM      4  C   UNL     1       5.862   5.527  18.185  0.00  0.00    +0.000 A 
ATOM      5  C   UNL     1       5.488   4.741  17.080  0.00  0.00    +0.000 A 
ATOM      6  C   UNL     1       4.302   3.996  17.154  0.00  0.00    +0.000 A 
ENDROOT
BRANCH   4   7
ATOM      7  C   UNL     1       7.092   6.363  18.237  0.00  0.00    +0.000 C 
ATOM      8  O   UNL     1       8.023   6.020  18.963  0.00  0.00    +0.000 OA
ATOM      9  N   UNL     1       7.147   7.466  17.420  0.00  0.00    +0.000 N 
ATOM     10  H   UNL     1       6.341   7.705  16.850  0.00  0.00    +0.000 HD
BRANCH   9  11
ATOM     11  C   UNL     1       8.292   8.358  17.398  0.00  0.00    +0.000 C 
BRANCH  11  12
ATOM     12  C   UNL     1       8.152   9.532  18.386  0.00  0.00    +0.000 C 
BRANCH  12  13
ATOM     13  N   UNL     1       9.420  10.161  18.831  0.00  0.00    +0.000 NA
ATOM     14  C   UNL     1       9.963  11.079  17.818  0.00  0.00    +0.000 C 
ATOM     15  C   UNL     1      11.277  11.709  18.288  0.00  0.00    +0.000 C 
ATOM     16  C   UNL     1      11.094  12.444  19.608  0.00  0.00    +0.000 C 
ATOM     17  C   UNL     1      10.466  11.517  20.640  0.00  0.00    +0.000 C 
ATOM     18  C   UNL     1       9.185  10.872  20.103  0.00  0.00    +0.000 C 
ENDBRANCH  12  13
ENDBRANCH  11  12
ENDBRANCH   9  11
ENDBRANCH   4   7
BRANCH   1  19
ATOM     19  O   UNL     1       2.322   3.330  18.450  0.00  0.00    +0.000 OA
BRANCH  19  21
ATOM     20  C   UNL     1       1.034   2.898  20.421  0.00  0.00    +0.000 C 
ATOM     21  C   UNL     1       1.356   3.903  19.333  0.00  0.00    +0.000 C 
ENDBRANCH  19  21
ENDBRANCH   1  19
BRANCH   5  22
ATOM     22  O   UNL     1       6.297   4.761  15.971  0.00  0.00    +0.000 OA
BRANCH  22  23
ATOM     23  C   UNL     1       5.665   4.818  14.690  0.00  0.00    +0.000 C 
ATOM     24  C   UNL     1       6.551   4.100  13.691  0.00  0.00    +0.000 C 
ENDBRANCH  22  23
ENDBRANCH   5  22
TORSDOF 8
ENDMDL
MODEL 7
REMARK VINA RESULT:      -6.3      5.153      7.572
REMARK  Name = 
REMARK  10 active torsions:
REMARK  status: ('A' for Active; 'I' for Inactive)
REMARK    1  A    between atoms: C_1  and  C_2
REMARK    2  A    between atoms: C_2  and  O_3
REMARK    3  A    between atoms: O_3  and  C_4
REMARK    4  A    between atoms: C_7  and  C_8
REMARK    5  A    between atoms: N_10  and  C_11
REMARK    6  A    between atoms: C_11  and  C_12
REMARK    7  A    between atoms: C_12  and  N_13
REMARK    8  A    between atoms: C_19  and  O_20
REMARK    9  A    between atoms: O_20  and  C_21
REMARK   10  A    between atoms: C_21  and  C_22
REMARK                            x       y       z     vdW  Elec       q    Type
REMARK                         _______ _______ _______ _____ _____    ______ ____
ROOT
ATOM      1  C   UNL     1       5.383   4.418  16.287  0.00  0.00    +0.000 A 
ATOM      2  C   UNL     1       5.317   5.800  16.137  0.00  0.00    +0.000 A 
ATOM      3  C   UNL     1       4.477   6.549  16.961  0.00  0.00    +0.000 A 
ATOM      4  C   UNL     1       3.683   5.924  17.937  0.00  0.00    +0.000 A 
ATOM      5  C   UNL     1       3.753   4.530  18.105  0.00  0.00    +0.000 A 
ATOM      6  C   UNL     1       4.606   3.793  17.270  0.00  0.00    +0.000 A 
ENDROOT
BRANCH   4   7
ATOM      7  C   UNL     1       2.819   6.821  18.754  0.00  0.00    +0.000 C 
ATOM      8  O   UNL     1       2.475   6.465  19.878  0.00  0.00    +0.000 OA
ATOM      9  N   UNL     1       2.487   8.043  18.220  0.00  0.00    +0.000 N 
ATOM     10  H   UNL     1       2.793   8.277  17.281  0.00  0.00    +0.000 HD
BRANCH   9  11
ATOM     11  C   UNL     1       1.642   8.991  18.923  0.00  0.00    +0.000 C 
BRANCH  11  12
ATOM     12  C   UNL     1       0.803   9.862  17.970  0.00  0.00    +0.000 C 
BRANCH  12  13
ATOM     13  N   UNL     1      -0.570  10.188  18.428  0.00  0.00    +0.000 NA
ATOM     14  C   UNL     1      -0.684  11.585  18.875  0.00  0.00    +0.000 C 
ATOM     15  C   UNL     1      -2.103  11.901  19.355  0.00  0.00    +0.000 C 
ATOM     16  C   UNL     1      -3.128  11.621  18.265  0.00  0.00    +0.000 C 
ATOM     17  C   UNL     1      -2.967  10.197  17.750  0.00  0.00    +0.000 C 
ATOM     18  C   UNL     1      -1.522   9.915  17.332  0.00  0.00    +0.000 C 
ENDBRANCH  12  13
ENDBRANCH  11  12
ENDBRANCH   9  11
ENDBRANCH   4   7
BRANCH   1  19
ATOM     19  O   UNL     1       6.239   3.776  15.432  0.00  0.00    +0.000 OA
BRANCH  19  21
ATOM     20  C   UNL     1       6.022   3.616  13.053  0.00  0.00    +0.000 C 
ATOM     21  C   UNL     1       6.538   4.450  14.209  0.00  0.00    +0.000 C 
ENDBRANCH  19  21
ENDBRANCH   1  19
BRANCH   5  22
ATOM     22  O   UNL     1       2.995   3.960  19.097  0.00  0.00    +0.000 OA
BRANCH  22  23
ATOM     23  C   UNL     1       2.535   2.621  18.895  0.00  0.00    +0.000 C 
ATOM     24  C   UNL     1       1.044   2.666  18.627  0.00  0.00    +0.000 C 
ENDBRANCH  22  23
ENDBRANCH   5  22
TORSDOF 8
ENDMDL
MODEL 8
REMARK VINA RESULT:      -6.2      5.005      8.127
REMARK  Name = 
REMARK  10 active torsions:
REMARK  status: ('A' for Active; 'I' for Inactive)
REMARK    1  A    between atoms: C_1  and  C_2
REMARK    2  A    between atoms: C_2  and  O_3
REMARK    3  A    between atoms: O_3  and  C_4
REMARK    4  A    between atoms: C_7  and  C_8
REMARK    5  A    between atoms: N_10  and  C_11
REMARK    6  A    between atoms: C_11  and  C_12
REMARK    7  A    between atoms: C_12  and  N_13
REMARK    8  A    between atoms: C_19  and  O_20
REMARK    9  A    between atoms: O_20  and  C_21
REMARK   10  A    between atoms: C_21  and  C_22
REMARK                            x       y       z     vdW  Elec       q    Type
REMARK                         _______ _______ _______ _____ _____    ______ ____
ROOT
ATOM      1  C   UNL     1       1.576   7.806  20.334  0.00  0.00    +0.000 A 
ATOM      2  C   UNL     1       2.127   8.232  19.129  0.00  0.00    +0.000 A 
ATOM      3  C   UNL     1       2.838   7.334  18.334  0.00  0.00    +0.000 A 
ATOM      4  C   UNL     1       3.020   6.001  18.739  0.00  0.00    +0.000 A 
ATOM      5  C   UNL     1       2.455   5.558  19.948  0.00  0.00    +0.000 A 
ATOM      6  C   UNL     1       1.739   6.474  20.733  0.00  0.00    +0.000 A 
ENDROOT
BRANCH   4   7
ATOM      7  C   UNL     1       3.802   5.134  17.816  0.00  0.00    +0.000 C 
ATOM      8  O   UNL     1       3.209   4.335  17.094  0.00  0.00    +0.000 OA
ATOM      9  N   UNL     1       5.164   5.309  17.780  0.00  0.00    +0.000 N 
ATOM     10  H   UNL     1       5.598   5.978  18.408  0.00  0.00    +0.000 HD
BRANCH   9  11
ATOM     11  C   UNL     1       6.025   4.511  16.926  0.00  0.00    +0.000 C 
BRANCH  11  12
ATOM     12  C   UNL     1       6.841   5.365  15.938  0.00  0.00    +0.000 C 
BRANCH  12  13
ATOM     13  N   UNL     1       6.568   5.131  14.498  0.00  0.00    +0.000 NA
ATOM     14  C   UNL     1       7.786   5.251  13.681  0.00  0.00    +0.000 C 
ATOM     15  C   UNL     1       7.484   5.018  12.199  0.00  0.00    +0.000 C 
ATOM     16  C   UNL     1       6.844   3.656  11.974  0.00  0.00    +0.000 C 
ATOM     17  C   UNL     1       5.623   3.499  12.871  0.00  0.00    +0.000 C 
ATOM     18  C   UNL     1       5.964   3.793  14.333  0.00  0.00    +0.000 C 
ENDBRANCH  12  13
ENDBRANCH  11  12
ENDBRANCH   9  11
ENDBRANCH   4   7
BRANCH   1  19
ATOM     19  O   UNL     1       0.894   8.763  21.037  0.00  0.00    +0.000 OA
BRANCH  19  21
ATOM     20  C   UNL     1       0.407  11.104  20.915  0.00  0.00    +0.000 C 
ATOM     21  C   UNL     1       0.207   9.748  20.266  0.00  0.00    +0.000 C 
ENDBRANCH  19  21
ENDBRANCH   1  19
BRANCH   5  22
ATOM     22  O   UNL     1       2.616   4.239  20.291  0.00  0.00    +0.000 OA
BRANCH  22  23
ATOM     23  C   UNL     1       1.443   3.426  20.371  0.00  0.00    +0.000 C 
ATOM     24  C   UNL     1       1.660   2.192  19.517  0.00  0.00    +0.000 C 
ENDBRANCH  22  23
ENDBRANCH   5  22
TORSDOF 8
ENDMDL
MODEL 9
REMARK VINA RESULT:      -6.2      4.998      7.019
REMARK  Name = 
REMARK  10 active torsions:
REMARK  status: ('A' for Active; 'I' for Inactive)
REMARK    1  A    between atoms: C_1  and  C_2
REMARK    2  A    between atoms: C_2  and  O_3
REMARK    3  A    between atoms: O_3  and  C_4
REMARK    4  A    between atoms: C_7  and  C_8
REMARK    5  A    between atoms: N_10  and  C_11
REMARK    6  A    between atoms: C_11  and  C_12
REMARK    7  A    between atoms: C_12  and  N_13
REMARK    8  A    between atoms: C_19  and  O_20
REMARK    9  A    between atoms: O_20  and  C_21
REMARK   10  A    between atoms: C_21  and  C_22
REMARK                            x       y       z     vdW  Elec       q    Type
REMARK                         _______ _______ _______ _____ _____    ______ ____
ROOT
ATOM      1  C   UNL     1       5.117   4.732  16.795  0.00  0.00    +0.000 A 
ATOM      2  C   UNL     1       5.440   6.079  16.930  0.00  0.00    +0.000 A 
ATOM      3  C   UNL     1       4.518   6.961  17.492  0.00  0.00    +0.000 A 
ATOM      4  C   UNL     1       3.256   6.511  17.914  0.00  0.00    +0.000 A 
ATOM      5  C   UNL     1       2.927   5.149  17.794  0.00  0.00    +0.000 A 
ATOM      6  C   UNL     1       3.868   4.275  17.230  0.00  0.00    +0.000 A 
ENDROOT
BRANCH   4   7
ATOM      7  C   UNL     1       2.350   7.541  18.492  0.00  0.00    +0.000 C 
ATOM      8  O   UNL     1       2.140   7.547  19.703  0.00  0.00    +0.000 OA
ATOM      9  N   UNL     1       1.826   8.479  17.636  0.00  0.00    +0.000 N 
ATOM     10  H   UNL     1       2.026   8.416  16.643  0.00  0.00    +0.000 HD
BRANCH   9  11
ATOM     11  C   UNL     1       0.922   9.521  18.089  0.00  0.00    +0.000 C 
BRANCH  11  12
ATOM     12  C   UNL     1       1.662  10.791  18.550  0.00  0.00    +0.000 C 
BRANCH  12  13
ATOM     13  N   UNL     1       0.875  11.733  19.385  0.00  0.00    +0.000 NA
ATOM     14  C   UNL     1      -0.374  12.142  18.723  0.00  0.00    +0.000 C 
ATOM     15  C   UNL     1      -1.167  13.122  19.591  0.00  0.00    +0.000 C 
ATOM     16  C   UNL     1      -1.477  12.523  20.955  0.00  0.00    +0.000 C 
ATOM     17  C   UNL     1      -0.194  12.034  21.614  0.00  0.00    +0.000 C 
ATOM     18  C   UNL     1       0.587  11.100  20.687  0.00  0.00    +0.000 C 
ENDBRANCH  12  13
ENDBRANCH  11  12
ENDBRANCH   9  11
ENDBRANCH   4   7
BRANCH   1  19
ATOM     19  O   UNL     1       6.092   3.950  16.234  0.00  0.00    +0.000 OA
BRANCH  19  21
ATOM     20  C   UNL     1       6.064   3.995  13.841  0.00  0.00    +0.000 C 
ATOM     21  C   UNL     1       6.760   4.489  15.093  0.00  0.00    +0.000 C 
ENDBRANCH  19  21
ENDBRANCH   1  19
BRANCH   5  22
ATOM     22  O   UNL     1       1.701   4.737  18.257  0.00  0.00    +0.000 OA
BRANCH  22  23
ATOM     23  C   UNL     1       1.486   3.332  18.405  0.00  0.00    +0.000 C 
ATOM     24  C   UNL     1       1.042   3.067  19.831  0.00  0.00    +0.000 C 
ENDBRANCH  22  23
ENDBRANCH   5  22
TORSDOF 8
ENDMDL
