MODEL 1
REMARK VINA RESULT:      -7.5      0.000      0.000
REMARK  Name = 
REMARK  12 active torsions:
REMARK  status: ('A' for Active; 'I' for Inactive)
REMARK    1  A    between atoms: C_1  and  O_2
REMARK    2  A    between atoms: O_2  and  C_3
REMARK    3  A    between atoms: C_6  and  C_7
REMARK    4  A    between atoms: C_7  and  C_8
REMARK    5  A    between atoms: C_8  and  N_9
REMARK    6  A    between atoms: C_16  and  O_17
REMARK    7  A    between atoms: O_17  and  C_18
REMARK    8  A    between atoms: C_20  and  C_21
REMARK    9  A    between atoms: C_21  and  O_22
REMARK   10  A    between atoms: C_23  and  O_24
REMARK   11  A    between atoms: C_25  and  O_26
REMARK   12  A    between atoms: C_27  and  O_28
REMARK                            x       y       z     vdW  Elec       q    Type
REMARK                         _______ _______ _______ _____ _____    ______ ____
ROOT
ATOM      1  N   UNL     1       5.152   6.165  17.771  0.00  0.00    +0.000 N 
ATOM      2  N   UNL     1       6.145   7.112  17.696  0.00  0.00    +0.000 NA
ATOM      3  N   UNL     1       6.922   6.882  16.681  0.00  0.00    +0.000 NA
ATOM      4  C   UNL     1       6.460   5.766  16.074  0.00  0.00    +0.000 A 
ATOM      5  C   UNL     1       7.046   5.188  14.947  0.00  0.00    +0.000 A 
ATOM      6  C   UNL     1       6.538   4.027  14.407  0.00  0.00    +0.000 A 
ATOM      7  C   UNL     1       5.409   3.467  14.973  0.00  0.00    +0.000 A 
ATOM      8  C   UNL     1       4.734   4.044  16.089  0.00  0.00    +0.000 A 
ATOM      9  C   UNL     1       5.314   5.227  16.719  0.00  0.00    +0.000 A 
ENDROOT
BRANCH   1  10
ATOM     10  C   UNL     1       4.410   6.454  18.995  0.00  0.00    +0.000 C 
BRANCH  10  11
ATOM     11  C   UNL     1       2.928   6.647  19.438  0.00  0.00    +0.000 C 
BRANCH  11  15
ATOM     12  C   UNL     1       0.071   9.922  19.150  0.00  0.00    +0.000 A 
ATOM     13  C   UNL     1       0.880   9.639  18.054  0.00  0.00    +0.000 A 
ATOM     14  C   UNL     1       1.915   8.679  18.149  0.00  0.00    +0.000 A 
ATOM     15  C   UNL     1       2.135   7.964  19.333  0.00  0.00    +0.000 A 
ATOM     16  C   UNL     1       1.461   8.426  20.478  0.00  0.00    +0.000 A 
ATOM     17  C   UNL     1       0.434   9.382  20.384  0.00  0.00    +0.000 A 
BRANCH  12  19
ATOM     18  C   UNL     1      -2.009  10.441  18.051  0.00  0.00    +0.000 C 
ATOM     19  O   UNL     1      -1.101  10.628  19.138  0.00  0.00    +0.000 OA
ENDBRANCH  12  19
ENDBRANCH  11  15
ENDBRANCH  10  11
ENDBRANCH   1  10
BRANCH   8  20
ATOM     20  O   UNL     1       3.625   3.252  16.461  0.00  0.00    +0.000 OA
BRANCH  20  21
ATOM     21  C   UNL     1       3.242   3.137  17.869  0.00  0.00    +0.000 C 
ATOM     22  O   UNL     1       3.932   2.184  18.741  0.00  0.00    +0.000 OA
ATOM     23  C   UNL     1       3.721   2.563  20.141  0.00  0.00    +0.000 C 
ATOM     24  C   UNL     1       2.243   2.530  20.541  0.00  0.00    +0.000 C 
ATOM     25  C   UNL     1       1.354   3.179  19.515  0.00  0.00    +0.000 C 
ATOM     26  C   UNL     1       1.753   2.978  18.079  0.00  0.00    +0.000 C 
BRANCH  24  27
ATOM     27  O   UNL     1       2.095   3.241  21.787  0.00  0.00    +0.000 OA
ATOM     28  H   UNL     1       2.496   2.738  22.523  0.00  0.00    +0.000 HD
ENDBRANCH  24  27
BRANCH  25  29
ATOM     29  O   UNL     1      -0.008   2.760  19.647  0.00  0.00    +0.000 OA
ATOM     30  H   UNL     1      -0.447   2.906  18.790  0.00  0.00    +0.000 HD
ENDBRANCH  25  29
BRANCH  26  31
ATOM     31  O   UNL     1       1.102   4.051  17.403  0.00  0.00    +0.000 OA
ATOM     32  H   UNL     1       1.819   4.435  16.873  0.00  0.00    +0.000 HD
ENDBRANCH  26  31
BRANCH  23  33
ATOM     33  C   UNL     1       4.464   1.701  21.190  0.00  0.00    +0.000 C 
BRANCH  33  34
ATOM     34  O   UNL     1       5.573   0.998  20.634  0.00  0.00    +0.000 OA
ATOM     35  H   UNL     1       5.457   0.986  19.670  0.00  0.00    +0.000 HD
ENDBRANCH  33  34
ENDBRANCH  23  33
ENDBRANCH  20  21
ENDBRANCH   8  20
TORSDOF 11
ENDMDL
MODEL 2
REMARK VINA RESULT:      -7.5      3.046      6.921
REMARK  Name = 
REMARK  12 active torsions:
REMARK  status: ('A' for Active; 'I' for Inactive)
REMARK    1  A    between atoms: C_1  and  O_2
REMARK    2  A    between atoms: O_2  and  C_3
REMARK    3  A    between atoms: C_6  and  C_7
REMARK    4  A    between atoms: C_7  and  C_8
REMARK    5  A    between atoms: C_8  and  N_9
REMARK    6  A    between atoms: C_16  and  O_17
REMARK    7  A    between atoms: O_17  and  C_18
REMARK    8  A    between atoms: C_20  and  C_21
REMARK    9  A    between atoms: C_21  and  O_22
REMARK   10  A    between atoms: C_23  and  O_24
REMARK   11  A    between atoms: C_25  and  O_26
REMARK   12  A    between atoms: C_27  and  O_28
REMARK                            x       y       z     vdW  Elec       q    Type
REMARK                         _______ _______ _______ _____ _____    ______ ____
ROOT
ATOM      1  N   UNL     1       3.229   3.591  17.281  0.00  0.00    +0.000 N 
ATOM      2  N   UNL     1       2.801   2.319  16.985  0.00  0.00    +0.000 NA
ATOM      3  N   UNL     1       1.974   1.891  17.890  0.00  0.00    +0.000 NA
ATOM      4  C   UNL     1       1.852   2.873  18.811  0.00  0.00    +0.000 A 
ATOM      5  C   UNL     1       1.057   2.780  19.954  0.00  0.00    +0.000 A 
ATOM      6  C   UNL     1       1.014   3.811  20.866  0.00  0.00    +0.000 A 
ATOM      7  C   UNL     1       1.737   4.960  20.610  0.00  0.00    +0.000 A 
ATOM      8  C   UNL     1       2.520   5.135  19.431  0.00  0.00    +0.000 A 
ATOM      9  C   UNL     1       2.639   4.015  18.499  0.00  0.00    +0.000 A 
ENDROOT
BRANCH   1  10
ATOM     10  C   UNL     1       4.225   3.929  16.269  0.00  0.00    +0.000 C 
BRANCH  10  11
ATOM     11  C   UNL     1       5.687   4.465  16.211  0.00  0.00    +0.000 C 
BRANCH  11  15
ATOM     12  C   UNL     1       7.953   7.437  18.447  0.00  0.00    +0.000 A 
ATOM     13  C   UNL     1       7.903   6.132  18.925  0.00  0.00    +0.000 A 
ATOM     14  C   UNL     1       7.069   5.168  18.311  0.00  0.00    +0.000 A 
ATOM     15  C   UNL     1       6.296   5.489  17.188  0.00  0.00    +0.000 A 
ATOM     16  C   UNL     1       6.192   6.855  16.868  0.00  0.00    +0.000 A 
ATOM     17  C   UNL     1       7.019   7.813  17.482  0.00  0.00    +0.000 A 
BRANCH  12  19
ATOM     18  C   UNL     1       8.662   9.737  18.345  0.00  0.00    +0.000 C 
ATOM     19  O   UNL     1       8.877   8.392  18.776  0.00  0.00    +0.000 OA
ENDBRANCH  12  19
ENDBRANCH  11  15
ENDBRANCH  10  11
ENDBRANCH   1  10
BRANCH   8  20
ATOM     20  O   UNL     1       3.157   6.395  19.441  0.00  0.00    +0.000 OA
BRANCH  20  21
ATOM     21  C   UNL     1       2.382   7.609  19.703  0.00  0.00    +0.000 C 
ATOM     22  O   UNL     1       1.366   7.619  20.758  0.00  0.00    +0.000 OA
ATOM     23  C   UNL     1       1.072   9.003  21.140  0.00  0.00    +0.000 C 
ATOM     24  C   UNL     1       0.504   9.823  19.978  0.00  0.00    +0.000 C 
ATOM     25  C   UNL     1       1.265   9.614  18.698  0.00  0.00    +0.000 C 
ATOM     26  C   UNL     1       1.778   8.221  18.458  0.00  0.00    +0.000 C 
BRANCH  24  27
ATOM     27  O   UNL     1       0.579  11.220  20.330  0.00  0.00    +0.000 OA
ATOM     28  H   UNL     1      -0.298  11.558  20.599  0.00  0.00    +0.000 HD
ENDBRANCH  24  27
BRANCH  25  29
ATOM     29  O   UNL     1       0.498   9.994  17.551  0.00  0.00    +0.000 OA
ATOM     30  H   UNL     1      -0.437   9.801  17.742  0.00  0.00    +0.000 HD
ENDBRANCH  25  29
BRANCH  26  31
ATOM     31  O   UNL     1       2.829   8.414  17.515  0.00  0.00    +0.000 OA
ATOM     32  H   UNL     1       3.595   8.597  18.083  0.00  0.00    +0.000 HD
ENDBRANCH  26  31
BRANCH  23  33
ATOM     33  C   UNL     1       0.076   9.179  22.311  0.00  0.00    +0.000 C 
BRANCH  33  34
ATOM     34  O   UNL     1       0.701   9.688  23.488  0.00  0.00    +0.000 OA
ATOM     35  H   UNL     1       0.210   9.339  24.251  0.00  0.00    +0.000 HD
ENDBRANCH  33  34
ENDBRANCH  23  33
ENDBRANCH  20  21
ENDBRANCH   8  20
TORSDOF 11
ENDMDL
MODEL 3
REMARK VINA RESULT:      -7.5      0.824      1.239
REMARK  Name = 
REMARK  12 active torsions:
REMARK  status: ('A' for Active; 'I' for Inactive)
REMARK    1  A    between atoms: C_1  and  O_2
REMARK    2  A    between atoms: O_2  and  C_3
REMARK    3  A    between atoms: C_6  and  C_7
REMARK    4  A    between atoms: C_7  and  C_8
REMARK    5  A    between atoms: C_8  and  N_9
REMARK    6  A    between atoms: C_16  and  O_17
REMARK    7  A    between atoms: O_17  and  C_18
REMARK    8  A    between atoms: C_20  and  C_21
REMARK    9  A    between atoms: C_21  and  O_22
REMARK   10  A    between atoms: C_23  and  O_24
REMARK   11  A    between atoms: C_25  and  O_26
REMARK   12  A    between atoms: C_27  and  O_28
REMARK                            x       y       z     vdW  Elec       q    Type
REMARK                         _______ _______ _______ _____ _____    ______ ____
ROOT
ATOM      1  N   UNL     1       5.672   5.899  17.733  0.00  0.00    +0.000 N 
ATOM      2  N   UNL     1       6.811   6.670  17.737  0.00  0.00    +0.000 NA
ATOM      3  N   UNL     1       7.482   6.499  16.637  0.00  0.00    +0.000 NA
ATOM      4  C   UNL     1       6.801   5.600  15.894  0.00  0.00    +0.000 A 
ATOM      5  C   UNL     1       7.217   5.144  14.642  0.00  0.00    +0.000 A 
ATOM      6  C   UNL     1       6.487   4.197  13.960  0.00  0.00    +0.000 A 
ATOM      7  C   UNL     1       5.309   3.736  14.514  0.00  0.00    +0.000 A 
ATOM      8  C   UNL     1       4.804   4.207  15.761  0.00  0.00    +0.000 A 
ATOM      9  C   UNL     1       5.613   5.149  16.531  0.00  0.00    +0.000 A 
ENDROOT
BRANCH   1  10
ATOM     10  C   UNL     1       5.057   6.083  19.045  0.00  0.00    +0.000 C 
BRANCH  10  11
ATOM     11  C   UNL     1       3.657   5.906  19.706  0.00  0.00    +0.000 C 
BRANCH  11  15
ATOM     12  C   UNL     1       1.018   9.371  19.739  0.00  0.00    +0.000 A 
ATOM     13  C   UNL     1       0.965   8.478  20.803  0.00  0.00    +0.000 A 
ATOM     14  C   UNL     1       1.700   7.269  20.770  0.00  0.00    +0.000 A 
ATOM     15  C   UNL     1       2.526   6.952  19.683  0.00  0.00    +0.000 A 
ATOM     16  C   UNL     1       2.386   7.753  18.536  0.00  0.00    +0.000 A 
ATOM     17  C   UNL     1       1.651   8.953  18.568  0.00  0.00    +0.000 A 
BRANCH  12  19
ATOM     18  C   UNL     1      -0.158  11.138  18.599  0.00  0.00    +0.000 C 
ATOM     19  O   UNL     1       0.568  10.664  19.735  0.00  0.00    +0.000 OA
ENDBRANCH  12  19
ENDBRANCH  11  15
ENDBRANCH  10  11
ENDBRANCH   1  10
BRANCH   8  20
ATOM     20  O   UNL     1       3.594   3.554  16.085  0.00  0.00    +0.000 OA
BRANCH  20  21
ATOM     21  C   UNL     1       3.304   3.188  17.472  0.00  0.00    +0.000 C 
ATOM     22  O   UNL     1       4.000   2.059  18.095  0.00  0.00    +0.000 OA
ATOM     23  C   UNL     1       3.907   2.173  19.553  0.00  0.00    +0.000 C 
ATOM     24  C   UNL     1       2.461   2.124  20.053  0.00  0.00    +0.000 C 
ATOM     25  C   UNL     1       1.539   2.992  19.240  0.00  0.00    +0.000 C 
ATOM     26  C   UNL     1       1.826   3.052  17.765  0.00  0.00    +0.000 C 
BRANCH  24  27
ATOM     27  O   UNL     1       2.437   2.590  21.419  0.00  0.00    +0.000 OA
ATOM     28  H   UNL     1       3.199   3.174  21.599  0.00  0.00    +0.000 HD
ENDBRANCH  24  27
BRANCH  25  29
ATOM     29  O   UNL     1       0.168   2.610  19.397  0.00  0.00    +0.000 OA
ATOM     30  H   UNL     1      -0.379   3.278  18.946  0.00  0.00    +0.000 HD
ENDBRANCH  25  29
BRANCH  26  31
ATOM     31  O   UNL     1       1.189   4.259  17.354  0.00  0.00    +0.000 OA
ATOM     32  H   UNL     1       1.527   4.381  16.452  0.00  0.00    +0.000 HD
ENDBRANCH  26  31
BRANCH  23  33
ATOM     33  C   UNL     1       4.672   1.098  20.361  0.00  0.00    +0.000 C 
BRANCH  33  34
ATOM     34  O   UNL     1       5.322   1.637  21.511  0.00  0.00    +0.000 OA
ATOM     35  H   UNL     1       5.785   0.906  21.953  0.00  0.00    +0.000 HD
ENDBRANCH  33  34
ENDBRANCH  23  33
ENDBRANCH  20  21
ENDBRANCH   8  20
TORSDOF 11
ENDMDL
MODEL 4
REMARK VINA RESULT:      -7.5      1.167      1.670
REMARK  Name = 
REMARK  12 active torsions:
REMARK  status: ('A' for Active; 'I' for Inactive)
REMARK    1  A    between atoms: C_1  and  O_2
REMARK    2  A    between atoms: O_2  and  C_3
REMARK    3  A    between atoms: C_6  and  C_7
REMARK    4  A    between atoms: C_7  and  C_8
REMARK    5  A    between atoms: C_8  and  N_9
REMARK    6  A    between atoms: C_16  and  O_17
REMARK    7  A    between atoms: O_17  and  C_18
REMARK    8  A    between atoms: C_20  and  C_21
REMARK    9  A    between atoms: C_21  and  O_22
REMARK   10  A    between atoms: C_23  and  O_24
REMARK   11  A    between atoms: C_25  and  O_26
REMARK   12  A    between atoms: C_27  and  O_28
REMARK                            x       y       z     vdW  Elec       q    Type
REMARK                         _______ _______ _______ _____ _____    ______ ____
ROOT
ATOM      1  N   UNL     1       4.515   6.717  17.397  0.00  0.00    +0.000 N 
ATOM      2  N   UNL     1       5.444   7.725  17.289  0.00  0.00    +0.000 NA
ATOM      3  N   UNL     1       6.457   7.340  16.573  0.00  0.00    +0.000 NA
ATOM      4  C   UNL     1       6.218   6.061  16.206  0.00  0.00    +0.000 A 
ATOM      5  C   UNL     1       7.092   5.292  15.436  0.00  0.00    +0.000 A 
ATOM      6  C   UNL     1       6.796   3.981  15.134  0.00  0.00    +0.000 A 
ATOM      7  C   UNL     1       5.596   3.452  15.567  0.00  0.00    +0.000 A 
ATOM      8  C   UNL     1       4.638   4.207  16.306  0.00  0.00    +0.000 A 
ATOM      9  C   UNL     1       4.980   5.571  16.703  0.00  0.00    +0.000 A 
ENDROOT
BRANCH   1  10
ATOM     10  C   UNL     1       3.482   7.214  18.301  0.00  0.00    +0.000 C 
BRANCH  10  11
ATOM     11  C   UNL     1       2.335   8.269  18.286  0.00  0.00    +0.000 C 
BRANCH  11  15
ATOM     12  C   UNL     1       0.381   9.904  21.818  0.00  0.00    +0.000 A 
ATOM     13  C   UNL     1       0.984   8.654  21.903  0.00  0.00    +0.000 A 
ATOM     14  C   UNL     1       1.507   8.023  20.750  0.00  0.00    +0.000 A 
ATOM     15  C   UNL     1       1.464   8.651  19.498  0.00  0.00    +0.000 A 
ATOM     16  C   UNL     1       0.656   9.798  19.400  0.00  0.00    +0.000 A 
ATOM     17  C   UNL     1       0.133  10.422  20.547  0.00  0.00    +0.000 A 
BRANCH  12  19
ATOM     18  C   UNL     1      -1.132  11.512  22.782  0.00  0.00    +0.000 C 
ATOM     19  O   UNL     1       0.059  10.727  22.863  0.00  0.00    +0.000 OA
ENDBRANCH  12  19
ENDBRANCH  11  15
ENDBRANCH  10  11
ENDBRANCH   1  10
BRANCH   8  20
ATOM     20  O   UNL     1       3.517   3.409  16.624  0.00  0.00    +0.000 OA
BRANCH  20  21
ATOM     21  C   UNL     1       3.134   3.202  18.021  0.00  0.00    +0.000 C 
ATOM     22  O   UNL     1       3.871   2.247  18.851  0.00  0.00    +0.000 OA
ATOM     23  C   UNL     1       3.632   2.543  20.266  0.00  0.00    +0.000 C 
ATOM     24  C   UNL     1       2.156   2.408  20.652  0.00  0.00    +0.000 C 
ATOM     25  C   UNL     1       1.237   3.057  19.652  0.00  0.00    +0.000 C 
ATOM     26  C   UNL     1       1.654   2.950  18.212  0.00  0.00    +0.000 C 
BRANCH  24  27
ATOM     27  O   UNL     1       1.960   3.046  21.930  0.00  0.00    +0.000 OA
ATOM     28  H   UNL     1       1.453   3.875  21.830  0.00  0.00    +0.000 HD
ENDBRANCH  24  27
BRANCH  25  29
ATOM     29  O   UNL     1      -0.100   2.556  19.752  0.00  0.00    +0.000 OA
ATOM     30  H   UNL     1      -0.566   2.787  18.928  0.00  0.00    +0.000 HD
ENDBRANCH  25  29
BRANCH  26  31
ATOM     31  O   UNL     1       0.947   4.017  17.584  0.00  0.00    +0.000 OA
ATOM     32  H   UNL     1       1.382   4.080  16.718  0.00  0.00    +0.000 HD
ENDBRANCH  26  31
BRANCH  23  33
ATOM     33  C   UNL     1       4.416   1.673  21.277  0.00  0.00    +0.000 C 
BRANCH  33  34
ATOM     34  O   UNL     1       5.543   1.029  20.687  0.00  0.00    +0.000 OA
ATOM     35  H   UNL     1       5.325   0.858  19.756  0.00  0.00    +0.000 HD
ENDBRANCH  33  34
ENDBRANCH  23  33
ENDBRANCH  20  21
ENDBRANCH   8  20
TORSDOF 11
ENDMDL
MODEL 5
REMARK VINA RESULT:      -7.4      3.440      9.876
REMARK  Name = 
REMARK  12 active torsions:
REMARK  status: ('A' for Active; 'I' for Inactive)
REMARK    1  A    between atoms: C_1  and  O_2
REMARK    2  A    between atoms: O_2  and  C_3
REMARK    3  A    between atoms: C_6  and  C_7
REMARK    4  A    between atoms: C_7  and  C_8
REMARK    5  A    between atoms: C_8  and  N_9
REMARK    6  A    between atoms: C_16  and  O_17
REMARK    7  A    between atoms: O_17  and  C_18
REMARK    8  A    between atoms: C_20  and  C_21
REMARK    9  A    between atoms: C_21  and  O_22
REMARK   10  A    between atoms: C_23  and  O_24
REMARK   11  A    between atoms: C_25  and  O_26
REMARK   12  A    between atoms: C_27  and  O_28
REMARK                            x       y       z     vdW  Elec       q    Type
REMARK                         _______ _______ _______ _____ _____    ______ ____
ROOT
ATOM      1  N   UNL     1       0.638   9.512  19.967  0.00  0.00    +0.000 N 
ATOM      2  N   UNL     1       1.191   8.697  20.927  0.00  0.00    +0.000 NA
ATOM      3  N   UNL     1       0.749   9.016  22.107  0.00  0.00    +0.000 NA
ATOM      4  C   UNL     1      -0.095  10.058  21.945  0.00  0.00    +0.000 A 
ATOM      5  C   UNL     1      -0.761  10.696  22.993  0.00  0.00    +0.000 A 
ATOM      6  C   UNL     1      -1.578  11.778  22.752  0.00  0.00    +0.000 A 
ATOM      7  C   UNL     1      -1.765  12.196  21.449  0.00  0.00    +0.000 A 
ATOM      8  C   UNL     1      -1.157  11.549  20.333  0.00  0.00    +0.000 A 
ATOM      9  C   UNL     1      -0.223  10.453  20.586  0.00  0.00    +0.000 A 
ENDROOT
BRANCH   1  10
ATOM     10  C   UNL     1       1.278   9.143  18.707  0.00  0.00    +0.000 C 
BRANCH  10  11
ATOM     11  C   UNL     1       2.566   8.404  18.231  0.00  0.00    +0.000 C 
BRANCH  11  15
ATOM     12  C   UNL     1       2.921   4.080  17.857  0.00  0.00    +0.000 A 
ATOM     13  C   UNL     1       2.059   4.602  18.816  0.00  0.00    +0.000 A 
ATOM     14  C   UNL     1       2.015   5.994  19.068  0.00  0.00    +0.000 A 
ATOM     15  C   UNL     1       2.811   6.887  18.339  0.00  0.00    +0.000 A 
ATOM     16  C   UNL     1       3.825   6.320  17.547  0.00  0.00    +0.000 A 
ATOM     17  C   UNL     1       3.870   4.936  17.300  0.00  0.00    +0.000 A 
BRANCH  12  19
ATOM     18  C   UNL     1       3.475   1.748  18.099  0.00  0.00    +0.000 C 
ATOM     19  O   UNL     1       2.896   2.812  17.341  0.00  0.00    +0.000 OA
ENDBRANCH  12  19
ENDBRANCH  11  15
ENDBRANCH  10  11
ENDBRANCH   1  10
BRANCH   8  20
ATOM     20  O   UNL     1      -1.512  12.197  19.130  0.00  0.00    +0.000 OA
BRANCH  20  21
ATOM     21  C   UNL     1      -2.872  12.075  18.602  0.00  0.00    +0.000 C 
ATOM     22  O   UNL     1      -3.960  11.624  19.473  0.00  0.00    +0.000 OA
ATOM     23  C   UNL     1      -5.246  12.019  18.891  0.00  0.00    +0.000 C 
ATOM     24  C   UNL     1      -5.490  11.380  17.521  0.00  0.00    +0.000 C 
ATOM     25  C   UNL     1      -4.283  11.456  16.626  0.00  0.00    +0.000 C 
ATOM     26  C   UNL     1      -2.951  11.299  17.306  0.00  0.00    +0.000 C 
BRANCH  24  27
ATOM     27  O   UNL     1      -6.576  12.081  16.880  0.00  0.00    +0.000 OA
ATOM     28  H   UNL     1      -6.311  12.993  16.649  0.00  0.00    +0.000 HD
ENDBRANCH  24  27
BRANCH  25  29
ATOM     29  O   UNL     1      -4.341  10.495  15.567  0.00  0.00    +0.000 OA
ATOM     30  H   UNL     1      -5.277  10.267  15.424  0.00  0.00    +0.000 HD
ENDBRANCH  25  29
BRANCH  26  31
ATOM     31  O   UNL     1      -2.039  11.894  16.387  0.00  0.00    +0.000 OA
ATOM     32  H   UNL     1      -2.597  12.535  15.918  0.00  0.00    +0.000 HD
ENDBRANCH  26  31
BRANCH  23  33
ATOM     33  C   UNL     1      -6.497  11.691  19.741  0.00  0.00    +0.000 C 
BRANCH  33  34
ATOM     34  O   UNL     1      -7.271  10.628  19.189  0.00  0.00    +0.000 OA
ATOM     35  H   UNL     1      -6.949  10.474  18.285  0.00  0.00    +0.000 HD
ENDBRANCH  33  34
ENDBRANCH  23  33
ENDBRANCH  20  21
ENDBRANCH   8  20
TORSDOF 11
ENDMDL
MODEL 6
REMARK VINA RESULT:      -7.3      2.877      7.753
REMARK  Name = 
REMARK  12 active torsions:
REMARK  status: ('A' for Active; 'I' for Inactive)
REMARK    1  A    between atoms: C_1  and  O_2
REMARK    2  A    between atoms: O_2  and  C_3
REMARK    3  A    between atoms: C_6  and  C_7
REMARK    4  A    between atoms: C_7  and  C_8
REMARK    5  A    between atoms: C_8  and  N_9
REMARK    6  A    between atoms: C_16  and  O_17
REMARK    7  A    between atoms: O_17  and  C_18
REMARK    8  A    between atoms: C_20  and  C_21
REMARK    9  A    between atoms: C_21  and  O_22
REMARK   10  A    between atoms: C_23  and  O_24
REMARK   11  A    between atoms: C_25  and  O_26
REMARK   12  A    between atoms: C_27  and  O_28
REMARK                            x       y       z     vdW  Elec       q    Type
REMARK                         _______ _______ _______ _____ _____    ______ ____
ROOT
ATOM      1  N   UNL     1       5.265   5.297  18.212  0.00  0.00    +0.000 N 
ATOM      2  N   UNL     1       5.859   4.127  18.623  0.00  0.00    +0.000 NA
ATOM      3  N   UNL     1       5.116   3.519  19.497  0.00  0.00    +0.000 NA
ATOM      4  C   UNL     1       4.021   4.287  19.689  0.00  0.00    +0.000 A 
ATOM      5  C   UNL     1       2.989   3.973  20.576  0.00  0.00    +0.000 A 
ATOM      6  C   UNL     1       1.922   4.827  20.744  0.00  0.00    +0.000 A 
ATOM      7  C   UNL     1       1.865   5.981  19.986  0.00  0.00    +0.000 A 
ATOM      8  C   UNL     1       2.859   6.325  19.024  0.00  0.00    +0.000 A 
ATOM      9  C   UNL     1       4.036   5.469  18.899  0.00  0.00    +0.000 A 
ENDROOT
BRANCH   1  10
ATOM     10  C   UNL     1       6.224   5.946  17.323  0.00  0.00    +0.000 C 
BRANCH  10  11
ATOM     11  C   UNL     1       7.172   5.552  16.150  0.00  0.00    +0.000 C 
BRANCH  11  15
ATOM     12  C   UNL     1       5.997   3.427  12.534  0.00  0.00    +0.000 A 
ATOM     13  C   UNL     1       7.168   4.178  12.520  0.00  0.00    +0.000 A 
ATOM     14  C   UNL     1       7.516   4.995  13.622  0.00  0.00    +0.000 A 
ATOM     15  C   UNL     1       6.713   5.045  14.769  0.00  0.00    +0.000 A 
ATOM     16  C   UNL     1       5.437   4.462  14.667  0.00  0.00    +0.000 A 
ATOM     17  C   UNL     1       5.090   3.654  13.569  0.00  0.00    +0.000 A 
BRANCH  12  19
ATOM     18  C   UNL     1       6.700   1.617  11.109  0.00  0.00    +0.000 C 
ATOM     19  O   UNL     1       5.661   2.424  11.665  0.00  0.00    +0.000 OA
ENDBRANCH  12  19
ENDBRANCH  11  15
ENDBRANCH  10  11
ENDBRANCH   1  10
BRANCH   8  20
ATOM     20  O   UNL     1       2.550   7.560  18.412  0.00  0.00    +0.000 OA
BRANCH  20  21
ATOM     21  C   UNL     1       1.867   8.608  19.173  0.00  0.00    +0.000 C 
ATOM     22  O   UNL     1       0.993   8.251  20.293  0.00  0.00    +0.000 OA
ATOM     23  C   UNL     1       0.808   9.419  21.159  0.00  0.00    +0.000 C 
ATOM     24  C   UNL     1       0.133  10.586  20.433  0.00  0.00    +0.000 C 
ATOM     25  C   UNL     1       0.718  10.832  19.069  0.00  0.00    +0.000 C 
ATOM     26  C   UNL     1       1.137   9.608  18.303  0.00  0.00    +0.000 C 
BRANCH  24  27
ATOM     27  O   UNL     1       0.312  11.777  21.226  0.00  0.00    +0.000 OA
ATOM     28  H   UNL     1       1.075  12.297  20.905  0.00  0.00    +0.000 HD
ENDBRANCH  24  27
BRANCH  25  29
ATOM     29  O   UNL     1      -0.171  11.580  18.232  0.00  0.00    +0.000 OA
ATOM     30  H   UNL     1      -1.063  11.203  18.337  0.00  0.00    +0.000 HD
ENDBRANCH  25  29
BRANCH  26  31
ATOM     31  O   UNL     1       2.068  10.116  17.350  0.00  0.00    +0.000 OA
ATOM     32  H   UNL     1       2.719   9.399  17.286  0.00  0.00    +0.000 HD
ENDBRANCH  26  31
BRANCH  23  33
ATOM     33  C   UNL     1      -0.023   9.179  22.442  0.00  0.00    +0.000 C 
BRANCH  33  34
ATOM     34  O   UNL     1       0.493   9.886  23.568  0.00  0.00    +0.000 OA
ATOM     35  H   UNL     1      -0.218  10.457  23.903  0.00  0.00    +0.000 HD
ENDBRANCH  33  34
ENDBRANCH  23  33
ENDBRANCH  20  21
ENDBRANCH   8  20
TORSDOF 11
ENDMDL
MODEL 7
REMARK VINA RESULT:      -7.3      3.275      9.630
REMARK  Name = 
REMARK  12 active torsions:
REMARK  status: ('A' for Active; 'I' for Inactive)
REMARK    1  A    between atoms: C_1  and  O_2
REMARK    2  A    between atoms: O_2  and  C_3
REMARK    3  A    between atoms: C_6  and  C_7
REMARK    4  A    between atoms: C_7  and  C_8
REMARK    5  A    between atoms: C_8  and  N_9
REMARK    6  A    between atoms: C_16  and  O_17
REMARK    7  A    between atoms: O_17  and  C_18
REMARK    8  A    between atoms: C_20  and  C_21
REMARK    9  A    between atoms: C_21  and  O_22
REMARK   10  A    between atoms: C_23  and  O_24
REMARK   11  A    between atoms: C_25  and  O_26
REMARK   12  A    between atoms: C_27  and  O_28
REMARK                            x       y       z     vdW  Elec       q    Type
REMARK                         _______ _______ _______ _____ _____    ______ ____
ROOT
ATOM      1  N   UNL     1       0.850   9.249  19.758  0.00  0.00    +0.000 N 
ATOM      2  N   UNL     1       1.410   8.408  20.691  0.00  0.00    +0.000 NA
ATOM      3  N   UNL     1       0.994   8.707  21.885  0.00  0.00    +0.000 NA
ATOM      4  C   UNL     1       0.159   9.762  21.761  0.00  0.00    +0.000 A 
ATOM      5  C   UNL     1      -0.480  10.385  22.834  0.00  0.00    +0.000 A 
ATOM      6  C   UNL     1      -1.288  11.481  22.631  0.00  0.00    +0.000 A 
ATOM      7  C   UNL     1      -1.493  11.930  21.341  0.00  0.00    +0.000 A 
ATOM      8  C   UNL     1      -0.914  11.299  20.201  0.00  0.00    +0.000 A 
ATOM      9  C   UNL     1       0.011  10.188  20.413  0.00  0.00    +0.000 A 
ENDROOT
BRANCH   1  10
ATOM     10  C   UNL     1       1.462   8.899  18.480  0.00  0.00    +0.000 C 
BRANCH  10  11
ATOM     11  C   UNL     1       2.652   8.039  17.959  0.00  0.00    +0.000 C 
BRANCH  11  15
ATOM     12  C   UNL     1       2.769   3.928  19.392  0.00  0.00    +0.000 A 
ATOM     13  C   UNL     1       3.897   4.726  19.551  0.00  0.00    +0.000 A 
ATOM     14  C   UNL     1       3.954   6.019  18.978  0.00  0.00    +0.000 A 
ATOM     15  C   UNL     1       2.869   6.545  18.266  0.00  0.00    +0.000 A 
ATOM     16  C   UNL     1       1.844   5.643  17.930  0.00  0.00    +0.000 A 
ATOM     17  C   UNL     1       1.789   4.356  18.496  0.00  0.00    +0.000 A 
BRANCH  12  19
ATOM     18  C   UNL     1       1.521   2.836  21.139  0.00  0.00    +0.000 C 
ATOM     19  O   UNL     1       2.478   2.781  20.080  0.00  0.00    +0.000 OA
ENDBRANCH  12  19
ENDBRANCH  11  15
ENDBRANCH  10  11
ENDBRANCH   1  10
BRANCH   8  20
ATOM     20  O   UNL     1      -1.283  11.976  19.018  0.00  0.00    +0.000 OA
BRANCH  20  21
ATOM     21  C   UNL     1      -2.669  11.934  18.548  0.00  0.00    +0.000 C 
ATOM     22  O   UNL     1      -3.741  11.518  19.456  0.00  0.00    +0.000 OA
ATOM     23  C   UNL     1      -5.028  11.988  18.938  0.00  0.00    +0.000 C 
ATOM     24  C   UNL     1      -5.361  11.392  17.567  0.00  0.00    +0.000 C 
ATOM     25  C   UNL     1      -4.191  11.427  16.623  0.00  0.00    +0.000 C 
ATOM     26  C   UNL     1      -2.841  11.190  17.242  0.00  0.00    +0.000 C 
BRANCH  24  27
ATOM     27  O   UNL     1      -6.437  12.159  16.988  0.00  0.00    +0.000 OA
ATOM     28  H   UNL     1      -6.315  12.253  16.023  0.00  0.00    +0.000 HD
ENDBRANCH  24  27
BRANCH  25  29
ATOM     29  O   UNL     1      -4.342  10.493  15.548  0.00  0.00    +0.000 OA
ATOM     30  H   UNL     1      -4.742   9.683  15.913  0.00  0.00    +0.000 HD
ENDBRANCH  25  29
BRANCH  26  31
ATOM     31  O   UNL     1      -1.939  11.759  16.295  0.00  0.00    +0.000 OA
ATOM     32  H   UNL     1      -1.808  12.657  16.640  0.00  0.00    +0.000 HD
ENDBRANCH  26  31
BRANCH  23  33
ATOM     33  C   UNL     1      -6.257  11.705  19.834  0.00  0.00    +0.000 C 
BRANCH  33  34
ATOM     34  O   UNL     1      -7.037  10.607  19.364  0.00  0.00    +0.000 OA
ATOM     35  H   UNL     1      -6.524   9.797  19.524  0.00  0.00    +0.000 HD
ENDBRANCH  33  34
ENDBRANCH  23  33
ENDBRANCH  20  21
ENDBRANCH   8  20
TORSDOF 11
ENDMDL
MODEL 8
REMARK VINA RESULT:      -7.3      2.581      4.961
REMARK  Name = 
REMARK  12 active torsions:
REMARK  status: ('A' for Active; 'I' for Inactive)
REMARK    1  A    between atoms: C_1  and  O_2
REMARK    2  A    between atoms: O_2  and  C_3
REMARK    3  A    between atoms: C_6  and  C_7
REMARK    4  A    between atoms: C_7  and  C_8
REMARK    5  A    between atoms: C_8  and  N_9
REMARK    6  A    between atoms: C_16  and  O_17
REMARK    7  A    between atoms: O_17  and  C_18
REMARK    8  A    between atoms: C_20  and  C_21
REMARK    9  A    between atoms: C_21  and  O_22
REMARK   10  A    between atoms: C_23  and  O_24
REMARK   11  A    between atoms: C_25  and  O_26
REMARK   12  A    between atoms: C_27  and  O_28
REMARK                            x       y       z     vdW  Elec       q    Type
REMARK                         _______ _______ _______ _____ _____    ______ ____
ROOT
ATOM      1  N   UNL     1       2.679   6.161  19.416  0.00  0.00    +0.000 N 
ATOM      2  N   UNL     1       1.842   6.779  20.315  0.00  0.00    +0.000 NA
ATOM      3  N   UNL     1       1.280   5.904  21.094  0.00  0.00    +0.000 NA
ATOM      4  C   UNL     1       1.728   4.688  20.711  0.00  0.00    +0.000 A 
ATOM      5  C   UNL     1       1.335   3.487  21.304  0.00  0.00    +0.000 A 
ATOM      6  C   UNL     1       1.809   2.283  20.833  0.00  0.00    +0.000 A 
ATOM      7  C   UNL     1       2.716   2.283  19.791  0.00  0.00    +0.000 A 
ATOM      8  C   UNL     1       3.198   3.481  19.185  0.00  0.00    +0.000 A 
ATOM      9  C   UNL     1       2.638   4.758  19.621  0.00  0.00    +0.000 A 
ENDROOT
BRANCH   1  10
ATOM     10  C   UNL     1       3.168   7.213  18.530  0.00  0.00    +0.000 C 
BRANCH  10  11
ATOM     11  C   UNL     1       2.588   8.222  17.493  0.00  0.00    +0.000 C 
BRANCH  11  15
ATOM     12  C   UNL     1       0.215  11.474  19.157  0.00  0.00    +0.000 A 
ATOM     13  C   UNL     1      -0.437  10.337  18.691  0.00  0.00    +0.000 A 
ATOM     14  C   UNL     1       0.277   9.318  18.017  0.00  0.00    +0.000 A 
ATOM     15  C   UNL     1       1.662   9.407  17.829  0.00  0.00    +0.000 A 
ATOM     16  C   UNL     1       2.253  10.653  18.104  0.00  0.00    +0.000 A 
ATOM     17  C   UNL     1       1.541  11.668  18.770  0.00  0.00    +0.000 A 
BRANCH  12  19
ATOM     18  C   UNL     1       0.030  12.299  21.412  0.00  0.00    +0.000 C 
ATOM     19  O   UNL     1      -0.288  12.406  20.023  0.00  0.00    +0.000 OA
ENDBRANCH  12  19
ENDBRANCH  11  15
ENDBRANCH  10  11
ENDBRANCH   1  10
BRANCH   8  20
ATOM     20  O   UNL     1       4.100   3.180  18.142  0.00  0.00    +0.000 OA
BRANCH  20  21
ATOM     21  C   UNL     1       5.101   4.164  17.728  0.00  0.00    +0.000 C 
ATOM     22  O   UNL     1       5.813   4.956  18.734  0.00  0.00    +0.000 OA
ATOM     23  C   UNL     1       7.040   5.501  18.147  0.00  0.00    +0.000 C 
ATOM     24  C   UNL     1       6.761   6.439  16.970  0.00  0.00    +0.000 C 
ATOM     25  C   UNL     1       5.738   5.882  16.018  0.00  0.00    +0.000 C 
ATOM     26  C   UNL     1       4.615   5.101  16.644  0.00  0.00    +0.000 C 
BRANCH  24  27
ATOM     27  O   UNL     1       7.993   6.639  16.247  0.00  0.00    +0.000 OA
ATOM     28  H   UNL     1       8.759   6.351  16.781  0.00  0.00    +0.000 HD
ENDBRANCH  24  27
BRANCH  25  29
ATOM     29  O   UNL     1       5.151   6.903  15.205  0.00  0.00    +0.000 OA
ATOM     30  H   UNL     1       5.544   7.754  15.469  0.00  0.00    +0.000 HD
ENDBRANCH  25  29
BRANCH  26  31
ATOM     31  O   UNL     1       4.126   4.305  15.568  0.00  0.00    +0.000 OA
ATOM     32  H   UNL     1       4.872   3.710  15.387  0.00  0.00    +0.000 HD
ENDBRANCH  26  31
BRANCH  23  33
ATOM     33  C   UNL     1       7.953   6.293  19.114  0.00  0.00    +0.000 C 
BRANCH  33  34
ATOM     34  O   UNL     1       8.405   5.502  20.211  0.00  0.00    +0.000 OA
ATOM     35  H   UNL     1       9.356   5.348  20.086  0.00  0.00    +0.000 HD
ENDBRANCH  33  34
ENDBRANCH  23  33
ENDBRANCH  20  21
ENDBRANCH   8  20
TORSDOF 11
ENDMDL
MODEL 9
REMARK VINA RESULT:      -7.3      0.877      1.180
REMARK  Name = 
REMARK  12 active torsions:
REMARK  status: ('A' for Active; 'I' for Inactive)
REMARK    1  A    between atoms: C_1  and  O_2
REMARK    2  A    between atoms: O_2  and  C_3
REMARK    3  A    between atoms: C_6  and  C_7
REMARK    4  A    between atoms: C_7  and  C_8
REMARK    5  A    between atoms: C_8  and  N_9
REMARK    6  A    between atoms: C_16  and  O_17
REMARK    7  A    between atoms: O_17  and  C_18
REMARK    8  A    between atoms: C_20  and  C_21
REMARK    9  A    between atoms: C_21  and  O_22
REMARK   10  A    between atoms: C_23  and  O_24
REMARK   11  A    between atoms: C_25  and  O_26
REMARK   12  A    between atoms: C_27  and  O_28
REMARK                            x       y       z     vdW  Elec       q    Type
REMARK                         _______ _______ _______ _____ _____    ______ ____
ROOT
ATOM      1  N   UNL     1       4.827   6.361  17.654  0.00  0.00    +0.000 N 
ATOM      2  N   UNL     1       5.769   7.356  17.545  0.00  0.00    +0.000 NA
ATOM      3  N   UNL     1       6.621   7.079  16.604  0.00  0.00    +0.000 NA
ATOM      4  C   UNL     1       6.262   5.884  16.085  0.00  0.00    +0.000 A 
ATOM      5  C   UNL     1       6.950   5.239  15.056  0.00  0.00    +0.000 A 
ATOM      6  C   UNL     1       6.544   4.003  14.605  0.00  0.00    +0.000 A 
ATOM      7  C   UNL     1       5.414   3.430  15.156  0.00  0.00    +0.000 A 
ATOM      8  C   UNL     1       4.638   4.067  16.168  0.00  0.00    +0.000 A 
ATOM      9  C   UNL     1       5.109   5.339  16.712  0.00  0.00    +0.000 A 
ENDROOT
BRANCH   1  10
ATOM     10  C   UNL     1       3.993   6.718  18.798  0.00  0.00    +0.000 C 
BRANCH  10  11
ATOM     11  C   UNL     1       2.479   6.887  19.125  0.00  0.00    +0.000 C 
BRANCH  11  15
ATOM     12  C   UNL     1       0.041   9.997  20.955  0.00  0.00    +0.000 A 
ATOM     13  C   UNL     1       0.524  10.195  19.666  0.00  0.00    +0.000 A 
ATOM     14  C   UNL     1       1.432   9.278  19.085  0.00  0.00    +0.000 A 
ATOM     15  C   UNL     1       1.844   8.130  19.775  0.00  0.00    +0.000 A 
ATOM     16  C   UNL     1       1.523   8.074  21.144  0.00  0.00    +0.000 A 
ATOM     17  C   UNL     1       0.624   8.988  21.721  0.00  0.00    +0.000 A 
BRANCH  12  19
ATOM     18  C   UNL     1      -1.034  10.776  22.965  0.00  0.00    +0.000 C 
ATOM     19  O   UNL     1      -1.009  10.651  21.543  0.00  0.00    +0.000 OA
ENDBRANCH  12  19
ENDBRANCH  11  15
ENDBRANCH  10  11
ENDBRANCH   1  10
BRANCH   8  20
ATOM     20  O   UNL     1       3.553   3.248  16.550  0.00  0.00    +0.000 OA
BRANCH  20  21
ATOM     21  C   UNL     1       3.186   3.124  17.962  0.00  0.00    +0.000 C 
ATOM     22  O   UNL     1       3.881   2.161  18.820  0.00  0.00    +0.000 OA
ATOM     23  C   UNL     1       3.688   2.531  20.224  0.00  0.00    +0.000 C 
ATOM     24  C   UNL     1       2.215   2.502  20.641  0.00  0.00    +0.000 C 
ATOM     25  C   UNL     1       1.317   3.164  19.631  0.00  0.00    +0.000 C 
ATOM     26  C   UNL     1       1.698   2.971  18.189  0.00  0.00    +0.000 C 
BRANCH  24  27
ATOM     27  O   UNL     1       2.084   3.205  21.894  0.00  0.00    +0.000 OA
ATOM     28  H   UNL     1       1.159   3.484  22.040  0.00  0.00    +0.000 HD
ENDBRANCH  24  27
BRANCH  25  29
ATOM     29  O   UNL     1      -0.046   2.751  19.775  0.00  0.00    +0.000 OA
ATOM     30  H   UNL     1      -0.602   3.393  19.300  0.00  0.00    +0.000 HD
ENDBRANCH  25  29
BRANCH  26  31
ATOM     31  O   UNL     1       1.045   4.052  17.528  0.00  0.00    +0.000 OA
ATOM     32  H   UNL     1       0.108   3.805  17.590  0.00  0.00    +0.000 HD
ENDBRANCH  26  31
BRANCH  23  33
ATOM     33  C   UNL     1       4.439   1.657  21.258  0.00  0.00    +0.000 C 
BRANCH  33  34
ATOM     34  O   UNL     1       5.597   1.032  20.709  0.00  0.00    +0.000 OA
ATOM     35  H   UNL     1       5.534   1.103  19.742  0.00  0.00    +0.000 HD
ENDBRANCH  33  34
ENDBRANCH  23  33
ENDBRANCH  20  21
ENDBRANCH   8  20
TORSDOF 11
ENDMDL
