MODEL 1
REMARK VINA RESULT:      -7.0      0.000      0.000
REMARK  Name = 
REMARK  8 active torsions:
REMARK  status: ('A' for Active; 'I' for Inactive)
REMARK    1  A    between atoms: C_1  and  O_2
REMARK    2  A    between atoms: O_2  and  C_3
REMARK    3  A    between atoms: C_8  and  C_9
REMARK    4  A    between atoms: C_9  and  N_10
REMARK    5  A    between atoms: C_18  and  C_19
REMARK    6  A    between atoms: C_18  and  O_21
REMARK    7  A    between atoms: C_19  and  O_20
REMARK    8  A    between atoms: O_21  and  C_22
REMARK                            x       y       z     vdW  Elec       q    Type
REMARK                         _______ _______ _______ _____ _____    ______ ____
ROOT
ATOM      1  N   UNL     1       6.500   4.808  16.498  0.00  0.00    +0.000 N 
ATOM      2  N   UNL     1       7.837   4.591  16.530  0.00  0.00    +0.000 NA
ATOM      3  N   UNL     1       8.112   4.259  17.781  0.00  0.00    +0.000 NA
ATOM      4  N   UNL     1       6.990   4.324  18.565  0.00  0.00    +0.000 NA
ATOM      5  C   UNL     1       5.987   4.641  17.771  0.00  0.00    +0.000 A 
ATOM      6  N   UNL     1       4.690   4.887  18.097  0.00  0.00    +0.000 N 
ATOM      7  C   UNL     1       4.378   5.340  19.456  0.00  0.00    +0.000 C 
ATOM      8  C   UNL     1       3.761   4.234  20.307  0.00  0.00    +0.000 C 
ATOM      9  C   UNL     1       2.586   3.536  19.598  0.00  0.00    +0.000 C 
ATOM     10  C   UNL     1       3.087   3.021  18.238  0.00  0.00    +0.000 C 
ATOM     11  C   UNL     1       3.631   4.166  17.392  0.00  0.00    +0.000 C 
ENDROOT
BRANCH   9  12
ATOM     12  O   UNL     1       1.490   4.422  19.280  0.00  0.00    +0.000 OA
ATOM     13  C   UNL     1       1.036   5.305  20.292  0.00  0.00    +0.000 C 
ENDBRANCH   9  12
BRANCH   1  14
ATOM     14  C   UNL     1       5.880   5.438  15.338  0.00  0.00    +0.000 C 
BRANCH  14  20
ATOM     15  C   UNL     1       7.224   4.814  13.229  0.00  0.00    +0.000 A 
ATOM     16  C   UNL     1       7.302   4.106  12.020  0.00  0.00    +0.000 A 
ATOM     17  C   UNL     1       6.307   3.201  11.654  0.00  0.00    +0.000 A 
ATOM     18  C   UNL     1       5.220   2.991  12.489  0.00  0.00    +0.000 A 
ATOM     19  C   UNL     1       5.119   3.711  13.676  0.00  0.00    +0.000 A 
ATOM     20  C   UNL     1       6.088   4.662  14.051  0.00  0.00    +0.000 A 
BRANCH  15  22
ATOM     21  C   UNL     1       9.059   6.199  12.634  0.00  0.00    +0.000 C 
ATOM     22  O   UNL     1       8.214   5.666  13.658  0.00  0.00    +0.000 OA
ENDBRANCH  15  22
ENDBRANCH  14  20
ENDBRANCH   1  14
BRANCH   9  23
ATOM     23  C   UNL     1       2.085   2.342  20.445  0.00  0.00    +0.000 C 
BRANCH  23  24
ATOM     24  O   UNL     1       2.324   2.558  21.835  0.00  0.00    +0.000 OA
ATOM     25  H   UNL     1       3.200   2.172  22.024  0.00  0.00    +0.000 HD
ENDBRANCH  23  24
ENDBRANCH   9  23
TORSDOF 6
ENDMDL
MODEL 2
REMARK VINA RESULT:      -6.8      4.637      7.840
REMARK  Name = 
REMARK  8 active torsions:
REMARK  status: ('A' for Active; 'I' for Inactive)
REMARK    1  A    between atoms: C_1  and  O_2
REMARK    2  A    between atoms: O_2  and  C_3
REMARK    3  A    between atoms: C_8  and  C_9
REMARK    4  A    between atoms: C_9  and  N_10
REMARK    5  A    between atoms: C_18  and  C_19
REMARK    6  A    between atoms: C_18  and  O_21
REMARK    7  A    between atoms: C_19  and  O_20
REMARK    8  A    between atoms: O_21  and  C_22
REMARK                            x       y       z     vdW  Elec       q    Type
REMARK                         _______ _______ _______ _____ _____    ______ ____
ROOT
ATOM      1  N   UNL     1       2.007   8.200  18.960  0.00  0.00    +0.000 N 
ATOM      2  N   UNL     1       1.408   8.360  20.164  0.00  0.00    +0.000 NA
ATOM      3  N   UNL     1       1.677   7.256  20.842  0.00  0.00    +0.000 NA
ATOM      4  N   UNL     1       2.380   6.366  20.074  0.00  0.00    +0.000 NA
ATOM      5  C   UNL     1       2.605   6.954  18.917  0.00  0.00    +0.000 A 
ATOM      6  N   UNL     1       3.205   6.446  17.808  0.00  0.00    +0.000 N 
ATOM      7  C   UNL     1       3.200   4.995  17.605  0.00  0.00    +0.000 C 
ATOM      8  C   UNL     1       4.557   4.365  17.901  0.00  0.00    +0.000 C 
ATOM      9  C   UNL     1       5.710   5.089  17.182  0.00  0.00    +0.000 C 
ATOM     10  C   UNL     1       5.654   6.577  17.571  0.00  0.00    +0.000 C 
ATOM     11  C   UNL     1       4.309   7.186  17.195  0.00  0.00    +0.000 C 
ENDROOT
BRANCH   9  12
ATOM     12  O   UNL     1       5.596   5.076  15.742  0.00  0.00    +0.000 OA
ATOM     13  C   UNL     1       6.754   4.756  14.988  0.00  0.00    +0.000 C 
ENDBRANCH   9  12
BRANCH   1  14
ATOM     14  C   UNL     1       1.712   9.111  17.859  0.00  0.00    +0.000 C 
BRANCH  14  20
ATOM     15  C   UNL     1       0.658  11.290  18.746  0.00  0.00    +0.000 A 
ATOM     16  C   UNL     1      -0.495  12.039  19.028  0.00  0.00    +0.000 A 
ATOM     17  C   UNL     1      -1.756  11.583  18.648  0.00  0.00    +0.000 A 
ATOM     18  C   UNL     1      -1.885  10.373  17.983  0.00  0.00    +0.000 A 
ATOM     19  C   UNL     1      -0.749   9.609  17.726  0.00  0.00    +0.000 A 
ATOM     20  C   UNL     1       0.533  10.025  18.136  0.00  0.00    +0.000 A 
BRANCH  15  22
ATOM     21  C   UNL     1       2.430  12.776  18.208  0.00  0.00    +0.000 C 
ATOM     22  O   UNL     1       1.925  11.732  19.045  0.00  0.00    +0.000 OA
ENDBRANCH  15  22
ENDBRANCH  14  20
ENDBRANCH   1  14
BRANCH   9  23
ATOM     23  C   UNL     1       7.069   4.495  17.619  0.00  0.00    +0.000 C 
BRANCH  23  24
ATOM     24  O   UNL     1       7.459   4.983  18.903  0.00  0.00    +0.000 OA
ATOM     25  H   UNL     1       6.815   4.619  19.539  0.00  0.00    +0.000 HD
ENDBRANCH  23  24
ENDBRANCH   9  23
TORSDOF 6
ENDMDL
MODEL 3
REMARK VINA RESULT:      -6.6      1.355      2.116
REMARK  Name = 
REMARK  8 active torsions:
REMARK  status: ('A' for Active; 'I' for Inactive)
REMARK    1  A    between atoms: C_1  and  O_2
REMARK    2  A    between atoms: O_2  and  C_3
REMARK    3  A    between atoms: C_8  and  C_9
REMARK    4  A    between atoms: C_9  and  N_10
REMARK    5  A    between atoms: C_18  and  C_19
REMARK    6  A    between atoms: C_18  and  O_21
REMARK    7  A    between atoms: C_19  and  O_20
REMARK    8  A    between atoms: O_21  and  C_22
REMARK                            x       y       z     vdW  Elec       q    Type
REMARK                         _______ _______ _______ _____ _____    ______ ____
ROOT
ATOM      1  N   UNL     1       6.350   3.917  16.692  0.00  0.00    +0.000 N 
ATOM      2  N   UNL     1       7.678   4.147  16.830  0.00  0.00    +0.000 NA
ATOM      3  N   UNL     1       7.817   4.720  18.014  0.00  0.00    +0.000 NA
ATOM      4  N   UNL     1       6.600   4.921  18.609  0.00  0.00    +0.000 NA
ATOM      5  C   UNL     1       5.692   4.405  17.805  0.00  0.00    +0.000 A 
ATOM      6  N   UNL     1       4.338   4.421  17.931  0.00  0.00    +0.000 N 
ATOM      7  C   UNL     1       3.715   5.483  18.726  0.00  0.00    +0.000 C 
ATOM      8  C   UNL     1       3.241   4.985  20.087  0.00  0.00    +0.000 C 
ATOM      9  C   UNL     1       2.389   3.707  19.979  0.00  0.00    +0.000 C 
ATOM     10  C   UNL     1       3.207   2.650  19.219  0.00  0.00    +0.000 C 
ATOM     11  C   UNL     1       3.602   3.160  17.838  0.00  0.00    +0.000 C 
ENDROOT
BRANCH   9  12
ATOM     12  O   UNL     1       1.184   3.876  19.201  0.00  0.00    +0.000 OA
ATOM     13  C   UNL     1       0.393   2.727  18.943  0.00  0.00    +0.000 C 
ENDBRANCH   9  12
BRANCH   1  14
ATOM     14  C   UNL     1       5.797   3.525  15.400  0.00  0.00    +0.000 C 
BRANCH  14  20
ATOM     15  C   UNL     1       6.296   3.774  12.884  0.00  0.00    +0.000 A 
ATOM     16  C   UNL     1       7.055   4.366  11.862  0.00  0.00    +0.000 A 
ATOM     17  C   UNL     1       7.972   5.377  12.145  0.00  0.00    +0.000 A 
ATOM     18  C   UNL     1       8.144   5.812  13.450  0.00  0.00    +0.000 A 
ATOM     19  C   UNL     1       7.416   5.211  14.474  0.00  0.00    +0.000 A 
ATOM     20  C   UNL     1       6.515   4.158  14.223  0.00  0.00    +0.000 A 
BRANCH  15  22
ATOM     21  C   UNL     1       4.516   3.046  11.491  0.00  0.00    +0.000 C 
ATOM     22  O   UNL     1       5.336   2.821  12.641  0.00  0.00    +0.000 OA
ENDBRANCH  15  22
ENDBRANCH  14  20
ENDBRANCH   1  14
BRANCH   9  23
ATOM     23  C   UNL     1       2.047   3.173  21.390  0.00  0.00    +0.000 C 
BRANCH  23  24
ATOM     24  O   UNL     1       3.095   2.349  21.900  0.00  0.00    +0.000 OA
ATOM     25  H   UNL     1       2.844   2.124  22.816  0.00  0.00    +0.000 HD
ENDBRANCH  23  24
ENDBRANCH   9  23
TORSDOF 6
ENDMDL
MODEL 4
REMARK VINA RESULT:      -6.5      3.843      6.096
REMARK  Name = 
REMARK  8 active torsions:
REMARK  status: ('A' for Active; 'I' for Inactive)
REMARK    1  A    between atoms: C_1  and  O_2
REMARK    2  A    between atoms: O_2  and  C_3
REMARK    3  A    between atoms: C_8  and  C_9
REMARK    4  A    between atoms: C_9  and  N_10
REMARK    5  A    between atoms: C_18  and  C_19
REMARK    6  A    between atoms: C_18  and  O_21
REMARK    7  A    between atoms: C_19  and  O_20
REMARK    8  A    between atoms: O_21  and  C_22
REMARK                            x       y       z     vdW  Elec       q    Type
REMARK                         _______ _______ _______ _____ _____    ______ ____
ROOT
ATOM      1  N   UNL     1       2.902   5.453  19.797  0.00  0.00    +0.000 N 
ATOM      2  N   UNL     1       2.477   4.210  20.125  0.00  0.00    +0.000 NA
ATOM      3  N   UNL     1       1.257   4.370  20.612  0.00  0.00    +0.000 NA
ATOM      4  N   UNL     1       0.919   5.696  20.664  0.00  0.00    +0.000 NA
ATOM      5  C   UNL     1       1.924   6.368  20.141  0.00  0.00    +0.000 A 
ATOM      6  N   UNL     1       2.084   7.714  20.035  0.00  0.00    +0.000 N 
ATOM      7  C   UNL     1       1.375   8.585  20.976  0.00  0.00    +0.000 C 
ATOM      8  C   UNL     1       0.175   9.275  20.334  0.00  0.00    +0.000 C 
ATOM      9  C   UNL     1       0.535   9.959  19.003  0.00  0.00    +0.000 C 
ATOM     10  C   UNL     1       1.171   8.905  18.080  0.00  0.00    +0.000 C 
ATOM     11  C   UNL     1       2.405   8.290  18.729  0.00  0.00    +0.000 C 
ENDROOT
BRANCH   9  12
ATOM     12  O   UNL     1       1.537  10.992  19.133  0.00  0.00    +0.000 OA
ATOM     13  C   UNL     1       1.094  12.326  19.326  0.00  0.00    +0.000 C 
ENDBRANCH   9  12
BRANCH   1  14
ATOM     14  C   UNL     1       4.303   5.692  19.465  0.00  0.00    +0.000 C 
BRANCH  14  20
ATOM     15  C   UNL     1       4.758   4.108  17.484  0.00  0.00    +0.000 A 
ATOM     16  C   UNL     1       5.132   3.939  16.142  0.00  0.00    +0.000 A 
ATOM     17  C   UNL     1       5.311   5.039  15.304  0.00  0.00    +0.000 A 
ATOM     18  C   UNL     1       5.118   6.322  15.793  0.00  0.00    +0.000 A 
ATOM     19  C   UNL     1       4.776   6.500  17.131  0.00  0.00    +0.000 A 
ATOM     20  C   UNL     1       4.631   5.410  18.011  0.00  0.00    +0.000 A 
BRANCH  15  22
ATOM     21  C   UNL     1       3.620   2.051  17.820  0.00  0.00    +0.000 C 
ATOM     22  O   UNL     1       4.510   3.051  18.326  0.00  0.00    +0.000 OA
ENDBRANCH  15  22
ENDBRANCH  14  20
ENDBRANCH   1  14
BRANCH   9  23
ATOM     23  C   UNL     1      -0.738  10.527  18.333  0.00  0.00    +0.000 C 
BRANCH  23  24
ATOM     24  O   UNL     1      -1.029   9.845  17.114  0.00  0.00    +0.000 OA
ATOM     25  H   UNL     1      -0.182   9.763  16.638  0.00  0.00    +0.000 HD
ENDBRANCH  23  24
ENDBRANCH   9  23
TORSDOF 6
ENDMDL
MODEL 5
REMARK VINA RESULT:      -6.5      4.684      7.976
REMARK  Name = 
REMARK  8 active torsions:
REMARK  status: ('A' for Active; 'I' for Inactive)
REMARK    1  A    between atoms: C_1  and  O_2
REMARK    2  A    between atoms: O_2  and  C_3
REMARK    3  A    between atoms: C_8  and  C_9
REMARK    4  A    between atoms: C_9  and  N_10
REMARK    5  A    between atoms: C_18  and  C_19
REMARK    6  A    between atoms: C_18  and  O_21
REMARK    7  A    between atoms: C_19  and  O_20
REMARK    8  A    between atoms: O_21  and  C_22
REMARK                            x       y       z     vdW  Elec       q    Type
REMARK                         _______ _______ _______ _____ _____    ______ ____
ROOT
ATOM      1  N   UNL     1       1.990   8.160  18.903  0.00  0.00    +0.000 N 
ATOM      2  N   UNL     1       1.437   8.369  20.121  0.00  0.00    +0.000 NA
ATOM      3  N   UNL     1       1.775   7.317  20.849  0.00  0.00    +0.000 NA
ATOM      4  N   UNL     1       2.476   6.408  20.102  0.00  0.00    +0.000 NA
ATOM      5  C   UNL     1       2.631   6.935  18.905  0.00  0.00    +0.000 A 
ATOM      6  N   UNL     1       3.200   6.383  17.800  0.00  0.00    +0.000 N 
ATOM      7  C   UNL     1       3.239   4.923  17.681  0.00  0.00    +0.000 C 
ATOM      8  C   UNL     1       4.630   4.357  17.952  0.00  0.00    +0.000 C 
ATOM      9  C   UNL     1       5.723   5.077  17.141  0.00  0.00    +0.000 C 
ATOM     10  C   UNL     1       5.631   6.582  17.446  0.00  0.00    +0.000 C 
ATOM     11  C   UNL     1       4.249   7.122  17.097  0.00  0.00    +0.000 C 
ENDROOT
BRANCH   9  12
ATOM     12  O   UNL     1       5.548   4.975  15.711  0.00  0.00    +0.000 OA
ATOM     13  C   UNL     1       6.554   4.308  14.965  0.00  0.00    +0.000 C 
ENDBRANCH   9  12
BRANCH   1  14
ATOM     14  C   UNL     1       1.614   8.994  17.766  0.00  0.00    +0.000 C 
BRANCH  14  20
ATOM     15  C   UNL     1      -0.024  10.863  18.448  0.00  0.00    +0.000 A 
ATOM     16  C   UNL     1      -0.250  12.219  18.731  0.00  0.00    +0.000 A 
ATOM     17  C   UNL     1       0.809  13.123  18.795  0.00  0.00    +0.000 A 
ATOM     18  C   UNL     1       2.107  12.687  18.577  0.00  0.00    +0.000 A 
ATOM     19  C   UNL     1       2.338  11.349  18.267  0.00  0.00    +0.000 A 
ATOM     20  C   UNL     1       1.283  10.423  18.154  0.00  0.00    +0.000 A 
BRANCH  15  22
ATOM     21  C   UNL     1      -1.951  10.018  17.347  0.00  0.00    +0.000 C 
ATOM     22  O   UNL     1      -1.031   9.927  18.439  0.00  0.00    +0.000 OA
ENDBRANCH  15  22
ENDBRANCH  14  20
ENDBRANCH   1  14
BRANCH   9  23
ATOM     23  C   UNL     1       7.121   4.556  17.551  0.00  0.00    +0.000 C 
BRANCH  23  24
ATOM     24  O   UNL     1       7.449   4.945  18.884  0.00  0.00    +0.000 OA
ATOM     25  H   UNL     1       7.760   4.137  19.335  0.00  0.00    +0.000 HD
ENDBRANCH  23  24
ENDBRANCH   9  23
TORSDOF 6
ENDMDL
MODEL 6
REMARK VINA RESULT:      -6.5      3.834      5.577
REMARK  Name = 
REMARK  8 active torsions:
REMARK  status: ('A' for Active; 'I' for Inactive)
REMARK    1  A    between atoms: C_1  and  O_2
REMARK    2  A    between atoms: O_2  and  C_3
REMARK    3  A    between atoms: C_8  and  C_9
REMARK    4  A    between atoms: C_9  and  N_10
REMARK    5  A    between atoms: C_18  and  C_19
REMARK    6  A    between atoms: C_18  and  O_21
REMARK    7  A    between atoms: C_19  and  O_20
REMARK    8  A    between atoms: O_21  and  C_22
REMARK                            x       y       z     vdW  Elec       q    Type
REMARK                         _______ _______ _______ _____ _____    ______ ____
ROOT
ATOM      1  N   UNL     1       3.469   6.056  18.636  0.00  0.00    +0.000 N 
ATOM      2  N   UNL     1       3.352   4.710  18.717  0.00  0.00    +0.000 NA
ATOM      3  N   UNL     1       2.221   4.491  19.367  0.00  0.00    +0.000 NA
ATOM      4  N   UNL     1       1.645   5.670  19.762  0.00  0.00    +0.000 NA
ATOM      5  C   UNL     1       2.402   6.641  19.292  0.00  0.00    +0.000 A 
ATOM      6  N   UNL     1       2.278   7.982  19.479  0.00  0.00    +0.000 N 
ATOM      7  C   UNL     1       1.577   8.466  20.672  0.00  0.00    +0.000 C 
ATOM      8  C   UNL     1       0.177   8.982  20.350  0.00  0.00    +0.000 C 
ATOM      9  C   UNL     1       0.176   9.981  19.179  0.00  0.00    +0.000 C 
ATOM     10  C   UNL     1       0.844   9.302  17.971  0.00  0.00    +0.000 C 
ATOM     11  C   UNL     1       2.263   8.864  18.312  0.00  0.00    +0.000 C 
ENDROOT
BRANCH   9  12
ATOM     12  O   UNL     1       0.966  11.165  19.424  0.00  0.00    +0.000 OA
ATOM     13  C   UNL     1       0.558  12.030  20.472  0.00  0.00    +0.000 C 
ENDBRANCH   9  12
BRANCH   1  14
ATOM     14  C   UNL     1       4.723   6.666  18.205  0.00  0.00    +0.000 C 
BRANCH  14  20
ATOM     15  C   UNL     1       6.543   4.979  17.508  0.00  0.00    +0.000 A 
ATOM     16  C   UNL     1       7.224   4.301  16.485  0.00  0.00    +0.000 A 
ATOM     17  C   UNL     1       6.813   4.408  15.158  0.00  0.00    +0.000 A 
ATOM     18  C   UNL     1       5.717   5.192  14.831  0.00  0.00    +0.000 A 
ATOM     19  C   UNL     1       5.053   5.892  15.836  0.00  0.00    +0.000 A 
ATOM     20  C   UNL     1       5.473   5.836  17.179  0.00  0.00    +0.000 A 
BRANCH  15  22
ATOM     21  C   UNL     1       7.936   5.694  19.293  0.00  0.00    +0.000 C 
ATOM     22  O   UNL     1       6.875   4.851  18.835  0.00  0.00    +0.000 OA
ENDBRANCH  15  22
ENDBRANCH  14  20
ENDBRANCH   1  14
BRANCH   9  23
ATOM     23  C   UNL     1      -1.275  10.369  18.811  0.00  0.00    +0.000 C 
BRANCH  23  24
ATOM     24  O   UNL     1      -1.598   9.965  17.481  0.00  0.00    +0.000 OA
ATOM     25  H   UNL     1      -1.549   8.990  17.473  0.00  0.00    +0.000 HD
ENDBRANCH  23  24
ENDBRANCH   9  23
TORSDOF 6
ENDMDL
MODEL 7
REMARK VINA RESULT:      -6.4      3.805      5.564
REMARK  Name = 
REMARK  8 active torsions:
REMARK  status: ('A' for Active; 'I' for Inactive)
REMARK    1  A    between atoms: C_1  and  O_2
REMARK    2  A    between atoms: O_2  and  C_3
REMARK    3  A    between atoms: C_8  and  C_9
REMARK    4  A    between atoms: C_9  and  N_10
REMARK    5  A    between atoms: C_18  and  C_19
REMARK    6  A    between atoms: C_18  and  O_21
REMARK    7  A    between atoms: C_19  and  O_20
REMARK    8  A    between atoms: O_21  and  C_22
REMARK                            x       y       z     vdW  Elec       q    Type
REMARK                         _______ _______ _______ _____ _____    ______ ____
ROOT
ATOM      1  N   UNL     1       3.233   5.339  19.707  0.00  0.00    +0.000 N 
ATOM      2  N   UNL     1       2.851   4.113  20.136  0.00  0.00    +0.000 NA
ATOM      3  N   UNL     1       1.637   4.274  20.636  0.00  0.00    +0.000 NA
ATOM      4  N   UNL     1       1.260   5.591  20.596  0.00  0.00    +0.000 NA
ATOM      5  C   UNL     1       2.235   6.249  20.002  0.00  0.00    +0.000 A 
ATOM      6  N   UNL     1       2.352   7.587  19.792  0.00  0.00    +0.000 N 
ATOM      7  C   UNL     1       1.636   8.507  20.680  0.00  0.00    +0.000 C 
ATOM      8  C   UNL     1       0.403   9.112  20.015  0.00  0.00    +0.000 C 
ATOM      9  C   UNL     1       0.717   9.704  18.629  0.00  0.00    +0.000 C 
ATOM     10  C   UNL     1       1.364   8.601  17.774  0.00  0.00    +0.000 C 
ATOM     11  C   UNL     1       2.629   8.072  18.439  0.00  0.00    +0.000 C 
ENDROOT
BRANCH   9  12
ATOM     12  O   UNL     1       1.690  10.772  18.659  0.00  0.00    +0.000 OA
ATOM     13  C   UNL     1       1.365  11.945  19.386  0.00  0.00    +0.000 C 
ENDBRANCH   9  12
BRANCH   1  14
ATOM     14  C   UNL     1       4.618   5.592  19.326  0.00  0.00    +0.000 C 
BRANCH  14  20
ATOM     15  C   UNL     1       5.606   6.107  17.002  0.00  0.00    +0.000 A 
ATOM     16  C   UNL     1       5.777   5.735  15.660  0.00  0.00    +0.000 A 
ATOM     17  C   UNL     1       5.338   4.494  15.200  0.00  0.00    +0.000 A 
ATOM     18  C   UNL     1       4.722   3.609  16.071  0.00  0.00    +0.000 A 
ATOM     19  C   UNL     1       4.522   3.982  17.397  0.00  0.00    +0.000 A 
ATOM     20  C   UNL     1       4.916   5.246  17.879  0.00  0.00    +0.000 A 
BRANCH  15  22
ATOM     21  C   UNL     1       7.504   7.425  17.549  0.00  0.00    +0.000 C 
ATOM     22  O   UNL     1       6.080   7.292  17.512  0.00  0.00    +0.000 OA
ENDBRANCH  15  22
ENDBRANCH  14  20
ENDBRANCH   1  14
BRANCH   9  23
ATOM     23  C   UNL     1      -0.586  10.183  17.946  0.00  0.00    +0.000 C 
BRANCH  23  24
ATOM     24  O   UNL     1      -1.639  10.345  18.896  0.00  0.00    +0.000 OA
ATOM     25  H   UNL     1      -2.221   9.569  18.793  0.00  0.00    +0.000 HD
ENDBRANCH  23  24
ENDBRANCH   9  23
TORSDOF 6
ENDMDL
MODEL 8
REMARK VINA RESULT:      -6.4      4.755      8.017
REMARK  Name = 
REMARK  8 active torsions:
REMARK  status: ('A' for Active; 'I' for Inactive)
REMARK    1  A    between atoms: C_1  and  O_2
REMARK    2  A    between atoms: O_2  and  C_3
REMARK    3  A    between atoms: C_8  and  C_9
REMARK    4  A    between atoms: C_9  and  N_10
REMARK    5  A    between atoms: C_18  and  C_19
REMARK    6  A    between atoms: C_18  and  O_21
REMARK    7  A    between atoms: C_19  and  O_20
REMARK    8  A    between atoms: O_21  and  C_22
REMARK                            x       y       z     vdW  Elec       q    Type
REMARK                         _______ _______ _______ _____ _____    ______ ____
ROOT
ATOM      1  N   UNL     1       2.002   8.220  19.009  0.00  0.00    +0.000 N 
ATOM      2  N   UNL     1       2.165   9.100  17.992  0.00  0.00    +0.000 NA
ATOM      3  N   UNL     1       2.980   8.506  17.136  0.00  0.00    +0.000 NA
ATOM      4  N   UNL     1       3.396   7.292  17.615  0.00  0.00    +0.000 NA
ATOM      5  C   UNL     1       2.776   7.101  18.762  0.00  0.00    +0.000 A 
ATOM      6  N   UNL     1       2.914   6.074  19.643  0.00  0.00    +0.000 N 
ATOM      7  C   UNL     1       4.170   5.319  19.654  0.00  0.00    +0.000 C 
ATOM      8  C   UNL     1       4.028   3.951  18.995  0.00  0.00    +0.000 C 
ATOM      9  C   UNL     1       2.822   3.161  19.536  0.00  0.00    +0.000 C 
ATOM     10  C   UNL     1       1.566   4.031  19.362  0.00  0.00    +0.000 C 
ATOM     11  C   UNL     1       1.720   5.359  20.093  0.00  0.00    +0.000 C 
ENDROOT
BRANCH   9  12
ATOM     12  O   UNL     1       2.894   2.890  20.954  0.00  0.00    +0.000 OA
ATOM     13  C   UNL     1       1.708   2.472  21.610  0.00  0.00    +0.000 C 
ENDBRANCH   9  12
BRANCH   1  14
ATOM     14  C   UNL     1       1.367   8.637  20.255  0.00  0.00    +0.000 C 
BRANCH  14  20
ATOM     15  C   UNL     1      -0.084  10.592  21.098  0.00  0.00    +0.000 A 
ATOM     16  C   UNL     1      -1.100  11.528  20.850  0.00  0.00    +0.000 A 
ATOM     17  C   UNL     1      -1.655  11.664  19.579  0.00  0.00    +0.000 A 
ATOM     18  C   UNL     1      -1.204  10.867  18.537  0.00  0.00    +0.000 A 
ATOM     19  C   UNL     1      -0.218   9.915  18.780  0.00  0.00    +0.000 A 
ATOM     20  C   UNL     1       0.330   9.728  20.064  0.00  0.00    +0.000 A 
BRANCH  15  22
ATOM     21  C   UNL     1      -0.180   9.714  23.303  0.00  0.00    +0.000 C 
ATOM     22  O   UNL     1       0.534  10.471  22.319  0.00  0.00    +0.000 OA
ENDBRANCH  15  22
ENDBRANCH  14  20
ENDBRANCH   1  14
BRANCH   9  23
ATOM     23  C   UNL     1       2.648   1.844  18.744  0.00  0.00    +0.000 C 
BRANCH  23  24
ATOM     24  O   UNL     1       3.905   1.337  18.299  0.00  0.00    +0.000 OA
ATOM     25  H   UNL     1       4.531   2.084  18.341  0.00  0.00    +0.000 HD
ENDBRANCH  23  24
ENDBRANCH   9  23
TORSDOF 6
ENDMDL
MODEL 9
REMARK VINA RESULT:      -6.4      4.899      7.350
REMARK  Name = 
REMARK  8 active torsions:
REMARK  status: ('A' for Active; 'I' for Inactive)
REMARK    1  A    between atoms: C_1  and  O_2
REMARK    2  A    between atoms: O_2  and  C_3
REMARK    3  A    between atoms: C_8  and  C_9
REMARK    4  A    between atoms: C_9  and  N_10
REMARK    5  A    between atoms: C_18  and  C_19
REMARK    6  A    between atoms: C_18  and  O_21
REMARK    7  A    between atoms: C_19  and  O_20
REMARK    8  A    between atoms: O_21  and  C_22
REMARK                            x       y       z     vdW  Elec       q    Type
REMARK                         _______ _______ _______ _____ _____    ______ ____
ROOT
ATOM      1  N   UNL     1       2.403   7.798  18.878  0.00  0.00    +0.000 N 
ATOM      2  N   UNL     1       3.157   7.754  17.753  0.00  0.00    +0.000 NA
ATOM      3  N   UNL     1       2.828   8.834  17.064  0.00  0.00    +0.000 NA
ATOM      4  N   UNL     1       1.833   9.535  17.693  0.00  0.00    +0.000 NA
ATOM      5  C   UNL     1       1.583   8.910  18.826  0.00  0.00    +0.000 A 
ATOM      6  N   UNL     1       0.632   9.186  19.757  0.00  0.00    +0.000 N 
ATOM      7  C   UNL     1      -0.573   9.909  19.342  0.00  0.00    +0.000 C 
ATOM      8  C   UNL     1      -0.557  11.367  19.790  0.00  0.00    +0.000 C 
ATOM      9  C   UNL     1      -0.227  11.517  21.286  0.00  0.00    +0.000 C 
ATOM     10  C   UNL     1       1.110  10.804  21.553  0.00  0.00    +0.000 C 
ATOM     11  C   UNL     1       1.031   9.335  21.157  0.00  0.00    +0.000 C 
ENDROOT
BRANCH   9  12
ATOM     12  O   UNL     1      -1.176  10.866  22.160  0.00  0.00    +0.000 OA
ATOM     13  C   UNL     1      -1.890  11.672  23.083  0.00  0.00    +0.000 C 
ENDBRANCH   9  12
BRANCH   1  14
ATOM     14  C   UNL     1       2.315   6.637  19.757  0.00  0.00    +0.000 C 
BRANCH  14  20
ATOM     15  C   UNL     1       3.959   4.783  19.046  0.00  0.00    +0.000 A 
ATOM     16  C   UNL     1       4.202   3.606  18.321  0.00  0.00    +0.000 A 
ATOM     17  C   UNL     1       3.164   2.934  17.678  0.00  0.00    +0.000 A 
ATOM     18  C   UNL     1       1.870   3.426  17.748  0.00  0.00    +0.000 A 
ATOM     19  C   UNL     1       1.624   4.609  18.440  0.00  0.00    +0.000 A 
ATOM     20  C   UNL     1       2.660   5.332  19.063  0.00  0.00    +0.000 A 
BRANCH  15  22
ATOM     21  C   UNL     1       6.260   5.349  19.202  0.00  0.00    +0.000 C 
ATOM     22  O   UNL     1       4.940   5.441  19.747  0.00  0.00    +0.000 OA
ENDBRANCH  15  22
ENDBRANCH  14  20
ENDBRANCH   1  14
BRANCH   9  23
ATOM     23  C   UNL     1      -0.093  13.013  21.656  0.00  0.00    +0.000 C 
BRANCH  23  24
ATOM     24  O   UNL     1       1.273  13.424  21.666  0.00  0.00    +0.000 OA
ATOM     25  H   UNL     1       1.648  13.144  20.810  0.00  0.00    +0.000 HD
ENDBRANCH  23  24
ENDBRANCH   9  23
TORSDOF 6
ENDMDL
