MODEL 1
REMARK VINA RESULT:      -7.6      0.000      0.000
REMARK  Name = 
REMARK  3 active torsions:
REMARK  status: ('A' for Active; 'I' for Inactive)
REMARK    1  A    between atoms: C_1  and  O_2
REMARK    2  A    between atoms: O_2  and  C_3
REMARK    3  A    between atoms: N_17  and  C_18
REMARK                            x       y       z     vdW  Elec       q    Type
REMARK                         _______ _______ _______ _____ _____    ______ ____
ROOT
ATOM      1  C   UNL     1       3.963   5.960  17.895  0.00  0.00    +0.000 A 
ATOM      2  C   UNL     1       3.686   5.413  19.137  0.00  0.00    +0.000 A 
ATOM      3  C   UNL     1       2.811   6.095  20.041  0.00  0.00    +0.000 A 
ATOM      4  C   UNL     1       2.186   7.326  19.752  0.00  0.00    +0.000 A 
ATOM      5  N   UNL     1       1.313   8.010  20.601  0.00  0.00    +0.000 NA
ATOM      6  C   UNL     1       0.795   9.234  20.222  0.00  0.00    +0.000 A 
ATOM      7  C   UNL     1       1.173   9.743  18.981  0.00  0.00    +0.000 A 
ATOM      8  C   UNL     1       2.001   9.064  18.104  0.00  0.00    +0.000 A 
ATOM      9  C   UNL     1       2.520   7.842  18.486  0.00  0.00    +0.000 A 
ATOM     10  C   UNL     1       3.367   7.184  17.587  0.00  0.00    +0.000 A 
ATOM     11  C   UNL     1       0.712  11.054  18.635  0.00  0.00    +0.000 C 
ATOM     12  N   UNL     1       0.952  11.919  19.553  0.00  0.00    +0.000 NA
ATOM     13  N   UNL     1      -0.230  12.477  19.919  0.00  0.00    +0.000 NA
ATOM     14  C   UNL     1      -0.930  11.735  20.767  0.00  0.00    +0.000 C 
ATOM     15  N   UNL     1      -2.091  12.407  21.086  0.00  0.00    +0.000 N 
ATOM     16  S   UNL     1      -0.460  10.081  21.356  0.00  0.00    +0.000 S 
ATOM     17  H   UNL     1      -2.082  13.270  20.538  0.00  0.00    +0.000 HD
ENDROOT
BRANCH  15  18
ATOM     18  C   UNL     1      -3.048  12.558  22.111  0.00  0.00    +0.000 A 
ATOM     19  C   UNL     1      -2.827  12.357  23.469  0.00  0.00    +0.000 A 
ATOM     20  C   UNL     1      -3.881  12.496  24.400  0.00  0.00    +0.000 A 
ATOM     21  C   UNL     1      -5.178  12.827  23.993  0.00  0.00    +0.000 A 
ATOM     22  C   UNL     1      -5.433  13.037  22.647  0.00  0.00    +0.000 A 
ATOM     23  C   UNL     1      -4.383  12.905  21.729  0.00  0.00    +0.000 A 
ATOM     24 CL   UNL     1      -4.765  13.224  20.063  0.00  0.00    +0.000 Cl
ENDBRANCH  15  18
BRANCH   1  26
ATOM     25  C   UNL     1       5.197   6.335  15.864  0.00  0.00    +0.000 C 
ATOM     26  O   UNL     1       4.745   5.466  16.893  0.00  0.00    +0.000 OA
ENDBRANCH   1  26
TORSDOF 2
ENDMDL
MODEL 2
REMARK VINA RESULT:      -7.5      4.053      9.328
REMARK  Name = 
REMARK  3 active torsions:
REMARK  status: ('A' for Active; 'I' for Inactive)
REMARK    1  A    between atoms: C_1  and  O_2
REMARK    2  A    between atoms: O_2  and  C_3
REMARK    3  A    between atoms: N_17  and  C_18
REMARK                            x       y       z     vdW  Elec       q    Type
REMARK                         _______ _______ _______ _____ _____    ______ ____
ROOT
ATOM      1  C   UNL     1      -3.957  14.400  22.537  0.00  0.00    +0.000 A 
ATOM      2  C   UNL     1      -3.691  14.648  21.201  0.00  0.00    +0.000 A 
ATOM      3  C   UNL     1      -2.784  13.806  20.483  0.00  0.00    +0.000 A 
ATOM      4  C   UNL     1      -2.116  12.702  21.054  0.00  0.00    +0.000 A 
ATOM      5  N   UNL     1      -1.240  11.849  20.381  0.00  0.00    +0.000 NA
ATOM      6  C   UNL     1      -0.611  10.823  21.061  0.00  0.00    +0.000 A 
ATOM      7  C   UNL     1      -0.888  10.681  22.420  0.00  0.00    +0.000 A 
ATOM      8  C   UNL     1      -1.786  11.485  23.099  0.00  0.00    +0.000 A 
ATOM      9  C   UNL     1      -2.410  12.512  22.418  0.00  0.00    +0.000 A 
ATOM     10  C   UNL     1      -3.301  13.321  23.131  0.00  0.00    +0.000 A 
ATOM     11  C   UNL     1      -0.162   9.679  23.142  0.00  0.00    +0.000 C 
ATOM     12  N   UNL     1       1.107   9.763  22.961  0.00  0.00    +0.000 NA
ATOM     13  N   UNL     1       1.538   8.574  22.470  0.00  0.00    +0.000 NA
ATOM     14  C   UNL     1       1.336   8.431  21.166  0.00  0.00    +0.000 C 
ATOM     15  N   UNL     1       1.832   7.205  20.776  0.00  0.00    +0.000 N 
ATOM     16  S   UNL     1       0.490   9.629  20.093  0.00  0.00    +0.000 S 
ATOM     17  H   UNL     1       2.176   6.752  21.625  0.00  0.00    +0.000 HD
ENDROOT
BRANCH  15  18
ATOM     18  C   UNL     1       2.383   6.524  19.670  0.00  0.00    +0.000 A 
ATOM     19  C   UNL     1       3.060   7.110  18.607  0.00  0.00    +0.000 A 
ATOM     20  C   UNL     1       3.529   6.325  17.530  0.00  0.00    +0.000 A 
ATOM     21  C   UNL     1       3.323   4.941  17.488  0.00  0.00    +0.000 A 
ATOM     22  C   UNL     1       2.655   4.324  18.533  0.00  0.00    +0.000 A 
ATOM     23  C   UNL     1       2.197   5.106  19.602  0.00  0.00    +0.000 A 
ATOM     24 CL   UNL     1       1.406   4.260  20.898  0.00  0.00    +0.000 Cl
ENDBRANCH  15  18
BRANCH   1  26
ATOM     25  C   UNL     1      -5.900  15.782  22.854  0.00  0.00    +0.000 C 
ATOM     26  O   UNL     1      -4.794  15.065  23.384  0.00  0.00    +0.000 OA
ENDBRANCH   1  26
TORSDOF 2
ENDMDL
MODEL 3
REMARK VINA RESULT:      -7.4      1.187      1.433
REMARK  Name = 
REMARK  3 active torsions:
REMARK  status: ('A' for Active; 'I' for Inactive)
REMARK    1  A    between atoms: C_1  and  O_2
REMARK    2  A    between atoms: O_2  and  C_3
REMARK    3  A    between atoms: N_17  and  C_18
REMARK                            x       y       z     vdW  Elec       q    Type
REMARK                         _______ _______ _______ _____ _____    ______ ____
ROOT
ATOM      1  C   UNL     1       4.184   4.436  18.015  0.00  0.00    +0.000 A 
ATOM      2  C   UNL     1       3.922   4.131  19.341  0.00  0.00    +0.000 A 
ATOM      3  C   UNL     1       3.158   5.035  20.146  0.00  0.00    +0.000 A 
ATOM      4  C   UNL     1       2.633   6.256  19.674  0.00  0.00    +0.000 A 
ATOM      5  N   UNL     1       1.869   7.153  20.424  0.00  0.00    +0.000 NA
ATOM      6  C   UNL     1       1.445   8.342  19.861  0.00  0.00    +0.000 A 
ATOM      7  C   UNL     1       1.805   8.599  18.539  0.00  0.00    +0.000 A 
ATOM      8  C   UNL     1       2.523   7.707  17.762  0.00  0.00    +0.000 A 
ATOM      9  C   UNL     1       2.949   6.521  18.327  0.00  0.00    +0.000 A 
ATOM     10  C   UNL     1       3.687   5.644  17.525  0.00  0.00    +0.000 A 
ATOM     11  C   UNL     1       1.447   9.874  17.992  0.00  0.00    +0.000 C 
ATOM     12  N   UNL     1       1.810  10.851  18.741  0.00  0.00    +0.000 NA
ATOM     13  N   UNL     1       0.703  11.575  19.048  0.00  0.00    +0.000 NA
ATOM     14  C   UNL     1      -0.018  11.055  20.033  0.00  0.00    +0.000 C 
ATOM     15  N   UNL     1      -1.096  11.880  20.273  0.00  0.00    +0.000 N 
ATOM     16  S   UNL     1       0.330   9.483  20.877  0.00  0.00    +0.000 S 
ATOM     17  H   UNL     1      -1.036  12.635  19.586  0.00  0.00    +0.000 HD
ENDROOT
BRANCH  15  18
ATOM     18  C   UNL     1      -1.983  12.291  21.290  0.00  0.00    +0.000 A 
ATOM     19  C   UNL     1      -1.663  12.458  22.632  0.00  0.00    +0.000 A 
ATOM     20  C   UNL     1      -2.652  12.831  23.569  0.00  0.00    +0.000 A 
ATOM     21  C   UNL     1      -3.983  13.036  23.186  0.00  0.00    +0.000 A 
ATOM     22  C   UNL     1      -4.336  12.881  21.855  0.00  0.00    +0.000 A 
ATOM     23  C   UNL     1      -3.350  12.517  20.929  0.00  0.00    +0.000 A 
ATOM     24 CL   UNL     1      -3.854  12.382  19.271  0.00  0.00    +0.000 Cl
ENDBRANCH  15  18
BRANCH   1  26
ATOM     25  C   UNL     1       5.474   4.372  15.986  0.00  0.00    +0.000 C 
ATOM     26  O   UNL     1       4.868   3.708  17.086  0.00  0.00    +0.000 OA
ENDBRANCH   1  26
TORSDOF 2
ENDMDL
MODEL 4
REMARK VINA RESULT:      -7.4      4.854     10.623
REMARK  Name = 
REMARK  3 active torsions:
REMARK  status: ('A' for Active; 'I' for Inactive)
REMARK    1  A    between atoms: C_1  and  O_2
REMARK    2  A    between atoms: O_2  and  C_3
REMARK    3  A    between atoms: N_17  and  C_18
REMARK                            x       y       z     vdW  Elec       q    Type
REMARK                         _______ _______ _______ _____ _____    ______ ____
ROOT
ATOM      1  C   UNL     1       0.019   9.429  21.599  0.00  0.00    +0.000 A 
ATOM      2  C   UNL     1       0.254  10.342  20.585  0.00  0.00    +0.000 A 
ATOM      3  C   UNL     1       1.095   9.987  19.482  0.00  0.00    +0.000 A 
ATOM      4  C   UNL     1       1.724   8.732  19.346  0.00  0.00    +0.000 A 
ATOM      5  N   UNL     1       2.535   8.345  18.277  0.00  0.00    +0.000 NA
ATOM      6  C   UNL     1       3.134   7.099  18.276  0.00  0.00    +0.000 A 
ATOM      7  C   UNL     1       2.894   6.264  19.367  0.00  0.00    +0.000 A 
ATOM      8  C   UNL     1       2.059   6.607  20.416  0.00  0.00    +0.000 A 
ATOM      9  C   UNL     1       1.465   7.854  20.416  0.00  0.00    +0.000 A 
ATOM     10  C   UNL     1       0.640   8.183  21.496  0.00  0.00    +0.000 A 
ATOM     11  C   UNL     1       3.592   5.013  19.408  0.00  0.00    +0.000 C 
ATOM     12  N   UNL     1       4.857   5.149  19.232  0.00  0.00    +0.000 NA
ATOM     13  N   UNL     1       5.212   4.392  18.163  0.00  0.00    +0.000 NA
ATOM     14  C   UNL     1       4.962   4.968  16.994  0.00  0.00    +0.000 C 
ATOM     15  N   UNL     1       5.383   4.125  15.988  0.00  0.00    +0.000 N 
ATOM     16  S   UNL     1       4.143   6.575  16.765  0.00  0.00    +0.000 S 
ATOM     17  H   UNL     1       5.732   3.282  16.449  0.00  0.00    +0.000 HD
ENDROOT
BRANCH  15  18
ATOM     18  C   UNL     1       5.864   4.121  14.662  0.00  0.00    +0.000 A 
ATOM     19  C   UNL     1       5.345   3.377  13.609  0.00  0.00    +0.000 A 
ATOM     20  C   UNL     1       5.944   3.421  12.330  0.00  0.00    +0.000 A 
ATOM     21  C   UNL     1       7.078   4.201  12.079  0.00  0.00    +0.000 A 
ATOM     22  C   UNL     1       7.620   4.959  13.106  0.00  0.00    +0.000 A 
ATOM     23  C   UNL     1       7.019   4.916  14.370  0.00  0.00    +0.000 A 
ATOM     24 CL   UNL     1       7.725   5.923  15.599  0.00  0.00    +0.000 Cl
ENDBRANCH  15  18
BRANCH   1  26
ATOM     25  C   UNL     1      -1.206  10.853  23.101  0.00  0.00    +0.000 C 
ATOM     26  O   UNL     1      -0.757   9.563  22.713  0.00  0.00    +0.000 OA
ENDBRANCH   1  26
TORSDOF 2
ENDMDL
MODEL 5
REMARK VINA RESULT:      -7.3      3.767      5.226
REMARK  Name = 
REMARK  3 active torsions:
REMARK  status: ('A' for Active; 'I' for Inactive)
REMARK    1  A    between atoms: C_1  and  O_2
REMARK    2  A    between atoms: O_2  and  C_3
REMARK    3  A    between atoms: N_17  and  C_18
REMARK                            x       y       z     vdW  Elec       q    Type
REMARK                         _______ _______ _______ _____ _____    ______ ____
ROOT
ATOM      1  C   UNL     1       2.573   3.864  19.585  0.00  0.00    +0.000 A 
ATOM      2  C   UNL     1       3.077   4.144  18.326  0.00  0.00    +0.000 A 
ATOM      3  C   UNL     1       3.076   5.490  17.837  0.00  0.00    +0.000 A 
ATOM      4  C   UNL     1       2.584   6.591  18.568  0.00  0.00    +0.000 A 
ATOM      5  N   UNL     1       2.583   7.917  18.131  0.00  0.00    +0.000 NA
ATOM      6  C   UNL     1       2.032   8.907  18.923  0.00  0.00    +0.000 A 
ATOM      7  C   UNL     1       1.490   8.530  20.151  0.00  0.00    +0.000 A 
ATOM      8  C   UNL     1       1.519   7.230  20.624  0.00  0.00    +0.000 A 
ATOM      9  C   UNL     1       2.067   6.242  19.830  0.00  0.00    +0.000 A 
ATOM     10  C   UNL     1       2.068   4.934  20.325  0.00  0.00    +0.000 A 
ATOM     11  C   UNL     1       0.834   9.543  20.923  0.00  0.00    +0.000 C 
ATOM     12  N   UNL     1      -0.038  10.194  20.242  0.00  0.00    +0.000 NA
ATOM     13  N   UNL     1       0.294  11.510  20.289  0.00  0.00    +0.000 NA
ATOM     14  C   UNL     1       1.251  11.849  19.435  0.00  0.00    +0.000 C 
ATOM     15  N   UNL     1       1.486  13.202  19.553  0.00  0.00    +0.000 N 
ATOM     16  S   UNL     1       2.141  10.704  18.340  0.00  0.00    +0.000 S 
ATOM     17  H   UNL     1       0.872  13.535  20.300  0.00  0.00    +0.000 HD
ENDROOT
BRANCH  15  18
ATOM     18  C   UNL     1       1.929  14.327  18.825  0.00  0.00    +0.000 A 
ATOM     19  C   UNL     1       3.107  14.411  18.093  0.00  0.00    +0.000 A 
ATOM     20  C   UNL     1       3.467  15.611  17.440  0.00  0.00    +0.000 A 
ATOM     21  C   UNL     1       2.663  16.754  17.514  0.00  0.00    +0.000 A 
ATOM     22  C   UNL     1       1.479  16.704  18.234  0.00  0.00    +0.000 A 
ATOM     23  C   UNL     1       1.124  15.510  18.873  0.00  0.00    +0.000 A 
ATOM     24 CL   UNL     1      -0.393  15.506  19.722  0.00  0.00    +0.000 Cl
ENDBRANCH  15  18
BRANCH   1  26
ATOM     25  C   UNL     1       1.991   2.619  21.559  0.00  0.00    +0.000 C 
ATOM     26  O   UNL     1       2.501   2.667  20.234  0.00  0.00    +0.000 OA
ENDBRANCH   1  26
TORSDOF 2
ENDMDL
MODEL 6
REMARK VINA RESULT:      -7.3      3.939      5.317
REMARK  Name = 
REMARK  3 active torsions:
REMARK  status: ('A' for Active; 'I' for Inactive)
REMARK    1  A    between atoms: C_1  and  O_2
REMARK    2  A    between atoms: O_2  and  C_3
REMARK    3  A    between atoms: N_17  and  C_18
REMARK                            x       y       z     vdW  Elec       q    Type
REMARK                         _______ _______ _______ _____ _____    ______ ____
ROOT
ATOM      1  C   UNL     1       2.245   5.966  20.028  0.00  0.00    +0.000 A 
ATOM      2  C   UNL     1       2.574   6.209  18.704  0.00  0.00    +0.000 A 
ATOM      3  C   UNL     1       2.359   7.506  18.139  0.00  0.00    +0.000 A 
ATOM      4  C   UNL     1       1.819   8.595  18.854  0.00  0.00    +0.000 A 
ATOM      5  N   UNL     1       1.612   9.878  18.341  0.00  0.00    +0.000 NA
ATOM      6  C   UNL     1       1.034  10.855  19.130  0.00  0.00    +0.000 A 
ATOM      7  C   UNL     1       0.676  10.510  20.432  0.00  0.00    +0.000 A 
ATOM      8  C   UNL     1       0.911   9.259  20.977  0.00  0.00    +0.000 A 
ATOM      9  C   UNL     1       1.486   8.283  20.186  0.00  0.00    +0.000 A 
ATOM     10  C   UNL     1       1.697   7.024  20.756  0.00  0.00    +0.000 A 
ATOM     11  C   UNL     1      -0.011  11.495  21.213  0.00  0.00    +0.000 C 
ATOM     12  N   UNL     1      -1.023  11.993  20.598  0.00  0.00    +0.000 NA
ATOM     13  N   UNL     1      -0.849  13.337  20.528  0.00  0.00    +0.000 NA
ATOM     14  C   UNL     1      -0.036  13.719  19.550  0.00  0.00    +0.000 C 
ATOM     15  N   UNL     1       0.046  15.095  19.559  0.00  0.00    +0.000 N 
ATOM     16  S   UNL     1       0.863  12.604  18.431  0.00  0.00    +0.000 S 
ATOM     17  H   UNL     1      -0.520  15.411  20.350  0.00  0.00    +0.000 HD
ENDROOT
BRANCH  15  18
ATOM     18  C   UNL     1       0.270  16.206  18.719  0.00  0.00    +0.000 A 
ATOM     19  C   UNL     1      -0.713  16.999  18.139  0.00  0.00    +0.000 A 
ATOM     20  C   UNL     1      -0.365  18.062  17.274  0.00  0.00    +0.000 A 
ATOM     21  C   UNL     1       0.969  18.346  16.963  0.00  0.00    +0.000 A 
ATOM     22  C   UNL     1       1.975  17.576  17.527  0.00  0.00    +0.000 A 
ATOM     23  C   UNL     1       1.625  16.529  18.388  0.00  0.00    +0.000 A 
ATOM     24 CL   UNL     1       2.938  15.632  19.092  0.00  0.00    +0.000 Cl
ENDBRANCH  15  18
BRANCH   1  26
ATOM     25  C   UNL     1       1.344   3.856  20.748  0.00  0.00    +0.000 C 
ATOM     26  O   UNL     1       2.387   4.820  20.752  0.00  0.00    +0.000 OA
ENDBRANCH   1  26
TORSDOF 2
ENDMDL
MODEL 7
REMARK VINA RESULT:      -7.2      1.462      1.677
REMARK  Name = 
REMARK  3 active torsions:
REMARK  status: ('A' for Active; 'I' for Inactive)
REMARK    1  A    between atoms: C_1  and  O_2
REMARK    2  A    between atoms: O_2  and  C_3
REMARK    3  A    between atoms: N_17  and  C_18
REMARK                            x       y       z     vdW  Elec       q    Type
REMARK                         _______ _______ _______ _____ _____    ______ ____
ROOT
ATOM      1  C   UNL     1       3.585   5.488  17.813  0.00  0.00    +0.000 A 
ATOM      2  C   UNL     1       3.407   5.019  19.104  0.00  0.00    +0.000 A 
ATOM      3  C   UNL     1       2.726   5.825  20.071  0.00  0.00    +0.000 A 
ATOM      4  C   UNL     1       2.205   7.107  19.799  0.00  0.00    +0.000 A 
ATOM      5  N   UNL     1       1.521   7.913  20.711  0.00  0.00    +0.000 NA
ATOM      6  C   UNL     1       1.094   9.174  20.339  0.00  0.00    +0.000 A 
ATOM      7  C   UNL     1       1.370   9.593  19.038  0.00  0.00    +0.000 A 
ATOM      8  C   UNL     1       2.006   8.797  18.103  0.00  0.00    +0.000 A 
ATOM      9  C   UNL     1       2.435   7.538  18.479  0.00  0.00    +0.000 A 
ATOM     10  C   UNL     1       3.091   6.760  17.520  0.00  0.00    +0.000 A 
ATOM     11  C   UNL     1       1.012  10.936  18.686  0.00  0.00    +0.000 C 
ATOM     12  N   UNL     1       1.453  11.800  19.528  0.00  0.00    +0.000 NA
ATOM     13  N   UNL     1       0.391  12.499  20.003  0.00  0.00    +0.000 NA
ATOM     14  C   UNL     1      -0.275  11.869  20.963  0.00  0.00    +0.000 C 
ATOM     15  N   UNL     1      -1.309  12.676  21.384  0.00  0.00    +0.000 N 
ATOM     16  S   UNL     1       0.085  10.194  21.571  0.00  0.00    +0.000 S 
ATOM     17  H   UNL     1      -1.276  13.513  20.797  0.00  0.00    +0.000 HD
ENDROOT
BRANCH  15  18
ATOM     18  C   UNL     1      -2.112  12.969  22.506  0.00  0.00    +0.000 A 
ATOM     19  C   UNL     1      -3.257  12.281  22.890  0.00  0.00    +0.000 A 
ATOM     20  C   UNL     1      -4.007  12.698  24.013  0.00  0.00    +0.000 A 
ATOM     21  C   UNL     1      -3.635  13.817  24.768  0.00  0.00    +0.000 A 
ATOM     22  C   UNL     1      -2.497  14.524  24.414  0.00  0.00    +0.000 A 
ATOM     23  C   UNL     1      -1.754  14.102  23.304  0.00  0.00    +0.000 A 
ATOM     24 CL   UNL     1      -0.315  15.010  22.944  0.00  0.00    +0.000 Cl
ENDBRANCH  15  18
BRANCH   1  26
ATOM     25  C   UNL     1       5.581   4.626  16.783  0.00  0.00    +0.000 C 
ATOM     26  O   UNL     1       4.183   4.875  16.751  0.00  0.00    +0.000 OA
ENDBRANCH   1  26
TORSDOF 2
ENDMDL
MODEL 8
REMARK VINA RESULT:      -7.2      3.539      4.899
REMARK  Name = 
REMARK  3 active torsions:
REMARK  status: ('A' for Active; 'I' for Inactive)
REMARK    1  A    between atoms: C_1  and  O_2
REMARK    2  A    between atoms: O_2  and  C_3
REMARK    3  A    between atoms: N_17  and  C_18
REMARK                            x       y       z     vdW  Elec       q    Type
REMARK                         _______ _______ _______ _____ _____    ______ ____
ROOT
ATOM      1  C   UNL     1       2.698   4.612  19.730  0.00  0.00    +0.000 A 
ATOM      2  C   UNL     1       3.059   5.004  18.451  0.00  0.00    +0.000 A 
ATOM      3  C   UNL     1       2.840   6.354  18.028  0.00  0.00    +0.000 A 
ATOM      4  C   UNL     1       2.264   7.350  18.844  0.00  0.00    +0.000 A 
ATOM      5  N   UNL     1       2.052   8.679  18.471  0.00  0.00    +0.000 NA
ATOM      6  C   UNL     1       1.438   9.555  19.346  0.00  0.00    +0.000 A 
ATOM      7  C   UNL     1       1.050   9.062  20.592  0.00  0.00    +0.000 A 
ATOM      8  C   UNL     1       1.289   7.762  21.000  0.00  0.00    +0.000 A 
ATOM      9  C   UNL     1       1.900   6.887  20.123  0.00  0.00    +0.000 A 
ATOM     10  C   UNL     1       2.114   5.574  20.554  0.00  0.00    +0.000 A 
ATOM     11  C   UNL     1       0.327   9.946  21.457  0.00  0.00    +0.000 C 
ATOM     12  N   UNL     1      -0.675  10.497  20.873  0.00  0.00    +0.000 NA
ATOM     13  N   UNL     1      -0.519  11.843  20.958  0.00  0.00    +0.000 NA
ATOM     14  C   UNL     1       0.314  12.341  20.052  0.00  0.00    +0.000 C 
ATOM     15  N   UNL     1       0.375  13.708  20.216  0.00  0.00    +0.000 N 
ATOM     16  S   UNL     1       1.260  11.369  18.843  0.00  0.00    +0.000 S 
ATOM     17  H   UNL     1      -0.217  13.927  21.021  0.00  0.00    +0.000 HD
ENDROOT
BRANCH  15  18
ATOM     18  C   UNL     1       0.605  14.909  19.512  0.00  0.00    +0.000 A 
ATOM     19  C   UNL     1      -0.372  15.730  18.961  0.00  0.00    +0.000 A 
ATOM     20  C   UNL     1      -0.016  16.888  18.235  0.00  0.00    +0.000 A 
ATOM     21  C   UNL     1       1.322  17.244  18.034  0.00  0.00    +0.000 A 
ATOM     22  C   UNL     1       2.322  16.449  18.572  0.00  0.00    +0.000 A 
ATOM     23  C   UNL     1       1.963  15.305  19.297  0.00  0.00    +0.000 A 
ATOM     24 CL   UNL     1       3.267  14.378  19.979  0.00  0.00    +0.000 Cl
ENDBRANCH  15  18
BRANCH   1  26
ATOM     25  C   UNL     1       2.089   3.096  21.495  0.00  0.00    +0.000 C 
ATOM     26  O   UNL     1       2.838   3.393  20.326  0.00  0.00    +0.000 OA
ENDBRANCH   1  26
TORSDOF 2
ENDMDL
MODEL 9
REMARK VINA RESULT:      -7.0      1.382      1.726
REMARK  Name = 
REMARK  3 active torsions:
REMARK  status: ('A' for Active; 'I' for Inactive)
REMARK    1  A    between atoms: C_1  and  O_2
REMARK    2  A    between atoms: O_2  and  C_3
REMARK    3  A    between atoms: N_17  and  C_18
REMARK                            x       y       z     vdW  Elec       q    Type
REMARK                         _______ _______ _______ _____ _____    ______ ____
ROOT
ATOM      1  C   UNL     1       4.328   5.308  18.074  0.00  0.00    +0.000 A 
ATOM      2  C   UNL     1       3.876   4.881  19.312  0.00  0.00    +0.000 A 
ATOM      3  C   UNL     1       2.945   5.679  20.049  0.00  0.00    +0.000 A 
ATOM      4  C   UNL     1       2.434   6.913  19.594  0.00  0.00    +0.000 A 
ATOM      5  N   UNL     1       1.512   7.709  20.277  0.00  0.00    +0.000 NA
ATOM      6  C   UNL     1       1.117   8.923  19.747  0.00  0.00    +0.000 A 
ATOM      7  C   UNL     1       1.668   9.307  18.524  0.00  0.00    +0.000 A 
ATOM      8  C   UNL     1       2.548   8.516  17.808  0.00  0.00    +0.000 A 
ATOM      9  C   UNL     1       2.945   7.305  18.342  0.00  0.00    +0.000 A 
ATOM     10  C   UNL     1       3.848   6.532  17.605  0.00  0.00    +0.000 A 
ATOM     11  C   UNL     1       1.331  10.607  18.026  0.00  0.00    +0.000 C 
ATOM     12  N   UNL     1       1.514  11.531  18.899  0.00  0.00    +0.000 NA
ATOM     13  N   UNL     1       0.334  12.178  19.076  0.00  0.00    +0.000 NA
ATOM     14  C   UNL     1      -0.504  11.546  19.887  0.00  0.00    +0.000 C 
ATOM     15  N   UNL     1      -1.651  12.300  20.011  0.00  0.00    +0.000 N 
ATOM     16  S   UNL     1      -0.207   9.924  20.653  0.00  0.00    +0.000 S 
ATOM     17  H   UNL     1      -1.525  13.113  19.404  0.00  0.00    +0.000 HD
ENDROOT
BRANCH  15  18
ATOM     18  C   UNL     1      -2.710  12.585  20.898  0.00  0.00    +0.000 A 
ATOM     19  C   UNL     1      -4.064  12.556  20.587  0.00  0.00    +0.000 A 
ATOM     20  C   UNL     1      -5.034  12.907  21.552  0.00  0.00    +0.000 A 
ATOM     21  C   UNL     1      -4.672  13.304  22.844  0.00  0.00    +0.000 A 
ATOM     22  C   UNL     1      -3.330  13.342  23.189  0.00  0.00    +0.000 A 
ATOM     23  C   UNL     1      -2.373  12.987  22.231  0.00  0.00    +0.000 A 
ATOM     24 CL   UNL     1      -0.712  13.015  22.745  0.00  0.00    +0.000 Cl
ENDBRANCH  15  18
BRANCH   1  26
ATOM     25  C   UNL     1       6.576   4.650  17.527  0.00  0.00    +0.000 C 
ATOM     26  O   UNL     1       5.191   4.693  17.216  0.00  0.00    +0.000 OA
ENDBRANCH   1  26
TORSDOF 2
ENDMDL
