MODEL 1
REMARK VINA RESULT:      -7.5      0.000      0.000
REMARK  Name = 
REMARK  9 active torsions:
REMARK  status: ('A' for Active; 'I' for Inactive)
REMARK    1  A    between atoms: C_1  and  O_2
REMARK    2  A    between atoms: O_2  and  C_3
REMARK    3  A    between atoms: C_6  and  C_7
REMARK    4  A    between atoms: N_8  and  N_9
REMARK    5  A    between atoms: C_10  and  C_12
REMARK    6  A    between atoms: C_21  and  C_22
REMARK    7  A    between atoms: C_22  and  O_24
REMARK    8  A    between atoms: C_25  and  O_26
REMARK    9  A    between atoms: O_26  and  C_27
REMARK                            x       y       z     vdW  Elec       q    Type
REMARK                         _______ _______ _______ _____ _____    ______ ____
ROOT
ATOM      1  C   UNL     1       1.942   7.365  17.985  0.00  0.00    +0.000 C 
ATOM      2  N   UNL     1       2.112   8.639  17.838  0.00  0.00    +0.000 NA
ENDROOT
BRANCH   1   6
ATOM      3  C   UNL     1       5.584   5.152  18.434  0.00  0.00    +0.000 A 
ATOM      4  C   UNL     1       5.487   6.253  17.581  0.00  0.00    +0.000 A 
ATOM      5  C   UNL     1       4.286   6.933  17.459  0.00  0.00    +0.000 A 
ATOM      6  C   UNL     1       3.147   6.517  18.164  0.00  0.00    +0.000 A 
ATOM      7  C   UNL     1       3.201   5.364  18.969  0.00  0.00    +0.000 A 
ATOM      8  C   UNL     1       4.435   4.659  19.089  0.00  0.00    +0.000 A 
BRANCH   3  10
ATOM      9  C   UNL     1       7.664   4.573  17.467  0.00  0.00    +0.000 C 
ATOM     10  O   UNL     1       6.799   4.542  18.608  0.00  0.00    +0.000 OA
ENDBRANCH   3  10
BRANCH   7  11
ATOM     11  C   UNL     1       1.996   4.970  19.756  0.00  0.00    +0.000 C 
ATOM     12  O   UNL     1       1.690   5.480  20.821  0.00  0.00    +0.000 OA
BRANCH  11  13
ATOM     13  O   UNL     1       1.203   4.032  19.186  0.00  0.00    +0.000 OA
ATOM     14  H   UNL     1       1.616   3.619  18.397  0.00  0.00    +0.000 HD
ENDBRANCH  11  13
ENDBRANCH   7  11
BRANCH   8  15
ATOM     15  O   UNL     1       4.375   3.517  19.856  0.00  0.00    +0.000 OA
ATOM     16  C   UNL     1       4.197   2.244  19.244  0.00  0.00    +0.000 C 
ENDBRANCH   8  15
ENDBRANCH   1   6
BRANCH   2  17
ATOM     17  N   UNL     1       1.018   9.423  17.699  0.00  0.00    +0.000 N 
ATOM     18  C   UNL     1       0.413   9.888  18.861  0.00  0.00    +0.000 C 
ATOM     19  O   UNL     1       0.802   9.669  20.004  0.00  0.00    +0.000 OA
ATOM     20  H   UNL     1       0.558   9.480  16.796  0.00  0.00    +0.000 HD
BRANCH  18  21
ATOM     21  C   UNL     1      -0.853  10.628  18.661  0.00  0.00    +0.000 A 
ATOM     22  C   UNL     1      -1.732  10.323  17.597  0.00  0.00    +0.000 A 
ATOM     23  C   UNL     1      -2.996  10.917  17.537  0.00  0.00    +0.000 A 
ATOM     24  C   UNL     1      -3.345  11.764  18.566  0.00  0.00    +0.000 A 
ATOM     25  C   UNL     1      -2.460  12.106  19.566  0.00  0.00    +0.000 A 
ATOM     26  C   UNL     1      -1.190  11.588  19.623  0.00  0.00    +0.000 A 
ATOM     27  O   UNL     1      -3.034  12.904  20.508  0.00  0.00    +0.000 OA
ATOM     28  C   UNL     1      -4.418  12.720  20.154  0.00  0.00    +0.000 C 
ATOM     29  O   UNL     1      -4.582  12.292  18.784  0.00  0.00    +0.000 OA
ENDBRANCH  18  21
ENDBRANCH   2  17
TORSDOF 7
ENDMDL
MODEL 2
REMARK VINA RESULT:      -7.5      4.853      8.095
REMARK  Name = 
REMARK  9 active torsions:
REMARK  status: ('A' for Active; 'I' for Inactive)
REMARK    1  A    between atoms: C_1  and  O_2
REMARK    2  A    between atoms: O_2  and  C_3
REMARK    3  A    between atoms: C_6  and  C_7
REMARK    4  A    between atoms: N_8  and  N_9
REMARK    5  A    between atoms: C_10  and  C_12
REMARK    6  A    between atoms: C_21  and  C_22
REMARK    7  A    between atoms: C_22  and  O_24
REMARK    8  A    between atoms: C_25  and  O_26
REMARK    9  A    between atoms: O_26  and  C_27
REMARK                            x       y       z     vdW  Elec       q    Type
REMARK                         _______ _______ _______ _____ _____    ______ ____
ROOT
ATOM      1  C   UNL     1       5.260   7.364  17.407  0.00  0.00    +0.000 C 
ATOM      2  N   UNL     1       6.541   7.364  17.232  0.00  0.00    +0.000 NA
ENDROOT
BRANCH   1   6
ATOM      3  C   UNL     1       3.489   3.462  17.352  0.00  0.00    +0.000 A 
ATOM      4  C   UNL     1       4.726   3.722  16.760  0.00  0.00    +0.000 A 
ATOM      5  C   UNL     1       5.256   5.001  16.792  0.00  0.00    +0.000 A 
ATOM      6  C   UNL     1       4.555   6.057  17.394  0.00  0.00    +0.000 A 
ATOM      7  C   UNL     1       3.273   5.835  17.928  0.00  0.00    +0.000 A 
ATOM      8  C   UNL     1       2.722   4.520  17.888  0.00  0.00    +0.000 A 
BRANCH   3  10
ATOM      9  C   UNL     1       3.597   1.342  18.396  0.00  0.00    +0.000 C 
ATOM     10  O   UNL     1       3.017   2.175  17.386  0.00  0.00    +0.000 OA
ENDBRANCH   3  10
BRANCH   7  11
ATOM     11  C   UNL     1       2.567   6.956  18.614  0.00  0.00    +0.000 C 
ATOM     12  O   UNL     1       1.973   7.841  18.023  0.00  0.00    +0.000 OA
BRANCH  11  13
ATOM     13  O   UNL     1       2.569   6.911  19.968  0.00  0.00    +0.000 OA
ATOM     14  H   UNL     1       3.460   6.727  20.337  0.00  0.00    +0.000 HD
ENDBRANCH  11  13
ENDBRANCH   7  11
BRANCH   8  15
ATOM     15  O   UNL     1       1.444   4.413  18.389  0.00  0.00    +0.000 OA
ATOM     16  C   UNL     1       1.210   3.784  19.644  0.00  0.00    +0.000 C 
ENDBRANCH   8  15
ENDBRANCH   1   6
BRANCH   2  17
ATOM     17  N   UNL     1       7.196   8.548  17.268  0.00  0.00    +0.000 N 
ATOM     18  C   UNL     1       8.229   8.680  18.189  0.00  0.00    +0.000 C 
ATOM     19  O   UNL     1       8.616   7.804  18.957  0.00  0.00    +0.000 OA
ATOM     20  H   UNL     1       6.799   9.350  16.789  0.00  0.00    +0.000 HD
BRANCH  18  21
ATOM     21  C   UNL     1       8.822  10.032  18.282  0.00  0.00    +0.000 A 
ATOM     22  C   UNL     1       8.356  11.106  17.490  0.00  0.00    +0.000 A 
ATOM     23  C   UNL     1       8.816  12.405  17.724  0.00  0.00    +0.000 A 
ATOM     24  C   UNL     1       9.697  12.584  18.769  0.00  0.00    +0.000 A 
ATOM     25  C   UNL     1      10.196  11.524  19.496  0.00  0.00    +0.000 A 
ATOM     26  C   UNL     1       9.812  10.229  19.253  0.00  0.00    +0.000 A 
ATOM     27  O   UNL     1      11.000  11.936  20.515  0.00  0.00    +0.000 OA
ATOM     28  C   UNL     1      10.654  13.334  20.531  0.00  0.00    +0.000 C 
ATOM     29  O   UNL     1      10.114  13.780  19.268  0.00  0.00    +0.000 OA
ENDBRANCH  18  21
ENDBRANCH   2  17
TORSDOF 7
ENDMDL
MODEL 3
REMARK VINA RESULT:      -7.4      2.052      9.458
REMARK  Name = 
REMARK  9 active torsions:
REMARK  status: ('A' for Active; 'I' for Inactive)
REMARK    1  A    between atoms: C_1  and  O_2
REMARK    2  A    between atoms: O_2  and  C_3
REMARK    3  A    between atoms: C_6  and  C_7
REMARK    4  A    between atoms: N_8  and  N_9
REMARK    5  A    between atoms: C_10  and  C_12
REMARK    6  A    between atoms: C_21  and  C_22
REMARK    7  A    between atoms: C_22  and  O_24
REMARK    8  A    between atoms: C_25  and  O_26
REMARK    9  A    between atoms: O_26  and  C_27
REMARK                            x       y       z     vdW  Elec       q    Type
REMARK                         _______ _______ _______ _____ _____    ______ ____
ROOT
ATOM      1  C   UNL     1       0.938   9.300  19.632  0.00  0.00    +0.000 C 
ATOM      2  N   UNL     1       1.561   8.309  20.181  0.00  0.00    +0.000 NA
ENDROOT
BRANCH   1   6
ATOM      3  C   UNL     1      -1.354  11.696  22.348  0.00  0.00    +0.000 A 
ATOM      4  C   UNL     1      -0.565  10.630  22.785  0.00  0.00    +0.000 A 
ATOM      5  C   UNL     1       0.151   9.876  21.870  0.00  0.00    +0.000 A 
ATOM      6  C   UNL     1       0.079  10.149  20.496  0.00  0.00    +0.000 A 
ATOM      7  C   UNL     1      -0.769  11.167  20.026  0.00  0.00    +0.000 A 
ATOM      8  C   UNL     1      -1.514  11.940  20.966  0.00  0.00    +0.000 A 
BRANCH   3  10
ATOM      9  C   UNL     1      -1.379  13.760  23.502  0.00  0.00    +0.000 C 
ATOM     10  O   UNL     1      -1.989  12.485  23.271  0.00  0.00    +0.000 OA
ENDBRANCH   3  10
BRANCH   7  11
ATOM     11  C   UNL     1      -0.790  11.481  18.567  0.00  0.00    +0.000 C 
ATOM     12  O   UNL     1      -1.450  10.859  17.753  0.00  0.00    +0.000 OA
BRANCH  11  13
ATOM     13  O   UNL     1      -0.063  12.559  18.188  0.00  0.00    +0.000 OA
ATOM     14  H   UNL     1      -0.622  13.282  17.826  0.00  0.00    +0.000 HD
ENDBRANCH  11  13
ENDBRANCH   7  11
BRANCH   8  15
ATOM     15  O   UNL     1      -2.354  12.878  20.407  0.00  0.00    +0.000 OA
ATOM     16  C   UNL     1      -3.752  12.630  20.314  0.00  0.00    +0.000 C 
ENDBRANCH   8  15
ENDBRANCH   1   6
BRANCH   2  17
ATOM     17  N   UNL     1       2.366   7.545  19.407  0.00  0.00    +0.000 N 
ATOM     18  C   UNL     1       2.484   6.200  19.738  0.00  0.00    +0.000 C 
ATOM     19  O   UNL     1       1.899   5.638  20.660  0.00  0.00    +0.000 OA
ATOM     20  H   UNL     1       3.003   7.994  18.757  0.00  0.00    +0.000 HD
BRANCH  18  21
ATOM     21  C   UNL     1       3.476   5.439  18.947  0.00  0.00    +0.000 A 
ATOM     22  C   UNL     1       3.173   4.937  17.661  0.00  0.00    +0.000 A 
ATOM     23  C   UNL     1       4.181   4.376  16.870  0.00  0.00    +0.000 A 
ATOM     24  C   UNL     1       5.460   4.376  17.383  0.00  0.00    +0.000 A 
ATOM     25  C   UNL     1       5.736   4.809  18.662  0.00  0.00    +0.000 A 
ATOM     26  C   UNL     1       4.761   5.309  19.488  0.00  0.00    +0.000 A 
ATOM     27  O   UNL     1       7.069   4.776  18.938  0.00  0.00    +0.000 OA
ATOM     28  C   UNL     1       7.577   4.614  17.599  0.00  0.00    +0.000 C 
ATOM     29  O   UNL     1       6.594   4.047  16.705  0.00  0.00    +0.000 OA
ENDBRANCH  18  21
ENDBRANCH   2  17
TORSDOF 7
ENDMDL
MODEL 4
REMARK VINA RESULT:      -7.3      2.089      9.354
REMARK  Name = 
REMARK  9 active torsions:
REMARK  status: ('A' for Active; 'I' for Inactive)
REMARK    1  A    between atoms: C_1  and  O_2
REMARK    2  A    between atoms: O_2  and  C_3
REMARK    3  A    between atoms: C_6  and  C_7
REMARK    4  A    between atoms: N_8  and  N_9
REMARK    5  A    between atoms: C_10  and  C_12
REMARK    6  A    between atoms: C_21  and  C_22
REMARK    7  A    between atoms: C_22  and  O_24
REMARK    8  A    between atoms: C_25  and  O_26
REMARK    9  A    between atoms: O_26  and  C_27
REMARK                            x       y       z     vdW  Elec       q    Type
REMARK                         _______ _______ _______ _____ _____    ______ ____
ROOT
ATOM      1  C   UNL     1       0.514   9.634  19.137  0.00  0.00    +0.000 C 
ATOM      2  N   UNL     1       1.390   8.866  19.700  0.00  0.00    +0.000 NA
ENDROOT
BRANCH   1   6
ATOM      3  C   UNL     1      -1.649  12.143  21.856  0.00  0.00    +0.000 A 
ATOM      4  C   UNL     1      -0.718  11.202  22.298  0.00  0.00    +0.000 A 
ATOM      5  C   UNL     1      -0.049  10.404  21.384  0.00  0.00    +0.000 A 
ATOM      6  C   UNL     1      -0.311  10.507  20.009  0.00  0.00    +0.000 A 
ATOM      7  C   UNL     1      -1.301  11.393  19.547  0.00  0.00    +0.000 A 
ATOM      8  C   UNL     1      -1.996  12.210  20.488  0.00  0.00    +0.000 A 
BRANCH   3  10
ATOM      9  C   UNL     1      -3.249  12.378  23.582  0.00  0.00    +0.000 C 
ATOM     10  O   UNL     1      -2.240  12.982  22.764  0.00  0.00    +0.000 OA
ENDBRANCH   3  10
BRANCH   7  11
ATOM     11  C   UNL     1      -1.524  11.531  18.079  0.00  0.00    +0.000 C 
ATOM     12  O   UNL     1      -2.062  10.676  17.395  0.00  0.00    +0.000 OA
BRANCH  11  13
ATOM     13  O   UNL     1      -1.143  12.711  17.534  0.00  0.00    +0.000 OA
ATOM     14  H   UNL     1      -0.700  12.598  16.664  0.00  0.00    +0.000 HD
ENDBRANCH  11  13
ENDBRANCH   7  11
BRANCH   8  15
ATOM     15  O   UNL     1      -2.980  13.006  19.946  0.00  0.00    +0.000 OA
ATOM     16  C   UNL     1      -4.344  12.602  19.997  0.00  0.00    +0.000 C 
ENDBRANCH   8  15
ENDBRANCH   1   6
BRANCH   2  17
ATOM     17  N   UNL     1       2.164   8.085  18.911  0.00  0.00    +0.000 N 
ATOM     18  C   UNL     1       2.384   6.777  19.325  0.00  0.00    +0.000 C 
ATOM     19  O   UNL     1       1.915   6.260  20.335  0.00  0.00    +0.000 OA
ATOM     20  H   UNL     1       2.715   8.514  18.174  0.00  0.00    +0.000 HD
BRANCH  18  21
ATOM     21  C   UNL     1       3.342   6.006  18.502  0.00  0.00    +0.000 A 
ATOM     22  C   UNL     1       3.401   4.595  18.555  0.00  0.00    +0.000 A 
ATOM     23  C   UNL     1       4.190   3.889  17.643  0.00  0.00    +0.000 A 
ATOM     24  C   UNL     1       4.860   4.622  16.688  0.00  0.00    +0.000 A 
ATOM     25  C   UNL     1       4.849   6.001  16.681  0.00  0.00    +0.000 A 
ATOM     26  C   UNL     1       4.133   6.727  17.599  0.00  0.00    +0.000 A 
ATOM     27  O   UNL     1       5.526   6.513  15.617  0.00  0.00    +0.000 OA
ATOM     28  C   UNL     1       5.640   5.319  14.819  0.00  0.00    +0.000 C 
ATOM     29  O   UNL     1       5.526   4.117  15.612  0.00  0.00    +0.000 OA
ENDBRANCH  18  21
ENDBRANCH   2  17
TORSDOF 7
ENDMDL
MODEL 5
REMARK VINA RESULT:      -7.3      2.728      9.255
REMARK  Name = 
REMARK  9 active torsions:
REMARK  status: ('A' for Active; 'I' for Inactive)
REMARK    1  A    between atoms: C_1  and  O_2
REMARK    2  A    between atoms: O_2  and  C_3
REMARK    3  A    between atoms: C_6  and  C_7
REMARK    4  A    between atoms: N_8  and  N_9
REMARK    5  A    between atoms: C_10  and  C_12
REMARK    6  A    between atoms: C_21  and  C_22
REMARK    7  A    between atoms: C_22  and  O_24
REMARK    8  A    between atoms: C_25  and  O_26
REMARK    9  A    between atoms: O_26  and  C_27
REMARK                            x       y       z     vdW  Elec       q    Type
REMARK                         _______ _______ _______ _____ _____    ______ ____
ROOT
ATOM      1  C   UNL     1       1.712   8.954  20.906  0.00  0.00    +0.000 C 
ATOM      2  N   UNL     1       1.380   8.246  19.876  0.00  0.00    +0.000 NA
ENDROOT
BRANCH   1   6
ATOM      3  C   UNL     1      -1.067  11.710  22.653  0.00  0.00    +0.000 A 
ATOM      4  C   UNL     1      -0.778  10.476  23.240  0.00  0.00    +0.000 A 
ATOM      5  C   UNL     1       0.119   9.612  22.635  0.00  0.00    +0.000 A 
ATOM      6  C   UNL     1       0.731   9.945  21.417  0.00  0.00    +0.000 A 
ATOM      7  C   UNL     1       0.397  11.147  20.768  0.00  0.00    +0.000 A 
ATOM      8  C   UNL     1      -0.533  12.034  21.386  0.00  0.00    +0.000 A 
BRANCH   3  10
ATOM      9  C   UNL     1      -3.245  12.150  23.463  0.00  0.00    +0.000 C 
ATOM     10  O   UNL     1      -1.891  12.589  23.305  0.00  0.00    +0.000 OA
ENDBRANCH   3  10
BRANCH   7  11
ATOM     11  C   UNL     1       1.100  11.510  19.503  0.00  0.00    +0.000 C 
ATOM     12  O   UNL     1       2.018  12.310  19.448  0.00  0.00    +0.000 OA
BRANCH  11  13
ATOM     13  O   UNL     1       0.697  10.844  18.395  0.00  0.00    +0.000 OA
ATOM     14  H   UNL     1      -0.276  10.883  18.265  0.00  0.00    +0.000 HD
ENDBRANCH  11  13
ENDBRANCH   7  11
BRANCH   8  15
ATOM     15  O   UNL     1      -0.835  13.159  20.651  0.00  0.00    +0.000 OA
ATOM     16  C   UNL     1      -2.076  13.258  19.960  0.00  0.00    +0.000 C 
ENDBRANCH   8  15
ENDBRANCH   1   6
BRANCH   2  17
ATOM     17  N   UNL     1       2.257   7.323  19.418  0.00  0.00    +0.000 N 
ATOM     18  C   UNL     1       2.794   7.522  18.152  0.00  0.00    +0.000 C 
ATOM     19  O   UNL     1       2.559   8.480  17.420  0.00  0.00    +0.000 OA
ATOM     20  H   UNL     1       2.341   6.434  19.901  0.00  0.00    +0.000 HD
BRANCH  18  21
ATOM     21  C   UNL     1       3.641   6.421  17.644  0.00  0.00    +0.000 A 
ATOM     22  C   UNL     1       3.233   5.070  17.726  0.00  0.00    +0.000 A 
ATOM     23  C   UNL     1       3.971   4.072  17.084  0.00  0.00    +0.000 A 
ATOM     24  C   UNL     1       5.068   4.470  16.352  0.00  0.00    +0.000 A 
ATOM     25  C   UNL     1       5.497   5.780  16.328  0.00  0.00    +0.000 A 
ATOM     26  C   UNL     1       4.831   6.777  16.996  0.00  0.00    +0.000 A 
ATOM     27  O   UNL     1       6.560   5.957  15.496  0.00  0.00    +0.000 OA
ATOM     28  C   UNL     1       6.499   4.710  14.776  0.00  0.00    +0.000 C 
ATOM     29  O   UNL     1       5.802   3.684  15.516  0.00  0.00    +0.000 OA
ENDBRANCH  18  21
ENDBRANCH   2  17
TORSDOF 7
ENDMDL
MODEL 6
REMARK VINA RESULT:      -7.2      1.616      9.487
REMARK  Name = 
REMARK  9 active torsions:
REMARK  status: ('A' for Active; 'I' for Inactive)
REMARK    1  A    between atoms: C_1  and  O_2
REMARK    2  A    between atoms: O_2  and  C_3
REMARK    3  A    between atoms: C_6  and  C_7
REMARK    4  A    between atoms: N_8  and  N_9
REMARK    5  A    between atoms: C_10  and  C_12
REMARK    6  A    between atoms: C_21  and  C_22
REMARK    7  A    between atoms: C_22  and  O_24
REMARK    8  A    between atoms: C_25  and  O_26
REMARK    9  A    between atoms: O_26  and  C_27
REMARK                            x       y       z     vdW  Elec       q    Type
REMARK                         _______ _______ _______ _____ _____    ______ ____
ROOT
ATOM      1  C   UNL     1       0.258   9.580  18.029  0.00  0.00    +0.000 C 
ATOM      2  N   UNL     1       1.479   9.548  18.454  0.00  0.00    +0.000 NA
ENDROOT
BRANCH   1   6
ATOM      3  C   UNL     1      -2.275  12.279  20.190  0.00  0.00    +0.000 A 
ATOM      4  C   UNL     1      -1.092  11.776  20.736  0.00  0.00    +0.000 A 
ATOM      5  C   UNL     1      -0.309  10.897  20.005  0.00  0.00    +0.000 A 
ATOM      6  C   UNL     1      -0.698  10.479  18.723  0.00  0.00    +0.000 A 
ATOM      7  C   UNL     1      -1.924  10.912  18.185  0.00  0.00    +0.000 A 
ATOM      8  C   UNL     1      -2.735  11.811  18.940  0.00  0.00    +0.000 A 
BRANCH   3  10
ATOM      9  C   UNL     1      -3.790  12.688  21.960  0.00  0.00    +0.000 C 
ATOM     10  O   UNL     1      -2.994  13.212  20.890  0.00  0.00    +0.000 OA
ENDBRANCH   3  10
BRANCH   7  11
ATOM     11  C   UNL     1      -2.294  10.503  16.799  0.00  0.00    +0.000 C 
ATOM     12  O   UNL     1      -2.653   9.377  16.501  0.00  0.00    +0.000 OA
BRANCH  11  13
ATOM     13  O   UNL     1      -2.267  11.487  15.869  0.00  0.00    +0.000 OA
ATOM     14  H   UNL     1      -1.433  11.490  15.348  0.00  0.00    +0.000 HD
ENDBRANCH  11  13
ENDBRANCH   7  11
BRANCH   8  15
ATOM     15  O   UNL     1      -3.937  12.136  18.353  0.00  0.00    +0.000 OA
ATOM     16  C   UNL     1      -5.112  11.391  18.653  0.00  0.00    +0.000 C 
ENDBRANCH   8  15
ENDBRANCH   1   6
BRANCH   2  17
ATOM     17  N   UNL     1       2.364   8.751  17.811  0.00  0.00    +0.000 N 
ATOM     18  C   UNL     1       2.748   7.577  18.450  0.00  0.00    +0.000 C 
ATOM     19  O   UNL     1       2.333   7.188  19.538  0.00  0.00    +0.000 OA
ATOM     20  H   UNL     1       2.867   9.113  17.008  0.00  0.00    +0.000 HD
BRANCH  18  21
ATOM     21  C   UNL     1       3.814   6.808  17.771  0.00  0.00    +0.000 A 
ATOM     22  C   UNL     1       4.224   7.111  16.452  0.00  0.00    +0.000 A 
ATOM     23  C   UNL     1       5.347   6.484  15.903  0.00  0.00    +0.000 A 
ATOM     24  C   UNL     1       6.039   5.608  16.711  0.00  0.00    +0.000 A 
ATOM     25  C   UNL     1       5.597   5.270  17.973  0.00  0.00    +0.000 A 
ATOM     26  C   UNL     1       4.465   5.821  18.520  0.00  0.00    +0.000 A 
ATOM     27  O   UNL     1       6.464   4.438  18.613  0.00  0.00    +0.000 OA
ATOM     28  C   UNL     1       7.610   4.593  17.754  0.00  0.00    +0.000 C 
ATOM     29  O   UNL     1       7.246   5.043  16.431  0.00  0.00    +0.000 OA
ENDBRANCH  18  21
ENDBRANCH   2  17
TORSDOF 7
ENDMDL
MODEL 7
REMARK VINA RESULT:      -7.2      0.925      1.702
REMARK  Name = 
REMARK  9 active torsions:
REMARK  status: ('A' for Active; 'I' for Inactive)
REMARK    1  A    between atoms: C_1  and  O_2
REMARK    2  A    between atoms: O_2  and  C_3
REMARK    3  A    between atoms: C_6  and  C_7
REMARK    4  A    between atoms: N_8  and  N_9
REMARK    5  A    between atoms: C_10  and  C_12
REMARK    6  A    between atoms: C_21  and  C_22
REMARK    7  A    between atoms: C_22  and  O_24
REMARK    8  A    between atoms: C_25  and  O_26
REMARK    9  A    between atoms: O_26  and  C_27
REMARK                            x       y       z     vdW  Elec       q    Type
REMARK                         _______ _______ _______ _____ _____    ______ ____
ROOT
ATOM      1  C   UNL     1       2.102   7.212  18.022  0.00  0.00    +0.000 C 
ATOM      2  N   UNL     1       2.138   8.505  18.047  0.00  0.00    +0.000 NA
ENDROOT
BRANCH   1   6
ATOM      3  C   UNL     1       5.943   5.335  18.332  0.00  0.00    +0.000 A 
ATOM      4  C   UNL     1       5.701   6.385  17.443  0.00  0.00    +0.000 A 
ATOM      5  C   UNL     1       4.441   6.955  17.369  0.00  0.00    +0.000 A 
ATOM      6  C   UNL     1       3.385   6.477  18.160  0.00  0.00    +0.000 A 
ATOM      7  C   UNL     1       3.586   5.370  19.005  0.00  0.00    +0.000 A 
ATOM      8  C   UNL     1       4.881   4.777  19.077  0.00  0.00    +0.000 A 
BRANCH   3  10
ATOM      9  C   UNL     1       8.102   5.632  19.250  0.00  0.00    +0.000 C 
ATOM     10  O   UNL     1       7.214   4.838  18.455  0.00  0.00    +0.000 OA
ENDBRANCH   3  10
BRANCH   7  11
ATOM     11  C   UNL     1       2.468   4.912  19.881  0.00  0.00    +0.000 C 
ATOM     12  O   UNL     1       1.529   4.245  19.482  0.00  0.00    +0.000 OA
BRANCH  11  13
ATOM     13  O   UNL     1       2.578   5.234  21.192  0.00  0.00    +0.000 OA
ATOM     14  H   UNL     1       2.040   4.648  21.769  0.00  0.00    +0.000 HD
ENDBRANCH  11  13
ENDBRANCH   7  11
BRANCH   8  15
ATOM     15  O   UNL     1       4.965   3.670  19.891  0.00  0.00    +0.000 OA
ATOM     16  C   UNL     1       4.504   2.402  19.436  0.00  0.00    +0.000 C 
ENDBRANCH   8  15
ENDBRANCH   1   6
BRANCH   2  17
ATOM     17  N   UNL     1       0.971   9.183  17.947  0.00  0.00    +0.000 N 
ATOM     18  C   UNL     1       0.447   9.729  19.113  0.00  0.00    +0.000 C 
ATOM     19  O   UNL     1       0.966   9.670  20.224  0.00  0.00    +0.000 OA
ATOM     20  H   UNL     1       0.420   9.102  17.099  0.00  0.00    +0.000 HD
BRANCH  18  21
ATOM     21  C   UNL     1      -0.892  10.342  18.977  0.00  0.00    +0.000 A 
ATOM     22  C   UNL     1      -1.272  11.473  19.735  0.00  0.00    +0.000 A 
ATOM     23  C   UNL     1      -2.474  12.133  19.459  0.00  0.00    +0.000 A 
ATOM     24  C   UNL     1      -3.230  11.656  18.410  0.00  0.00    +0.000 A 
ATOM     25  C   UNL     1      -2.885  10.516  17.718  0.00  0.00    +0.000 A 
ATOM     26  C   UNL     1      -1.743   9.809  18.001  0.00  0.00    +0.000 A 
ATOM     27  O   UNL     1      -3.738  10.264  16.687  0.00  0.00    +0.000 OA
ATOM     28  C   UNL     1      -4.408  11.539  16.626  0.00  0.00    +0.000 C 
ATOM     29  O   UNL     1      -4.326  12.261  17.874  0.00  0.00    +0.000 OA
ENDBRANCH  18  21
ENDBRANCH   2  17
TORSDOF 7
ENDMDL
MODEL 8
REMARK VINA RESULT:      -7.2      1.838      9.411
REMARK  Name = 
REMARK  9 active torsions:
REMARK  status: ('A' for Active; 'I' for Inactive)
REMARK    1  A    between atoms: C_1  and  O_2
REMARK    2  A    between atoms: O_2  and  C_3
REMARK    3  A    between atoms: C_6  and  C_7
REMARK    4  A    between atoms: N_8  and  N_9
REMARK    5  A    between atoms: C_10  and  C_12
REMARK    6  A    between atoms: C_21  and  C_22
REMARK    7  A    between atoms: C_22  and  O_24
REMARK    8  A    between atoms: C_25  and  O_26
REMARK    9  A    between atoms: O_26  and  C_27
REMARK                            x       y       z     vdW  Elec       q    Type
REMARK                         _______ _______ _______ _____ _____    ______ ____
ROOT
ATOM      1  C   UNL     1       0.233   9.625  18.201  0.00  0.00    +0.000 C 
ATOM      2  N   UNL     1       1.263   9.237  18.881  0.00  0.00    +0.000 NA
ENDROOT
BRANCH   1   6
ATOM      3  C   UNL     1      -2.324  12.383  20.256  0.00  0.00    +0.000 A 
ATOM      4  C   UNL     1      -1.147  11.896  20.829  0.00  0.00    +0.000 A 
ATOM      5  C   UNL     1      -0.356  10.998  20.132  0.00  0.00    +0.000 A 
ATOM      6  C   UNL     1      -0.731  10.543  18.859  0.00  0.00    +0.000 A 
ATOM      7  C   UNL     1      -1.950  10.959  18.295  0.00  0.00    +0.000 A 
ATOM      8  C   UNL     1      -2.770  11.878  19.015  0.00  0.00    +0.000 A 
BRANCH   3  10
ATOM      9  C   UNL     1      -3.639  12.899  22.152  0.00  0.00    +0.000 C 
ATOM     10  O   UNL     1      -3.051  13.335  20.921  0.00  0.00    +0.000 OA
ENDBRANCH   3  10
BRANCH   7  11
ATOM     11  C   UNL     1      -2.305  10.510  16.917  0.00  0.00    +0.000 C 
ATOM     12  O   UNL     1      -2.714   9.392  16.657  0.00  0.00    +0.000 OA
BRANCH  11  13
ATOM     13  O   UNL     1      -2.203  11.451  15.948  0.00  0.00    +0.000 OA
ATOM     14  H   UNL     1      -2.732  12.254  16.146  0.00  0.00    +0.000 HD
ENDBRANCH  11  13
ENDBRANCH   7  11
BRANCH   8  15
ATOM     15  O   UNL     1      -3.966  12.186  18.406  0.00  0.00    +0.000 OA
ATOM     16  C   UNL     1      -5.180  11.596  18.859  0.00  0.00    +0.000 C 
ENDBRANCH   8  15
ENDBRANCH   1   6
BRANCH   2  17
ATOM     17  N   UNL     1       2.160   8.420  18.282  0.00  0.00    +0.000 N 
ATOM     18  C   UNL     1       2.507   7.251  18.949  0.00  0.00    +0.000 C 
ATOM     19  O   UNL     1       2.050   6.883  20.027  0.00  0.00    +0.000 OA
ATOM     20  H   UNL     1       2.695   8.765  17.492  0.00  0.00    +0.000 HD
BRANCH  18  21
ATOM     21  C   UNL     1       3.588   6.461  18.319  0.00  0.00    +0.000 A 
ATOM     22  C   UNL     1       3.959   5.188  18.807  0.00  0.00    +0.000 A 
ATOM     23  C   UNL     1       4.859   4.394  18.089  0.00  0.00    +0.000 A 
ATOM     24  C   UNL     1       5.322   4.892  16.891  0.00  0.00    +0.000 A 
ATOM     25  C   UNL     1       5.006   6.160  16.452  0.00  0.00    +0.000 A 
ATOM     26  C   UNL     1       4.173   6.989  17.162  0.00  0.00    +0.000 A 
ATOM     27  O   UNL     1       5.521   6.419  15.219  0.00  0.00    +0.000 OA
ATOM     28  C   UNL     1       5.874   5.078  14.830  0.00  0.00    +0.000 C 
ATOM     29  O   UNL     1       6.052   4.205  15.968  0.00  0.00    +0.000 OA
ENDBRANCH  18  21
ENDBRANCH   2  17
TORSDOF 7
ENDMDL
MODEL 9
REMARK VINA RESULT:      -7.2      1.767      2.378
REMARK  Name = 
REMARK  9 active torsions:
REMARK  status: ('A' for Active; 'I' for Inactive)
REMARK    1  A    between atoms: C_1  and  O_2
REMARK    2  A    between atoms: O_2  and  C_3
REMARK    3  A    between atoms: C_6  and  C_7
REMARK    4  A    between atoms: N_8  and  N_9
REMARK    5  A    between atoms: C_10  and  C_12
REMARK    6  A    between atoms: C_21  and  C_22
REMARK    7  A    between atoms: C_22  and  O_24
REMARK    8  A    between atoms: C_25  and  O_26
REMARK    9  A    between atoms: O_26  and  C_27
REMARK                            x       y       z     vdW  Elec       q    Type
REMARK                         _______ _______ _______ _____ _____    ______ ____
ROOT
ATOM      1  C   UNL     1       1.965   7.677  18.711  0.00  0.00    +0.000 C 
ATOM      2  N   UNL     1       1.958   8.273  19.858  0.00  0.00    +0.000 NA
ENDROOT
BRANCH   1   6
ATOM      3  C   UNL     1       5.241   5.046  17.865  0.00  0.00    +0.000 A 
ATOM      4  C   UNL     1       5.090   6.273  17.216  0.00  0.00    +0.000 A 
ATOM      5  C   UNL     1       4.010   7.087  17.514  0.00  0.00    +0.000 A 
ATOM      6  C   UNL     1       3.040   6.688  18.446  0.00  0.00    +0.000 A 
ATOM      7  C   UNL     1       3.130   5.422  19.054  0.00  0.00    +0.000 A 
ATOM      8  C   UNL     1       4.238   4.579  18.743  0.00  0.00    +0.000 A 
BRANCH   3  10
ATOM      9  C   UNL     1       7.075   4.630  16.431  0.00  0.00    +0.000 C 
ATOM     10  O   UNL     1       6.358   4.290  17.623  0.00  0.00    +0.000 OA
ENDBRANCH   3  10
BRANCH   7  11
ATOM     11  C   UNL     1       2.121   5.038  20.085  0.00  0.00    +0.000 C 
ATOM     12  O   UNL     1       1.147   4.344  19.849  0.00  0.00    +0.000 OA
BRANCH  11  13
ATOM     13  O   UNL     1       2.378   5.462  21.345  0.00  0.00    +0.000 OA
ATOM     14  H   UNL     1       2.765   4.756  21.908  0.00  0.00    +0.000 HD
ENDBRANCH  11  13
ENDBRANCH   7  11
BRANCH   8  15
ATOM     15  O   UNL     1       4.210   3.343  19.348  0.00  0.00    +0.000 OA
ATOM     16  C   UNL     1       3.707   2.209  18.649  0.00  0.00    +0.000 C 
ENDBRANCH   8  15
ENDBRANCH   1   6
BRANCH   2  17
ATOM     17  N   UNL     1       0.968   9.158  20.118  0.00  0.00    +0.000 N 
ATOM     18  C   UNL     1       0.851   9.622  21.423  0.00  0.00    +0.000 C 
ATOM     19  O   UNL     1       1.586   9.317  22.357  0.00  0.00    +0.000 OA
ATOM     20  H   UNL     1       0.233   9.297  19.432  0.00  0.00    +0.000 HD
BRANCH  18  21
ATOM     21  C   UNL     1      -0.326  10.481  21.685  0.00  0.00    +0.000 A 
ATOM     22  C   UNL     1      -0.874  10.615  22.981  0.00  0.00    +0.000 A 
ATOM     23  C   UNL     1      -1.871  11.564  23.228  0.00  0.00    +0.000 A 
ATOM     24  C   UNL     1      -2.253  12.367  22.175  0.00  0.00    +0.000 A 
ATOM     25  C   UNL     1      -1.760  12.187  20.900  0.00  0.00    +0.000 A 
ATOM     26  C   UNL     1      -0.825  11.226  20.610  0.00  0.00    +0.000 A 
ATOM     27  O   UNL     1      -2.227  13.128  20.034  0.00  0.00    +0.000 OA
ATOM     28  C   UNL     1      -2.761  14.072  20.982  0.00  0.00    +0.000 C 
ATOM     29  O   UNL     1      -3.065  13.457  22.254  0.00  0.00    +0.000 OA
ENDBRANCH  18  21
ENDBRANCH   2  17
TORSDOF 7
ENDMDL
