MODEL 1
REMARK VINA RESULT:      -8.5      0.000      0.000
REMARK  Name = 
REMARK  6 active torsions:
REMARK  status: ('A' for Active; 'I' for Inactive)
REMARK    1  A    between atoms: C_1  and  C_2
REMARK    2  A    between atoms: C_2  and  C_3
REMARK    3  A    between atoms: C_2  and  C_4
REMARK    4  A    between atoms: C_4  and  N_5
REMARK    5  A    between atoms: C_6  and  C_8
REMARK    6  A    between atoms: C_15  and  C_16
REMARK                            x       y       z     vdW  Elec       q    Type
REMARK                         _______ _______ _______ _____ _____    ______ ____
ROOT
ATOM      1  C   UNL     1       0.782   9.587  19.156  0.00  0.00    +0.000 A 
ATOM      2  C   UNL     1       0.513   9.222  20.479  0.00  0.00    +0.000 A 
ATOM      3  C   UNL     1       1.136   8.098  21.028  0.00  0.00    +0.000 A 
ATOM      4  C   UNL     1       2.018   7.326  20.258  0.00  0.00    +0.000 A 
ATOM      5  C   UNL     1       2.263   7.659  18.912  0.00  0.00    +0.000 A 
ATOM      6  C   UNL     1       1.646   8.800  18.382  0.00  0.00    +0.000 A 
ATOM      7  N   UNL     1       3.181   6.987  18.077  0.00  0.00    +0.000 NA
ATOM      8  C   UNL     1       3.204   5.696  17.918  0.00  0.00    +0.000 C 
ATOM      9  C   UNL     1       2.259   4.718  18.543  0.00  0.00    +0.000 A 
ATOM     10  C   UNL     1       1.611   3.781  17.718  0.00  0.00    +0.000 A 
ATOM     11  C   UNL     1       0.835   2.768  18.281  0.00  0.00    +0.000 A 
ATOM     12  C   UNL     1       0.692   2.691  19.663  0.00  0.00    +0.000 A 
ATOM     13  C   UNL     1       1.303   3.640  20.485  0.00  0.00    +0.000 A 
ATOM     14  C   UNL     1       2.080   4.666  19.933  0.00  0.00    +0.000 A 
ATOM     15  S   UNL     1       2.767   5.893  21.029  0.00  0.00    +0.000 S 
ENDROOT
BRANCH   8  16
ATOM     16  C   UNL     1       4.253   5.168  17.039  0.00  0.00    +0.000 A 
ATOM     17  C   UNL     1       4.634   3.847  16.855  0.00  0.00    +0.000 A 
ATOM     18  C   UNL     1       5.711   3.709  15.925  0.00  0.00    +0.000 A 
ATOM     19  C   UNL     1       6.069   4.923  15.403  0.00  0.00    +0.000 A 
ATOM     20 CL   UNL     1       7.308   5.228  14.254  0.00  0.00    +0.000 Cl
ATOM     21  S   UNL     1       5.146   6.207  15.992  0.00  0.00    +0.000 S 
ENDBRANCH   8  16
BRANCH   1  23
ATOM     22  N   UNL     1      -1.039  10.570  17.866  0.00  0.00    +0.000 N 
ATOM     23  C   UNL     1       0.152  10.782  18.529  0.00  0.00    +0.000 C 
ATOM     24  O   UNL     1       0.682  11.881  18.638  0.00  0.00    +0.000 OA
ATOM     25  H   UNL     1      -1.489   9.667  17.914  0.00  0.00    +0.000 HD
BRANCH  22  26
ATOM     26  C   UNL     1      -1.760  11.649  17.214  0.00  0.00    +0.000 C 
BRANCH  26  28
ATOM     27  C   UNL     1      -2.963  10.592  15.245  0.00  0.00    +0.000 C 
ATOM     28  C   UNL     1      -3.115  11.200  16.642  0.00  0.00    +0.000 C 
ATOM     29  C   UNL     1      -3.775  10.183  17.575  0.00  0.00    +0.000 C 
ENDBRANCH  26  28
ENDBRANCH  22  26
ENDBRANCH   1  23
TORSDOF 4
ENDMDL
MODEL 2
REMARK VINA RESULT:      -8.0      1.200      1.292
REMARK  Name = 
REMARK  6 active torsions:
REMARK  status: ('A' for Active; 'I' for Inactive)
REMARK    1  A    between atoms: C_1  and  C_2
REMARK    2  A    between atoms: C_2  and  C_3
REMARK    3  A    between atoms: C_2  and  C_4
REMARK    4  A    between atoms: C_4  and  N_5
REMARK    5  A    between atoms: C_6  and  C_8
REMARK    6  A    between atoms: C_15  and  C_16
REMARK                            x       y       z     vdW  Elec       q    Type
REMARK                         _______ _______ _______ _____ _____    ______ ____
ROOT
ATOM      1  C   UNL     1       0.013   9.951  19.327  0.00  0.00    +0.000 A 
ATOM      2  C   UNL     1      -0.345   9.509  20.605  0.00  0.00    +0.000 A 
ATOM      3  C   UNL     1       0.365   8.463  21.200  0.00  0.00    +0.000 A 
ATOM      4  C   UNL     1       1.425   7.845  20.521  0.00  0.00    +0.000 A 
ATOM      5  C   UNL     1       1.767   8.252  19.217  0.00  0.00    +0.000 A 
ATOM      6  C   UNL     1       1.058   9.315  18.641  0.00  0.00    +0.000 A 
ATOM      7  N   UNL     1       2.855   7.739  18.480  0.00  0.00    +0.000 NA
ATOM      8  C   UNL     1       3.074   6.469  18.302  0.00  0.00    +0.000 C 
ATOM      9  C   UNL     1       2.213   5.351  18.799  0.00  0.00    +0.000 A 
ATOM     10  C   UNL     1       1.796   4.362  17.890  0.00  0.00    +0.000 A 
ATOM     11  C   UNL     1       1.112   3.235  18.344  0.00  0.00    +0.000 A 
ATOM     12  C   UNL     1       0.831   3.094  19.700  0.00  0.00    +0.000 A 
ATOM     13  C   UNL     1       1.210   4.090  20.602  0.00  0.00    +0.000 A 
ATOM     14  C   UNL     1       1.892   5.230  20.158  0.00  0.00    +0.000 A 
ATOM     15  S   UNL     1       2.278   6.502  21.347  0.00  0.00    +0.000 S 
ENDROOT
BRANCH   8  16
ATOM     16  C   UNL     1       4.277   6.118  17.537  0.00  0.00    +0.000 A 
ATOM     17  C   UNL     1       4.666   6.580  16.289  0.00  0.00    +0.000 A 
ATOM     18  C   UNL     1       5.898   6.005  15.848  0.00  0.00    +0.000 A 
ATOM     19  C   UNL     1       6.419   5.170  16.799  0.00  0.00    +0.000 A 
ATOM     20 CL   UNL     1       7.879   4.272  16.696  0.00  0.00    +0.000 Cl
ATOM     21  S   UNL     1       5.479   5.071  18.197  0.00  0.00    +0.000 S 
ENDBRANCH   8  16
BRANCH   1  23
ATOM     22  N   UNL     1      -1.387  10.750  17.497  0.00  0.00    +0.000 N 
ATOM     23  C   UNL     1      -0.705  11.068  18.653  0.00  0.00    +0.000 C 
ATOM     24  O   UNL     1      -0.686  12.190  19.143  0.00  0.00    +0.000 OA
ATOM     25  H   UNL     1      -1.468   9.785  17.209  0.00  0.00    +0.000 HD
BRANCH  22  26
ATOM     26  C   UNL     1      -2.132  11.744  16.745  0.00  0.00    +0.000 C 
BRANCH  26  28
ATOM     27  C   UNL     1      -2.978   9.647  15.592  0.00  0.00    +0.000 C 
ATOM     28  C   UNL     1      -3.246  11.127  15.883  0.00  0.00    +0.000 C 
ATOM     29  C   UNL     1      -4.601  11.276  16.578  0.00  0.00    +0.000 C 
ENDBRANCH  26  28
ENDBRANCH  22  26
ENDBRANCH   1  23
TORSDOF 4
ENDMDL
MODEL 3
REMARK VINA RESULT:      -7.7      1.550      2.224
REMARK  Name = 
REMARK  6 active torsions:
REMARK  status: ('A' for Active; 'I' for Inactive)
REMARK    1  A    between atoms: C_1  and  C_2
REMARK    2  A    between atoms: C_2  and  C_3
REMARK    3  A    between atoms: C_2  and  C_4
REMARK    4  A    between atoms: C_4  and  N_5
REMARK    5  A    between atoms: C_6  and  C_8
REMARK    6  A    between atoms: C_15  and  C_16
REMARK                            x       y       z     vdW  Elec       q    Type
REMARK                         _______ _______ _______ _____ _____    ______ ____
ROOT
ATOM      1  C   UNL     1       0.715   9.655  19.178  0.00  0.00    +0.000 A 
ATOM      2  C   UNL     1       0.436   9.288  20.498  0.00  0.00    +0.000 A 
ATOM      3  C   UNL     1       1.056   8.164  21.050  0.00  0.00    +0.000 A 
ATOM      4  C   UNL     1       1.945   7.394  20.286  0.00  0.00    +0.000 A 
ATOM      5  C   UNL     1       2.201   7.729  18.942  0.00  0.00    +0.000 A 
ATOM      6  C   UNL     1       1.586   8.870  18.409  0.00  0.00    +0.000 A 
ATOM      7  N   UNL     1       3.125   7.059  18.114  0.00  0.00    +0.000 NA
ATOM      8  C   UNL     1       3.151   5.768  17.953  0.00  0.00    +0.000 C 
ATOM      9  C   UNL     1       2.202   4.788  18.569  0.00  0.00    +0.000 A 
ATOM     10  C   UNL     1       1.562   3.852  17.738  0.00  0.00    +0.000 A 
ATOM     11  C   UNL     1       0.783   2.837  18.293  0.00  0.00    +0.000 A 
ATOM     12  C   UNL     1       0.629   2.758  19.674  0.00  0.00    +0.000 A 
ATOM     13  C   UNL     1       1.232   3.707  20.502  0.00  0.00    +0.000 A 
ATOM     14  C   UNL     1       2.012   4.734  19.957  0.00  0.00    +0.000 A 
ATOM     15  S   UNL     1       2.689   5.960  21.061  0.00  0.00    +0.000 S 
ENDROOT
BRANCH   8  16
ATOM     16  C   UNL     1       4.208   5.242  17.082  0.00  0.00    +0.000 A 
ATOM     17  C   UNL     1       4.582   3.921  16.886  0.00  0.00    +0.000 A 
ATOM     18  C   UNL     1       5.669   3.786  15.969  0.00  0.00    +0.000 A 
ATOM     19  C   UNL     1       6.043   5.004  15.467  0.00  0.00    +0.000 A 
ATOM     20 CL   UNL     1       7.299   5.313  14.337  0.00  0.00    +0.000 Cl
ATOM     21  S   UNL     1       5.122   6.288  16.058  0.00  0.00    +0.000 S 
ENDBRANCH   8  16
BRANCH   1  23
ATOM     22  N   UNL     1       0.743  12.051  18.724  0.00  0.00    +0.000 N 
ATOM     23  C   UNL     1       0.089  10.850  18.547  0.00  0.00    +0.000 C 
ATOM     24  O   UNL     1      -0.940  10.727  17.894  0.00  0.00    +0.000 OA
ATOM     25  H   UNL     1       1.651  12.070  19.167  0.00  0.00    +0.000 HD
BRANCH  22  26
ATOM     26  C   UNL     1       0.243  13.291  18.158  0.00  0.00    +0.000 C 
BRANCH  26  28
ATOM     27  C   UNL     1       0.381  14.067  20.570  0.00  0.00    +0.000 C 
ATOM     28  C   UNL     1      -0.324  14.245  19.223  0.00  0.00    +0.000 C 
ATOM     29  C   UNL     1      -0.188  15.698  18.761  0.00  0.00    +0.000 C 
ENDBRANCH  26  28
ENDBRANCH  22  26
ENDBRANCH   1  23
TORSDOF 4
ENDMDL
MODEL 4
REMARK VINA RESULT:      -7.5      1.340      1.665
REMARK  Name = 
REMARK  6 active torsions:
REMARK  status: ('A' for Active; 'I' for Inactive)
REMARK    1  A    between atoms: C_1  and  C_2
REMARK    2  A    between atoms: C_2  and  C_3
REMARK    3  A    between atoms: C_2  and  C_4
REMARK    4  A    between atoms: C_4  and  N_5
REMARK    5  A    between atoms: C_6  and  C_8
REMARK    6  A    between atoms: C_15  and  C_16
REMARK                            x       y       z     vdW  Elec       q    Type
REMARK                         _______ _______ _______ _____ _____    ______ ____
ROOT
ATOM      1  C   UNL     1      -0.091   9.913  19.408  0.00  0.00    +0.000 A 
ATOM      2  C   UNL     1      -0.391   9.466  20.698  0.00  0.00    +0.000 A 
ATOM      3  C   UNL     1       0.361   8.434  21.266  0.00  0.00    +0.000 A 
ATOM      4  C   UNL     1       1.406   7.836  20.548  0.00  0.00    +0.000 A 
ATOM      5  C   UNL     1       1.690   8.248  19.232  0.00  0.00    +0.000 A 
ATOM      6  C   UNL     1       0.939   9.297  18.683  0.00  0.00    +0.000 A 
ATOM      7  N   UNL     1       2.759   7.757  18.454  0.00  0.00    +0.000 NA
ATOM      8  C   UNL     1       2.996   6.491  18.267  0.00  0.00    +0.000 C 
ATOM      9  C   UNL     1       2.176   5.357  18.797  0.00  0.00    +0.000 A 
ATOM     10  C   UNL     1       1.744   4.359  17.905  0.00  0.00    +0.000 A 
ATOM     11  C   UNL     1       1.100   3.219  18.385  0.00  0.00    +0.000 A 
ATOM     12  C   UNL     1       0.873   3.074  19.750  0.00  0.00    +0.000 A 
ATOM     13  C   UNL     1       1.267   4.078  20.637  0.00  0.00    +0.000 A 
ATOM     14  C   UNL     1       1.910   5.231  20.168  0.00  0.00    +0.000 A 
ATOM     15  S   UNL     1       2.315   6.511  21.340  0.00  0.00    +0.000 S 
ENDROOT
BRANCH   8  16
ATOM     16  C   UNL     1       4.176   6.163  17.458  0.00  0.00    +0.000 A 
ATOM     17  C   UNL     1       4.532   6.667  16.216  0.00  0.00    +0.000 A 
ATOM     18  C   UNL     1       5.748   6.103  15.721  0.00  0.00    +0.000 A 
ATOM     19  C   UNL     1       6.292   5.233  16.628  0.00  0.00    +0.000 A 
ATOM     20 CL   UNL     1       7.744   4.334  16.452  0.00  0.00    +0.000 Cl
ATOM     21  S   UNL     1       5.390   5.089  18.046  0.00  0.00    +0.000 S 
ENDBRANCH   8  16
BRANCH   1  23
ATOM     22  N   UNL     1      -2.133  10.712  18.342  0.00  0.00    +0.000 N 
ATOM     23  C   UNL     1      -0.855  11.016  18.762  0.00  0.00    +0.000 C 
ATOM     24  O   UNL     1      -0.350  12.126  18.649  0.00  0.00    +0.000 OA
ATOM     25  H   UNL     1      -2.540   9.816  18.571  0.00  0.00    +0.000 HD
BRANCH  22  26
ATOM     26  C   UNL     1      -2.988  11.696  17.701  0.00  0.00    +0.000 C 
BRANCH  26  28
ATOM     27  C   UNL     1      -4.712  12.360  19.440  0.00  0.00    +0.000 C 
ATOM     28  C   UNL     1      -4.456  11.588  18.143  0.00  0.00    +0.000 C 
ATOM     29  C   UNL     1      -5.383  12.111  17.044  0.00  0.00    +0.000 C 
ENDBRANCH  26  28
ENDBRANCH  22  26
ENDBRANCH   1  23
TORSDOF 4
ENDMDL
MODEL 5
REMARK VINA RESULT:      -7.5      1.175      1.510
REMARK  Name = 
REMARK  6 active torsions:
REMARK  status: ('A' for Active; 'I' for Inactive)
REMARK    1  A    between atoms: C_1  and  C_2
REMARK    2  A    between atoms: C_2  and  C_3
REMARK    3  A    between atoms: C_2  and  C_4
REMARK    4  A    between atoms: C_4  and  N_5
REMARK    5  A    between atoms: C_6  and  C_8
REMARK    6  A    between atoms: C_15  and  C_16
REMARK                            x       y       z     vdW  Elec       q    Type
REMARK                         _______ _______ _______ _____ _____    ______ ____
ROOT
ATOM      1  C   UNL     1       0.870   9.450  19.520  0.00  0.00    +0.000 A 
ATOM      2  C   UNL     1       0.562   8.981  20.801  0.00  0.00    +0.000 A 
ATOM      3  C   UNL     1       1.139   7.795  21.262  0.00  0.00    +0.000 A 
ATOM      4  C   UNL     1       2.015   7.065  20.445  0.00  0.00    +0.000 A 
ATOM      5  C   UNL     1       2.300   7.505  19.138  0.00  0.00    +0.000 A 
ATOM      6  C   UNL     1       1.728   8.706  18.697  0.00  0.00    +0.000 A 
ATOM      7  N   UNL     1       3.216   6.879  18.266  0.00  0.00    +0.000 NA
ATOM      8  C   UNL     1       3.204   5.607  17.996  0.00  0.00    +0.000 C 
ATOM      9  C   UNL     1       2.218   4.608  18.515  0.00  0.00    +0.000 A 
ATOM     10  C   UNL     1       1.561   3.766  17.600  0.00  0.00    +0.000 A 
ATOM     11  C   UNL     1       0.743   2.733  18.057  0.00  0.00    +0.000 A 
ATOM     12  C   UNL     1       0.568   2.542  19.424  0.00  0.00    +0.000 A 
ATOM     13  C   UNL     1       1.188   3.397  20.337  0.00  0.00    +0.000 A 
ATOM     14  C   UNL     1       2.007   4.443  19.891  0.00  0.00    +0.000 A 
ATOM     15  S   UNL     1       2.705   5.548  21.103  0.00  0.00    +0.000 S 
ENDROOT
BRANCH   8  16
ATOM     16  C   UNL     1       4.257   5.124  17.095  0.00  0.00    +0.000 A 
ATOM     17  C   UNL     1       4.659   3.816  16.868  0.00  0.00    +0.000 A 
ATOM     18  C   UNL     1       5.733   3.725  15.928  0.00  0.00    +0.000 A 
ATOM     19  C   UNL     1       6.067   4.961  15.442  0.00  0.00    +0.000 A 
ATOM     20 CL   UNL     1       7.293   5.322  14.296  0.00  0.00    +0.000 Cl
ATOM     21  S   UNL     1       5.125   6.210  16.075  0.00  0.00    +0.000 S 
ENDBRANCH   8  16
BRANCH   1  23
ATOM     22  N   UNL     1      -1.068  10.886  19.159  0.00  0.00    +0.000 N 
ATOM     23  C   UNL     1       0.290  10.713  18.986  0.00  0.00    +0.000 C 
ATOM     24  O   UNL     1       1.016  11.541  18.450  0.00  0.00    +0.000 OA
ATOM     25  H   UNL     1      -1.593  10.226  19.717  0.00  0.00    +0.000 HD
BRANCH  22  26
ATOM     26  C   UNL     1      -1.760  12.073  18.690  0.00  0.00    +0.000 C 
BRANCH  26  28
ATOM     27  C   UNL     1      -4.057  12.469  19.693  0.00  0.00    +0.000 C 
ATOM     28  C   UNL     1      -2.560  12.774  19.800  0.00  0.00    +0.000 C 
ATOM     29  C   UNL     1      -2.047  12.347  21.177  0.00  0.00    +0.000 C 
ENDBRANCH  26  28
ENDBRANCH  22  26
ENDBRANCH   1  23
TORSDOF 4
ENDMDL
MODEL 6
REMARK VINA RESULT:      -7.3      1.902      2.545
REMARK  Name = 
REMARK  6 active torsions:
REMARK  status: ('A' for Active; 'I' for Inactive)
REMARK    1  A    between atoms: C_1  and  C_2
REMARK    2  A    between atoms: C_2  and  C_3
REMARK    3  A    between atoms: C_2  and  C_4
REMARK    4  A    between atoms: C_4  and  N_5
REMARK    5  A    between atoms: C_6  and  C_8
REMARK    6  A    between atoms: C_15  and  C_16
REMARK                            x       y       z     vdW  Elec       q    Type
REMARK                         _______ _______ _______ _____ _____    ______ ____
ROOT
ATOM      1  C   UNL     1       0.061   9.980  19.499  0.00  0.00    +0.000 A 
ATOM      2  C   UNL     1      -0.333   9.476  20.743  0.00  0.00    +0.000 A 
ATOM      3  C   UNL     1       0.339   8.380  21.290  0.00  0.00    +0.000 A 
ATOM      4  C   UNL     1       1.396   7.774  20.597  0.00  0.00    +0.000 A 
ATOM      5  C   UNL     1       1.774   8.246  19.324  0.00  0.00    +0.000 A 
ATOM      6  C   UNL     1       1.102   9.358  18.797  0.00  0.00    +0.000 A 
ATOM      7  N   UNL     1       2.863   7.748  18.579  0.00  0.00    +0.000 NA
ATOM      8  C   UNL     1       3.055   6.485  18.333  0.00  0.00    +0.000 C 
ATOM      9  C   UNL     1       2.157   5.363  18.749  0.00  0.00    +0.000 A 
ATOM     10  C   UNL     1       1.733   4.438  17.778  0.00  0.00    +0.000 A 
ATOM     11  C   UNL     1       1.013   3.305  18.154  0.00  0.00    +0.000 A 
ATOM     12  C   UNL     1       0.702   3.094  19.495  0.00  0.00    +0.000 A 
ATOM     13  C   UNL     1       1.088   4.028  20.458  0.00  0.00    +0.000 A 
ATOM     14  C   UNL     1       1.806   5.174  20.094  0.00  0.00    +0.000 A 
ATOM     15  S   UNL     1       2.200   6.366  21.359  0.00  0.00    +0.000 S 
ENDROOT
BRANCH   8  16
ATOM     16  C   UNL     1       4.263   6.148  17.571  0.00  0.00    +0.000 A 
ATOM     17  C   UNL     1       4.656   6.623  16.329  0.00  0.00    +0.000 A 
ATOM     18  C   UNL     1       5.893   6.058  15.889  0.00  0.00    +0.000 A 
ATOM     19  C   UNL     1       6.414   5.218  16.836  0.00  0.00    +0.000 A 
ATOM     20 CL   UNL     1       7.879   4.328  16.732  0.00  0.00    +0.000 Cl
ATOM     21  S   UNL     1       5.467   5.101  18.227  0.00  0.00    +0.000 S 
ENDBRANCH   8  16
BRANCH   1  23
ATOM     22  N   UNL     1       0.144  12.293  18.730  0.00  0.00    +0.000 N 
ATOM     23  C   UNL     1      -0.617  11.152  18.878  0.00  0.00    +0.000 C 
ATOM     24  O   UNL     1      -1.781  11.060  18.509  0.00  0.00    +0.000 OA
ATOM     25  H   UNL     1       1.132  12.270  18.940  0.00  0.00    +0.000 HD
BRANCH  22  26
ATOM     26  C   UNL     1      -0.392  13.504  18.135  0.00  0.00    +0.000 C 
BRANCH  26  28
ATOM     27  C   UNL     1      -1.134  14.758  20.213  0.00  0.00    +0.000 C 
ATOM     28  C   UNL     1      -0.178  14.746  19.017  0.00  0.00    +0.000 C 
ATOM     29  C   UNL     1       1.267  14.802  19.515  0.00  0.00    +0.000 C 
ENDBRANCH  26  28
ENDBRANCH  22  26
ENDBRANCH   1  23
TORSDOF 4
ENDMDL
MODEL 7
REMARK VINA RESULT:      -7.0      1.920      2.241
REMARK  Name = 
REMARK  6 active torsions:
REMARK  status: ('A' for Active; 'I' for Inactive)
REMARK    1  A    between atoms: C_1  and  C_2
REMARK    2  A    between atoms: C_2  and  C_3
REMARK    3  A    between atoms: C_2  and  C_4
REMARK    4  A    between atoms: C_4  and  N_5
REMARK    5  A    between atoms: C_6  and  C_8
REMARK    6  A    between atoms: C_15  and  C_16
REMARK                            x       y       z     vdW  Elec       q    Type
REMARK                         _______ _______ _______ _____ _____    ______ ____
ROOT
ATOM      1  C   UNL     1       0.095   9.844  19.835  0.00  0.00    +0.000 A 
ATOM      2  C   UNL     1      -0.239   9.269  21.066  0.00  0.00    +0.000 A 
ATOM      3  C   UNL     1       0.456   8.144  21.516  0.00  0.00    +0.000 A 
ATOM      4  C   UNL     1       1.476   7.579  20.738  0.00  0.00    +0.000 A 
ATOM      5  C   UNL     1       1.793   8.122  19.478  0.00  0.00    +0.000 A 
ATOM      6  C   UNL     1       1.100   9.263  19.049  0.00  0.00    +0.000 A 
ATOM      7  N   UNL     1       2.843   7.668  18.653  0.00  0.00    +0.000 NA
ATOM      8  C   UNL     1       3.019   6.421  18.326  0.00  0.00    +0.000 C 
ATOM      9  C   UNL     1       2.139   5.277  18.721  0.00  0.00    +0.000 A 
ATOM     10  C   UNL     1       1.666   4.410  17.720  0.00  0.00    +0.000 A 
ATOM     11  C   UNL     1       0.962   3.257  18.065  0.00  0.00    +0.000 A 
ATOM     12  C   UNL     1       0.716   2.970  19.405  0.00  0.00    +0.000 A 
ATOM     13  C   UNL     1       1.151   3.846  20.401  0.00  0.00    +0.000 A 
ATOM     14  C   UNL     1       1.854   5.011  20.068  0.00  0.00    +0.000 A 
ATOM     15  S   UNL     1       2.312   6.129  21.379  0.00  0.00    +0.000 S 
ENDROOT
BRANCH   8  16
ATOM     16  C   UNL     1       4.188   6.128  17.489  0.00  0.00    +0.000 A 
ATOM     17  C   UNL     1       4.559   6.724  16.293  0.00  0.00    +0.000 A 
ATOM     18  C   UNL     1       5.758   6.168  15.749  0.00  0.00    +0.000 A 
ATOM     19  C   UNL     1       6.276   5.209  16.578  0.00  0.00    +0.000 A 
ATOM     20 CL   UNL     1       7.701   4.285  16.323  0.00  0.00    +0.000 Cl
ATOM     21  S   UNL     1       5.370   4.972  17.981  0.00  0.00    +0.000 S 
ENDBRANCH   8  16
BRANCH   1  23
ATOM     22  N   UNL     1      -0.787  12.087  20.206  0.00  0.00    +0.000 N 
ATOM     23  C   UNL     1      -0.608  11.049  19.315  0.00  0.00    +0.000 C 
ATOM     24  O   UNL     1      -0.971  11.088  18.146  0.00  0.00    +0.000 OA
ATOM     25  H   UNL     1      -0.359  12.046  21.120  0.00  0.00    +0.000 HD
BRANCH  22  26
ATOM     26  C   UNL     1      -1.453  13.321  19.828  0.00  0.00    +0.000 C 
BRANCH  26  28
ATOM     27  C   UNL     1      -3.898  12.690  20.081  0.00  0.00    +0.000 C 
ATOM     28  C   UNL     1      -2.754  13.560  20.611  0.00  0.00    +0.000 C 
ATOM     29  C   UNL     1      -2.540  13.275  22.099  0.00  0.00    +0.000 C 
ENDBRANCH  26  28
ENDBRANCH  22  26
ENDBRANCH   1  23
TORSDOF 4
ENDMDL
MODEL 8
REMARK VINA RESULT:      -7.0      4.609      9.040
REMARK  Name = 
REMARK  6 active torsions:
REMARK  status: ('A' for Active; 'I' for Inactive)
REMARK    1  A    between atoms: C_1  and  C_2
REMARK    2  A    between atoms: C_2  and  C_3
REMARK    3  A    between atoms: C_2  and  C_4
REMARK    4  A    between atoms: C_4  and  N_5
REMARK    5  A    between atoms: C_6  and  C_8
REMARK    6  A    between atoms: C_15  and  C_16
REMARK                            x       y       z     vdW  Elec       q    Type
REMARK                         _______ _______ _______ _____ _____    ______ ____
ROOT
ATOM      1  C   UNL     1       1.358   8.189  20.612  0.00  0.00    +0.000 A 
ATOM      2  C   UNL     1       1.654   8.797  21.836  0.00  0.00    +0.000 A 
ATOM      3  C   UNL     1       0.873   9.864  22.286  0.00  0.00    +0.000 A 
ATOM      4  C   UNL     1      -0.197  10.339  21.514  0.00  0.00    +0.000 A 
ATOM      5  C   UNL     1      -0.478   9.763  20.260  0.00  0.00    +0.000 A 
ATOM      6  C   UNL     1       0.302   8.681  19.831  0.00  0.00    +0.000 A 
ATOM      7  N   UNL     1      -1.569  10.125  19.442  0.00  0.00    +0.000 NA
ATOM      8  C   UNL     1      -1.849  11.351  19.109  0.00  0.00    +0.000 C 
ATOM      9  C   UNL     1      -1.063  12.566  19.490  0.00  0.00    +0.000 A 
ATOM     10  C   UNL     1      -0.671  13.463  18.480  0.00  0.00    +0.000 A 
ATOM     11  C   UNL     1      -0.061  14.672  18.813  0.00  0.00    +0.000 A 
ATOM     12  C   UNL     1       0.172  14.987  20.148  0.00  0.00    +0.000 A 
ATOM     13  C   UNL     1      -0.181  14.083  21.153  0.00  0.00    +0.000 A 
ATOM     14  C   UNL     1      -0.789  12.863  20.833  0.00  0.00    +0.000 A 
ATOM     15  S   UNL     1      -1.143  11.720  22.154  0.00  0.00    +0.000 S 
ENDROOT
BRANCH   8  16
ATOM     16  C   UNL     1      -3.046  11.542  18.281  0.00  0.00    +0.000 A 
ATOM     17  C   UNL     1      -3.206  11.273  16.930  0.00  0.00    +0.000 A 
ATOM     18  C   UNL     1      -4.514  11.601  16.455  0.00  0.00    +0.000 A 
ATOM     19  C   UNL     1      -5.308  12.056  17.473  0.00  0.00    +0.000 A 
ATOM     20 CL   UNL     1      -6.945  12.559  17.359  0.00  0.00    +0.000 Cl
ATOM     21  S   UNL     1      -4.529  12.089  18.970  0.00  0.00    +0.000 S 
ENDBRANCH   8  16
BRANCH   1  23
ATOM     22  N   UNL     1       2.030   5.850  20.776  0.00  0.00    +0.000 N 
ATOM     23  C   UNL     1       2.153   7.042  20.093  0.00  0.00    +0.000 C 
ATOM     24  O   UNL     1       2.849   7.183  19.095  0.00  0.00    +0.000 OA
ATOM     25  H   UNL     1       1.348   5.763  21.517  0.00  0.00    +0.000 HD
BRANCH  22  26
ATOM     26  C   UNL     1       2.746   4.653  20.374  0.00  0.00    +0.000 C 
BRANCH  26  28
ATOM     27  C   UNL     1       2.479   2.347  19.351  0.00  0.00    +0.000 C 
ATOM     28  C   UNL     1       1.824   3.435  20.206  0.00  0.00    +0.000 C 
ATOM     29  C   UNL     1       1.450   2.858  21.573  0.00  0.00    +0.000 C 
ENDBRANCH  26  28
ENDBRANCH  22  26
ENDBRANCH   1  23
TORSDOF 4
ENDMDL
MODEL 9
REMARK VINA RESULT:      -6.9      4.850      7.713
REMARK  Name = 
REMARK  6 active torsions:
REMARK  status: ('A' for Active; 'I' for Inactive)
REMARK    1  A    between atoms: C_1  and  C_2
REMARK    2  A    between atoms: C_2  and  C_3
REMARK    3  A    between atoms: C_2  and  C_4
REMARK    4  A    between atoms: C_4  and  N_5
REMARK    5  A    between atoms: C_6  and  C_8
REMARK    6  A    between atoms: C_15  and  C_16
REMARK                            x       y       z     vdW  Elec       q    Type
REMARK                         _______ _______ _______ _____ _____    ______ ____
ROOT
ATOM      1  C   UNL     1       1.489  15.478  19.004  0.00  0.00    +0.000 A 
ATOM      2  C   UNL     1       0.221  16.004  19.274  0.00  0.00    +0.000 A 
ATOM      3  C   UNL     1      -0.786  15.168  19.760  0.00  0.00    +0.000 A 
ATOM      4  C   UNL     1      -0.541  13.803  19.967  0.00  0.00    +0.000 A 
ATOM      5  C   UNL     1       0.718  13.253  19.658  0.00  0.00    +0.000 A 
ATOM      6  C   UNL     1       1.725  14.108  19.189  0.00  0.00    +0.000 A 
ATOM      7  N   UNL     1       1.083  11.911  19.892  0.00  0.00    +0.000 NA
ATOM      8  C   UNL     1       0.375  10.890  19.504  0.00  0.00    +0.000 C 
ATOM      9  C   UNL     1      -0.900  10.952  18.723  0.00  0.00    +0.000 A 
ATOM     10  C   UNL     1      -1.017  10.178  17.554  0.00  0.00    +0.000 A 
ATOM     11  C   UNL     1      -2.235  10.102  16.880  0.00  0.00    +0.000 A 
ATOM     12  C   UNL     1      -3.337  10.805  17.359  0.00  0.00    +0.000 A 
ATOM     13  C   UNL     1      -3.217  11.605  18.498  0.00  0.00    +0.000 A 
ATOM     14  C   UNL     1      -1.998  11.694  19.181  0.00  0.00    +0.000 A 
ATOM     15  S   UNL     1      -1.889  12.794  20.580  0.00  0.00    +0.000 S 
ENDROOT
BRANCH   8  16
ATOM     16  C   UNL     1       0.891   9.565  19.868  0.00  0.00    +0.000 A 
ATOM     17  C   UNL     1       0.612   8.818  21.003  0.00  0.00    +0.000 A 
ATOM     18  C   UNL     1       1.312   7.572  21.027  0.00  0.00    +0.000 A 
ATOM     19  C   UNL     1       2.051   7.401  19.887  0.00  0.00    +0.000 A 
ATOM     20 CL   UNL     1       3.042   6.055  19.493  0.00  0.00    +0.000 Cl
ATOM     21  S   UNL     1       1.918   8.683  18.800  0.00  0.00    +0.000 S 
ENDBRANCH   8  16
BRANCH   1  23
ATOM     22  N   UNL     1       3.863  16.033  18.961  0.00  0.00    +0.000 N 
ATOM     23  C   UNL     1       2.599  16.329  18.494  0.00  0.00    +0.000 C 
ATOM     24  O   UNL     1       2.366  17.219  17.686  0.00  0.00    +0.000 OA
ATOM     25  H   UNL     1       4.010  15.211  19.530  0.00  0.00    +0.000 HD
BRANCH  22  26
ATOM     26  C   UNL     1       5.034  16.782  18.542  0.00  0.00    +0.000 C 
BRANCH  26  28
ATOM     27  C   UNL     1       6.449  14.801  17.825  0.00  0.00    +0.000 C 
ATOM     28  C   UNL     1       6.345  16.009  18.760  0.00  0.00    +0.000 C 
ATOM     29  C   UNL     1       7.548  16.929  18.543  0.00  0.00    +0.000 C 
ENDBRANCH  26  28
ENDBRANCH  22  26
ENDBRANCH   1  23
TORSDOF 4
ENDMDL
