MODEL 1
REMARK VINA RESULT:      -7.8      0.000      0.000
REMARK  Name = 
REMARK  8 active torsions:
REMARK  status: ('A' for Active; 'I' for Inactive)
REMARK    1  A    between atoms: C_1  and  C_2
REMARK    2  A    between atoms: C_2  and  CA_3
REMARK    3  A    between atoms: CA_3  and  C_4
REMARK    4  A    between atoms: CA_3  and  N_6
REMARK    5  A    between atoms: C_4  and  O_5
REMARK    6  A    between atoms: C_7  and  C_9
REMARK    7  A    between atoms: C_9  and  C_10
REMARK    8  A    between atoms: C_10  and  C_11
REMARK                            x       y       z     vdW  Elec       q    Type
REMARK                         _______ _______ _______ _____ _____    ______ ____
ROOT
ATOM      1  C   UNL     1       4.944   6.685  16.694  0.00  0.00    +0.000 C 
ENDROOT
BRANCH   1   2
ATOM      2  C   UNL     1       3.904   6.007  17.545  0.00  0.00    +0.000 A 
ATOM      3  N   UNL     1       3.559   4.786  17.305  0.00  0.00    +0.000 NA
ATOM      4  C   UNL     1       2.620   4.187  18.163  0.00  0.00    +0.000 A 
ATOM      5  C   UNL     1       2.262   2.854  17.946  0.00  0.00    +0.000 A 
ATOM      6  C   UNL     1       1.350   2.217  18.793  0.00  0.00    +0.000 A 
ATOM      7  C   UNL     1       0.787   2.909  19.867  0.00  0.00    +0.000 A 
ATOM      8  C   UNL     1       1.134   4.238  20.097  0.00  0.00    +0.000 A 
ATOM      9  C   UNL     1       2.047   4.866  19.242  0.00  0.00    +0.000 A 
ATOM     10  C   UNL     1       2.451   6.265  19.451  0.00  0.00    +0.000 A 
ATOM     11  O   UNL     1       2.010   6.947  20.368  0.00  0.00    +0.000 OA
ATOM     12  N   UNL     1       3.367   6.758  18.555  0.00  0.00    +0.000 N 
ATOM     13  H   UNL     1       3.673   7.707  18.721  0.00  0.00    +0.000 HD
ENDBRANCH   1   2
BRANCH   1  14
ATOM     14  C   UNL     1       6.363   6.356  17.149  0.00  0.00    +0.000 C 
BRANCH  14  16
ATOM     15  N   UNL     1       6.569   5.462  14.900  0.00  0.00    +0.000 N 
ATOM     16  C   UNL     1       6.989   5.351  16.204  0.00  0.00    +0.000 C 
ATOM     17  O   UNL     1       7.823   4.524  16.564  0.00  0.00    +0.000 OA
ATOM     18  H   UNL     1       5.812   6.091  14.654  0.00  0.00    +0.000 HD
BRANCH  15  19
ATOM     19  CA  UNL     1       7.058   4.559  13.855  0.00  0.00    +0.000 C 
BRANCH  19  21
ATOM     20  C   UNL     1       6.215   3.038  11.979  0.00  0.00    +0.000 C 
ATOM     21  C   UNL     1       5.892   3.719  13.303  0.00  0.00    +0.000 C 
ENDBRANCH  19  21
BRANCH  19  22
ATOM     22  C   UNL     1       7.798   5.374  12.779  0.00  0.00    +0.000 C 
BRANCH  22  23
ATOM     23  O   UNL     1       8.972   5.987  13.310  0.00  0.00    +0.000 OA
ATOM     24  H   UNL     1       9.498   6.309  12.557  0.00  0.00    +0.000 HD
ENDBRANCH  22  23
ENDBRANCH  19  22
ENDBRANCH  15  19
ENDBRANCH  14  16
ENDBRANCH   1  14
TORSDOF 7
ENDMDL
MODEL 2
REMARK VINA RESULT:      -7.8      1.348      1.502
REMARK  Name = 
REMARK  8 active torsions:
REMARK  status: ('A' for Active; 'I' for Inactive)
REMARK    1  A    between atoms: C_1  and  C_2
REMARK    2  A    between atoms: C_2  and  CA_3
REMARK    3  A    between atoms: CA_3  and  C_4
REMARK    4  A    between atoms: CA_3  and  N_6
REMARK    5  A    between atoms: C_4  and  O_5
REMARK    6  A    between atoms: C_7  and  C_9
REMARK    7  A    between atoms: C_9  and  C_10
REMARK    8  A    between atoms: C_10  and  C_11
REMARK                            x       y       z     vdW  Elec       q    Type
REMARK                         _______ _______ _______ _____ _____    ______ ____
ROOT
ATOM      1  C   UNL     1       6.810   5.622  19.056  0.00  0.00    +0.000 C 
ENDROOT
BRANCH   1   2
ATOM      2  C   UNL     1       5.395   5.137  18.895  0.00  0.00    +0.000 A 
ATOM      3  N   UNL     1       5.094   3.905  19.141  0.00  0.00    +0.000 NA
ATOM      4  C   UNL     1       3.747   3.519  19.021  0.00  0.00    +0.000 A 
ATOM      5  C   UNL     1       3.395   2.200  19.320  0.00  0.00    +0.000 A 
ATOM      6  C   UNL     1       2.061   1.787  19.237  0.00  0.00    +0.000 A 
ATOM      7  C   UNL     1       1.068   2.690  18.855  0.00  0.00    +0.000 A 
ATOM      8  C   UNL     1       1.404   4.008  18.555  0.00  0.00    +0.000 A 
ATOM      9  C   UNL     1       2.742   4.411  18.640  0.00  0.00    +0.000 A 
ATOM     10  C   UNL     1       3.143   5.795  18.341  0.00  0.00    +0.000 A 
ATOM     11  O   UNL     1       2.338   6.653  18.001  0.00  0.00    +0.000 OA
ATOM     12  N   UNL     1       4.481   6.067  18.480  0.00  0.00    +0.000 N 
ATOM     13  H   UNL     1       4.750   7.027  18.312  0.00  0.00    +0.000 HD
ENDBRANCH   1   2
BRANCH   1  14
ATOM     14  C   UNL     1       7.342   6.273  17.784  0.00  0.00    +0.000 C 
BRANCH  14  16
ATOM     15  N   UNL     1       7.130   5.602  15.458  0.00  0.00    +0.000 N 
ATOM     16  C   UNL     1       7.547   5.221  16.712  0.00  0.00    +0.000 C 
ATOM     17  O   UNL     1       8.067   4.131  16.935  0.00  0.00    +0.000 OA
ATOM     18  H   UNL     1       6.620   6.469  15.326  0.00  0.00    +0.000 HD
BRANCH  15  19
ATOM     19  CA  UNL     1       7.236   4.701  14.307  0.00  0.00    +0.000 C 
BRANCH  19  21
ATOM     20  C   UNL     1       5.757   3.463  12.627  0.00  0.00    +0.000 C 
ATOM     21  C   UNL     1       5.871   4.045  14.030  0.00  0.00    +0.000 C 
ENDBRANCH  19  21
BRANCH  19  22
ATOM     22  C   UNL     1       7.807   5.474  13.104  0.00  0.00    +0.000 C 
BRANCH  22  23
ATOM     23  O   UNL     1       9.094   6.014  13.400  0.00  0.00    +0.000 OA
ATOM     24  H   UNL     1       9.155   6.109  14.366  0.00  0.00    +0.000 HD
ENDBRANCH  22  23
ENDBRANCH  19  22
ENDBRANCH  15  19
ENDBRANCH  14  16
ENDBRANCH   1  14
TORSDOF 7
ENDMDL
MODEL 3
REMARK VINA RESULT:      -7.5      1.806      2.343
REMARK  Name = 
REMARK  8 active torsions:
REMARK  status: ('A' for Active; 'I' for Inactive)
REMARK    1  A    between atoms: C_1  and  C_2
REMARK    2  A    between atoms: C_2  and  CA_3
REMARK    3  A    between atoms: CA_3  and  C_4
REMARK    4  A    between atoms: CA_3  and  N_6
REMARK    5  A    between atoms: C_4  and  O_5
REMARK    6  A    between atoms: C_7  and  C_9
REMARK    7  A    between atoms: C_9  and  C_10
REMARK    8  A    between atoms: C_10  and  C_11
REMARK                            x       y       z     vdW  Elec       q    Type
REMARK                         _______ _______ _______ _____ _____    ______ ____
ROOT
ATOM      1  C   UNL     1       6.341   5.984  18.427  0.00  0.00    +0.000 C 
ENDROOT
BRANCH   1   2
ATOM      2  C   UNL     1       5.258   5.127  19.023  0.00  0.00    +0.000 A 
ATOM      3  N   UNL     1       4.092   5.626  19.270  0.00  0.00    +0.000 NA
ATOM      4  C   UNL     1       3.103   4.767  19.781  0.00  0.00    +0.000 A 
ATOM      5  C   UNL     1       1.823   5.277  20.017  0.00  0.00    +0.000 A 
ATOM      6  C   UNL     1       0.807   4.447  20.501  0.00  0.00    +0.000 A 
ATOM      7  C   UNL     1       1.061   3.098  20.753  0.00  0.00    +0.000 A 
ATOM      8  C   UNL     1       2.332   2.575  20.521  0.00  0.00    +0.000 A 
ATOM      9  C   UNL     1       3.342   3.415  20.038  0.00  0.00    +0.000 A 
ATOM     10  C   UNL     1       4.696   2.905  19.770  0.00  0.00    +0.000 A 
ATOM     11  O   UNL     1       5.007   1.736  19.960  0.00  0.00    +0.000 OA
ATOM     12  N   UNL     1       5.590   3.825  19.280  0.00  0.00    +0.000 N 
ATOM     13  H   UNL     1       6.508   3.466  19.061  0.00  0.00    +0.000 HD
ENDBRANCH   1   2
BRANCH   1  14
ATOM     14  C   UNL     1       6.053   6.344  16.973  0.00  0.00    +0.000 C 
BRANCH  14  16
ATOM     15  N   UNL     1       6.573   5.554  14.734  0.00  0.00    +0.000 N 
ATOM     16  C   UNL     1       6.492   5.213  16.064  0.00  0.00    +0.000 C 
ATOM     17  O   UNL     1       6.778   4.094  16.480  0.00  0.00    +0.000 OA
ATOM     18  H   UNL     1       6.240   6.457  14.413  0.00  0.00    +0.000 HD
BRANCH  15  19
ATOM     19  CA  UNL     1       6.963   4.578  13.714  0.00  0.00    +0.000 C 
BRANCH  19  21
ATOM     20  C   UNL     1       6.028   2.840  12.087  0.00  0.00    +0.000 C 
ATOM     21  C   UNL     1       5.709   3.889  13.144  0.00  0.00    +0.000 C 
ENDBRANCH  19  21
BRANCH  19  22
ATOM     22  C   UNL     1       7.826   5.273  12.645  0.00  0.00    +0.000 C 
BRANCH  22  23
ATOM     23  O   UNL     1       8.876   6.034  13.242  0.00  0.00    +0.000 OA
ATOM     24  H   UNL     1       9.445   6.358  12.523  0.00  0.00    +0.000 HD
ENDBRANCH  22  23
ENDBRANCH  19  22
ENDBRANCH  15  19
ENDBRANCH  14  16
ENDBRANCH   1  14
TORSDOF 7
ENDMDL
MODEL 4
REMARK VINA RESULT:      -7.5      2.488      4.147
REMARK  Name = 
REMARK  8 active torsions:
REMARK  status: ('A' for Active; 'I' for Inactive)
REMARK    1  A    between atoms: C_1  and  C_2
REMARK    2  A    between atoms: C_2  and  CA_3
REMARK    3  A    between atoms: CA_3  and  C_4
REMARK    4  A    between atoms: CA_3  and  N_6
REMARK    5  A    between atoms: C_4  and  O_5
REMARK    6  A    between atoms: C_7  and  C_9
REMARK    7  A    between atoms: C_9  and  C_10
REMARK    8  A    between atoms: C_10  and  C_11
REMARK                            x       y       z     vdW  Elec       q    Type
REMARK                         _______ _______ _______ _____ _____    ______ ____
ROOT
ATOM      1  C   UNL     1       5.071   3.636  16.083  0.00  0.00    +0.000 C 
ENDROOT
BRANCH   1   2
ATOM      2  C   UNL     1       4.390   3.484  17.416  0.00  0.00    +0.000 A 
ATOM      3  N   UNL     1       3.206   3.966  17.603  0.00  0.00    +0.000 NA
ATOM      4  C   UNL     1       2.598   3.752  18.853  0.00  0.00    +0.000 A 
ATOM      5  C   UNL     1       1.302   4.230  19.063  0.00  0.00    +0.000 A 
ATOM      6  C   UNL     1       0.655   4.014  20.284  0.00  0.00    +0.000 A 
ATOM      7  C   UNL     1       1.299   3.316  21.307  0.00  0.00    +0.000 A 
ATOM      8  C   UNL     1       2.591   2.833  21.112  0.00  0.00    +0.000 A 
ATOM      9  C   UNL     1       3.229   3.056  19.887  0.00  0.00    +0.000 A 
ATOM     10  C   UNL     1       4.590   2.556  19.632  0.00  0.00    +0.000 A 
ATOM     11  O   UNL     1       5.228   1.933  20.471  0.00  0.00    +0.000 OA
ATOM     12  N   UNL     1       5.096   2.824  18.384  0.00  0.00    +0.000 N 
ATOM     13  H   UNL     1       6.015   2.447  18.197  0.00  0.00    +0.000 HD
ENDBRANCH   1   2
BRANCH   1  14
ATOM     14  C   UNL     1       5.150   5.094  15.641  0.00  0.00    +0.000 C 
BRANCH  14  16
ATOM     15  N   UNL     1       6.509   6.345  17.221  0.00  0.00    +0.000 N 
ATOM     16  C   UNL     1       6.498   5.676  16.020  0.00  0.00    +0.000 C 
ATOM     17  O   UNL     1       7.504   5.539  15.327  0.00  0.00    +0.000 OA
ATOM     18  H   UNL     1       5.644   6.520  17.721  0.00  0.00    +0.000 HD
BRANCH  15  19
ATOM     19  CA  UNL     1       7.723   6.985  17.732  0.00  0.00    +0.000 C 
BRANCH  19  21
ATOM     20  C   UNL     1       8.674   9.252  18.439  0.00  0.00    +0.000 C 
ATOM     21  C   UNL     1       7.549   8.515  17.724  0.00  0.00    +0.000 C 
ENDBRANCH  19  21
BRANCH  19  22
ATOM     22  C   UNL     1       8.061   6.409  19.119  0.00  0.00    +0.000 C 
BRANCH  22  23
ATOM     23  O   UNL     1       7.426   5.147  19.323  0.00  0.00    +0.000 OA
ATOM     24  H   UNL     1       7.226   4.777  18.446  0.00  0.00    +0.000 HD
ENDBRANCH  22  23
ENDBRANCH  19  22
ENDBRANCH  15  19
ENDBRANCH  14  16
ENDBRANCH   1  14
TORSDOF 7
ENDMDL
MODEL 5
REMARK VINA RESULT:      -7.3      2.267      3.166
REMARK  Name = 
REMARK  8 active torsions:
REMARK  status: ('A' for Active; 'I' for Inactive)
REMARK    1  A    between atoms: C_1  and  C_2
REMARK    2  A    between atoms: C_2  and  CA_3
REMARK    3  A    between atoms: CA_3  and  C_4
REMARK    4  A    between atoms: CA_3  and  N_6
REMARK    5  A    between atoms: C_4  and  O_5
REMARK    6  A    between atoms: C_7  and  C_9
REMARK    7  A    between atoms: C_9  and  C_10
REMARK    8  A    between atoms: C_10  and  C_11
REMARK                            x       y       z     vdW  Elec       q    Type
REMARK                         _______ _______ _______ _____ _____    ______ ____
ROOT
ATOM      1  C   UNL     1       5.115   5.209  16.012  0.00  0.00    +0.000 C 
ENDROOT
BRANCH   1   2
ATOM      2  C   UNL     1       4.331   4.585  17.135  0.00  0.00    +0.000 A 
ATOM      3  N   UNL     1       3.687   5.327  17.973  0.00  0.00    +0.000 NA
ATOM      4  C   UNL     1       2.930   4.689  18.972  0.00  0.00    +0.000 A 
ATOM      5  C   UNL     1       2.194   5.472  19.864  0.00  0.00    +0.000 A 
ATOM      6  C   UNL     1       1.411   4.872  20.855  0.00  0.00    +0.000 A 
ATOM      7  C   UNL     1       1.356   3.481  20.962  0.00  0.00    +0.000 A 
ATOM      8  C   UNL     1       2.084   2.687  20.079  0.00  0.00    +0.000 A 
ATOM      9  C   UNL     1       2.866   3.298  19.092  0.00  0.00    +0.000 A 
ATOM     10  C   UNL     1       3.645   2.500  18.132  0.00  0.00    +0.000 A 
ATOM     11  O   UNL     1       3.654   1.275  18.150  0.00  0.00    +0.000 OA
ATOM     12  N   UNL     1       4.355   3.218  17.201  0.00  0.00    +0.000 N 
ATOM     13  H   UNL     1       4.858   2.669  16.519  0.00  0.00    +0.000 HD
ENDBRANCH   1   2
BRANCH   1  14
ATOM     14  C   UNL     1       6.341   4.381  15.639  0.00  0.00    +0.000 C 
BRANCH  14  16
ATOM     15  N   UNL     1       5.750   3.472  13.464  0.00  0.00    +0.000 N 
ATOM     16  C   UNL     1       6.528   4.385  14.134  0.00  0.00    +0.000 C 
ATOM     17  O   UNL     1       7.290   5.158  13.557  0.00  0.00    +0.000 OA
ATOM     18  H   UNL     1       5.203   2.787  13.976  0.00  0.00    +0.000 HD
BRANCH  15  19
ATOM     19  CA  UNL     1       5.816   3.327  12.008  0.00  0.00    +0.000 C 
BRANCH  19  21
ATOM     20  C   UNL     1       6.374   1.011  11.077  0.00  0.00    +0.000 C 
ATOM     21  C   UNL     1       6.919   2.320  11.633  0.00  0.00    +0.000 C 
ENDBRANCH  19  21
BRANCH  19  22
ATOM     22  C   UNL     1       4.425   2.951  11.467  0.00  0.00    +0.000 C 
BRANCH  22  23
ATOM     23  O   UNL     1       3.872   4.008  10.682  0.00  0.00    +0.000 OA
ATOM     24  H   UNL     1       3.969   4.830  11.192  0.00  0.00    +0.000 HD
ENDBRANCH  22  23
ENDBRANCH  19  22
ENDBRANCH  15  19
ENDBRANCH  14  16
ENDBRANCH   1  14
TORSDOF 7
ENDMDL
MODEL 6
REMARK VINA RESULT:      -7.3      2.445      4.281
REMARK  Name = 
REMARK  8 active torsions:
REMARK  status: ('A' for Active; 'I' for Inactive)
REMARK    1  A    between atoms: C_1  and  C_2
REMARK    2  A    between atoms: C_2  and  CA_3
REMARK    3  A    between atoms: CA_3  and  C_4
REMARK    4  A    between atoms: CA_3  and  N_6
REMARK    5  A    between atoms: C_4  and  O_5
REMARK    6  A    between atoms: C_7  and  C_9
REMARK    7  A    between atoms: C_9  and  C_10
REMARK    8  A    between atoms: C_10  and  C_11
REMARK                            x       y       z     vdW  Elec       q    Type
REMARK                         _______ _______ _______ _____ _____    ______ ____
ROOT
ATOM      1  C   UNL     1       4.947   4.376  15.637  0.00  0.00    +0.000 C 
ENDROOT
BRANCH   1   2
ATOM      2  C   UNL     1       4.231   3.987  16.901  0.00  0.00    +0.000 A 
ATOM      3  N   UNL     1       3.612   4.878  17.603  0.00  0.00    +0.000 NA
ATOM      4  C   UNL     1       2.919   4.449  18.749  0.00  0.00    +0.000 A 
ATOM      5  C   UNL     1       2.211   5.391  19.500  0.00  0.00    +0.000 A 
ATOM      6  C   UNL     1       1.488   4.999  20.631  0.00  0.00    +0.000 A 
ATOM      7  C   UNL     1       1.467   3.659  21.021  0.00  0.00    +0.000 A 
ATOM      8  C   UNL     1       2.168   2.708  20.282  0.00  0.00    +0.000 A 
ATOM      9  C   UNL     1       2.889   3.112  19.152  0.00  0.00    +0.000 A 
ATOM     10  C   UNL     1       3.636   2.142  18.336  0.00  0.00    +0.000 A 
ATOM     11  O   UNL     1       3.671   0.948  18.603  0.00  0.00    +0.000 OA
ATOM     12  N   UNL     1       4.285   2.663  17.243  0.00  0.00    +0.000 N 
ATOM     13  H   UNL     1       4.766   1.991  16.662  0.00  0.00    +0.000 HD
ENDBRANCH   1   2
BRANCH   1  14
ATOM     14  C   UNL     1       5.226   5.875  15.573  0.00  0.00    +0.000 C 
BRANCH  14  16
ATOM     15  N   UNL     1       6.659   7.105  17.102  0.00  0.00    +0.000 N 
ATOM     16  C   UNL     1       6.617   6.163  16.101  0.00  0.00    +0.000 C 
ATOM     17  O   UNL     1       7.621   5.587  15.691  0.00  0.00    +0.000 OA
ATOM     18  H   UNL     1       5.827   7.629  17.351  0.00  0.00    +0.000 HD
BRANCH  15  19
ATOM     19  CA  UNL     1       7.924   7.519  17.715  0.00  0.00    +0.000 C 
BRANCH  19  21
ATOM     20  C   UNL     1       8.994   9.537  18.865  0.00  0.00    +0.000 C 
ATOM     21  C   UNL     1       7.953   9.051  17.865  0.00  0.00    +0.000 C 
ENDBRANCH  19  21
BRANCH  19  22
ATOM     22  C   UNL     1       8.121   6.763  19.041  0.00  0.00    +0.000 C 
BRANCH  22  23
ATOM     23  O   UNL     1       8.025   5.352  18.852  0.00  0.00    +0.000 OA
ATOM     24  H   UNL     1       7.095   5.102  18.989  0.00  0.00    +0.000 HD
ENDBRANCH  22  23
ENDBRANCH  19  22
ENDBRANCH  15  19
ENDBRANCH  14  16
ENDBRANCH   1  14
TORSDOF 7
ENDMDL
MODEL 7
REMARK VINA RESULT:      -7.3      1.941      3.650
REMARK  Name = 
REMARK  8 active torsions:
REMARK  status: ('A' for Active; 'I' for Inactive)
REMARK    1  A    between atoms: C_1  and  C_2
REMARK    2  A    between atoms: C_2  and  CA_3
REMARK    3  A    between atoms: CA_3  and  C_4
REMARK    4  A    between atoms: CA_3  and  N_6
REMARK    5  A    between atoms: C_4  and  O_5
REMARK    6  A    between atoms: C_7  and  C_9
REMARK    7  A    between atoms: C_9  and  C_10
REMARK    8  A    between atoms: C_10  and  C_11
REMARK                            x       y       z     vdW  Elec       q    Type
REMARK                         _______ _______ _______ _____ _____    ______ ____
ROOT
ATOM      1  C   UNL     1       4.943   3.843  15.790  0.00  0.00    +0.000 C 
ENDROOT
BRANCH   1   2
ATOM      2  C   UNL     1       4.022   4.038  16.964  0.00  0.00    +0.000 A 
ATOM      3  N   UNL     1       3.630   3.024  17.662  0.00  0.00    +0.000 NA
ATOM      4  C   UNL     1       2.810   3.271  18.777  0.00  0.00    +0.000 A 
ATOM      5  C   UNL     1       2.407   2.192  19.569  0.00  0.00    +0.000 A 
ATOM      6  C   UNL     1       1.613   2.400  20.701  0.00  0.00    +0.000 A 
ATOM      7  C   UNL     1       1.214   3.691  21.051  0.00  0.00    +0.000 A 
ATOM      8  C   UNL     1       1.608   4.777  20.272  0.00  0.00    +0.000 A 
ATOM      9  C   UNL     1       2.402   4.556  19.141  0.00  0.00    +0.000 A 
ATOM     10  C   UNL     1       2.850   5.673  18.293  0.00  0.00    +0.000 A 
ATOM     11  O   UNL     1       2.550   6.837  18.527  0.00  0.00    +0.000 OA
ATOM     12  N   UNL     1       3.640   5.326  17.225  0.00  0.00    +0.000 N 
ATOM     13  H   UNL     1       3.979   6.096  16.666  0.00  0.00    +0.000 HD
ENDBRANCH   1   2
BRANCH   1  14
ATOM     14  C   UNL     1       5.535   5.161  15.299  0.00  0.00    +0.000 C 
BRANCH  14  16
ATOM     15  N   UNL     1       6.730   6.629  16.823  0.00  0.00    +0.000 N 
ATOM     16  C   UNL     1       6.799   5.479  16.073  0.00  0.00    +0.000 C 
ATOM     17  O   UNL     1       7.793   4.758  16.054  0.00  0.00    +0.000 OA
ATOM     18  H   UNL     1       5.931   7.250  16.743  0.00  0.00    +0.000 HD
BRANCH  15  19
ATOM     19  CA  UNL     1       7.868   7.097  17.619  0.00  0.00    +0.000 C 
BRANCH  19  21
ATOM     20  C   UNL     1       8.795   9.202  18.736  0.00  0.00    +0.000 C 
ATOM     21  C   UNL     1       7.878   8.636  17.660  0.00  0.00    +0.000 C 
ENDBRANCH  19  21
BRANCH  19  22
ATOM     22  C   UNL     1       7.823   6.440  19.010  0.00  0.00    +0.000 C 
BRANCH  22  23
ATOM     23  O   UNL     1       8.080   5.039  18.930  0.00  0.00    +0.000 OA
ATOM     24  H   UNL     1       7.395   4.588  19.454  0.00  0.00    +0.000 HD
ENDBRANCH  22  23
ENDBRANCH  19  22
ENDBRANCH  15  19
ENDBRANCH  14  16
ENDBRANCH   1  14
TORSDOF 7
ENDMDL
MODEL 8
REMARK VINA RESULT:      -7.1      1.680      2.113
REMARK  Name = 
REMARK  8 active torsions:
REMARK  status: ('A' for Active; 'I' for Inactive)
REMARK    1  A    between atoms: C_1  and  C_2
REMARK    2  A    between atoms: C_2  and  CA_3
REMARK    3  A    between atoms: CA_3  and  C_4
REMARK    4  A    between atoms: CA_3  and  N_6
REMARK    5  A    between atoms: C_4  and  O_5
REMARK    6  A    between atoms: C_7  and  C_9
REMARK    7  A    between atoms: C_9  and  C_10
REMARK    8  A    between atoms: C_10  and  C_11
REMARK                            x       y       z     vdW  Elec       q    Type
REMARK                         _______ _______ _______ _____ _____    ______ ____
ROOT
ATOM      1  C   UNL     1       7.155   5.234  18.788  0.00  0.00    +0.000 C 
ENDROOT
BRANCH   1   2
ATOM      2  C   UNL     1       5.690   4.898  18.864  0.00  0.00    +0.000 A 
ATOM      3  N   UNL     1       5.286   3.687  18.666  0.00  0.00    +0.000 NA
ATOM      4  C   UNL     1       3.912   3.421  18.798  0.00  0.00    +0.000 A 
ATOM      5  C   UNL     1       3.460   2.111  18.627  0.00  0.00    +0.000 A 
ATOM      6  C   UNL     1       2.103   1.803  18.776  0.00  0.00    +0.000 A 
ATOM      7  C   UNL     1       1.186   2.806  19.097  0.00  0.00    +0.000 A 
ATOM      8  C   UNL     1       1.623   4.117  19.271  0.00  0.00    +0.000 A 
ATOM      9  C   UNL     1       2.982   4.414  19.119  0.00  0.00    +0.000 A 
ATOM     10  C   UNL     1       3.490   5.783  19.302  0.00  0.00    +0.000 A 
ATOM     11  O   UNL     1       2.758   6.722  19.587  0.00  0.00    +0.000 OA
ATOM     12  N   UNL     1       4.845   5.938  19.144  0.00  0.00    +0.000 N 
ATOM     13  H   UNL     1       5.199   6.870  19.308  0.00  0.00    +0.000 HD
ENDBRANCH   1   2
BRANCH   1  14
ATOM     14  C   UNL     1       7.421   6.449  17.904  0.00  0.00    +0.000 C 
BRANCH  14  16
ATOM     15  N   UNL     1       7.223   5.348  15.747  0.00  0.00    +0.000 N 
ATOM     16  C   UNL     1       6.689   6.298  16.585  0.00  0.00    +0.000 C 
ATOM     17  O   UNL     1       5.686   6.948  16.298  0.00  0.00    +0.000 OA
ATOM     18  H   UNL     1       8.103   4.898  15.973  0.00  0.00    +0.000 HD
BRANCH  15  19
ATOM     19  CA  UNL     1       6.652   5.084  14.423  0.00  0.00    +0.000 C 
BRANCH  19  21
ATOM     20  C   UNL     1       7.374   4.465  12.049  0.00  0.00    +0.000 C 
ATOM     21  C   UNL     1       7.760   5.145  13.356  0.00  0.00    +0.000 C 
ENDBRANCH  19  21
BRANCH  19  22
ATOM     22  C   UNL     1       5.893   3.745  14.452  0.00  0.00    +0.000 C 
BRANCH  22  23
ATOM     23  O   UNL     1       6.084   3.068  15.694  0.00  0.00    +0.000 OA
ATOM     24  H   UNL     1       5.467   3.460  16.336  0.00  0.00    +0.000 HD
ENDBRANCH  22  23
ENDBRANCH  19  22
ENDBRANCH  15  19
ENDBRANCH  14  16
ENDBRANCH   1  14
TORSDOF 7
ENDMDL
MODEL 9
REMARK VINA RESULT:      -7.0      1.834      2.241
REMARK  Name = 
REMARK  8 active torsions:
REMARK  status: ('A' for Active; 'I' for Inactive)
REMARK    1  A    between atoms: C_1  and  C_2
REMARK    2  A    between atoms: C_2  and  CA_3
REMARK    3  A    between atoms: CA_3  and  C_4
REMARK    4  A    between atoms: CA_3  and  N_6
REMARK    5  A    between atoms: C_4  and  O_5
REMARK    6  A    between atoms: C_7  and  C_9
REMARK    7  A    between atoms: C_9  and  C_10
REMARK    8  A    between atoms: C_10  and  C_11
REMARK                            x       y       z     vdW  Elec       q    Type
REMARK                         _______ _______ _______ _____ _____    ______ ____
ROOT
ATOM      1  C   UNL     1       5.769   5.592  16.317  0.00  0.00    +0.000 C 
ENDROOT
BRANCH   1   2
ATOM      2  C   UNL     1       4.581   5.210  17.158  0.00  0.00    +0.000 A 
ATOM      3  N   UNL     1       4.061   4.032  17.058  0.00  0.00    +0.000 NA
ATOM      4  C   UNL     1       2.984   3.713  17.904  0.00  0.00    +0.000 A 
ATOM      5  C   UNL     1       2.432   2.431  17.839  0.00  0.00    +0.000 A 
ATOM      6  C   UNL     1       1.377   2.069  18.682  0.00  0.00    +0.000 A 
ATOM      7  C   UNL     1       0.862   2.989  19.598  0.00  0.00    +0.000 A 
ATOM      8  C   UNL     1       1.402   4.271  19.674  0.00  0.00    +0.000 A 
ATOM      9  C   UNL     1       2.458   4.622  18.825  0.00  0.00    +0.000 A 
ATOM     10  C   UNL     1       3.065   5.961  18.876  0.00  0.00    +0.000 A 
ATOM     11  O   UNL     1       2.679   6.829  19.650  0.00  0.00    +0.000 OA
ATOM     12  N   UNL     1       4.105   6.174  18.005  0.00  0.00    +0.000 N 
ATOM     13  H   UNL     1       4.547   7.081  18.067  0.00  0.00    +0.000 HD
ENDBRANCH   1   2
BRANCH   1  14
ATOM     14  C   UNL     1       6.532   4.371  15.813  0.00  0.00    +0.000 C 
BRANCH  14  16
ATOM     15  N   UNL     1       5.894   3.436  13.663  0.00  0.00    +0.000 N 
ATOM     16  C   UNL     1       6.627   4.409  14.301  0.00  0.00    +0.000 C 
ATOM     17  O   UNL     1       7.280   5.253  13.693  0.00  0.00    +0.000 OA
ATOM     18  H   UNL     1       5.443   2.699  14.195  0.00  0.00    +0.000 HD
BRANCH  15  19
ATOM     19  CA  UNL     1       5.885   3.314  12.203  0.00  0.00    +0.000 C 
BRANCH  19  21
ATOM     20  C   UNL     1       7.335   1.689  10.862  0.00  0.00    +0.000 C 
ATOM     21  C   UNL     1       6.146   1.851  11.800  0.00  0.00    +0.000 C 
ENDBRANCH  19  21
BRANCH  19  22
ATOM     22  C   UNL     1       4.566   3.883  11.650  0.00  0.00    +0.000 C 
BRANCH  22  23
ATOM     23  O   UNL     1       3.830   2.887  10.942  0.00  0.00    +0.000 OA
ATOM     24  H   UNL     1       2.885   3.066  11.086  0.00  0.00    +0.000 HD
ENDBRANCH  22  23
ENDBRANCH  19  22
ENDBRANCH  15  19
ENDBRANCH  14  16
ENDBRANCH   1  14
TORSDOF 7
ENDMDL
