MODEL 1
REMARK VINA RESULT:      -7.8      0.000      0.000
REMARK  Name = 
REMARK  4 active torsions:
REMARK  status: ('A' for Active; 'I' for Inactive)
REMARK    1  A    between atoms: C_1  and  C_2
REMARK    2  A    between atoms: C_9  and  O_10
REMARK    3  A    between atoms: O_10  and  C_11
REMARK    4  A    between atoms: C_11  and  C_12
REMARK                            x       y       z     vdW  Elec       q    Type
REMARK                         _______ _______ _______ _____ _____    ______ ____
ROOT
ATOM      1  C   UNL     1       2.173   3.547  21.483  0.00  0.00    +0.000 C 
ATOM      2  C   UNL     1       1.567   4.032  20.162  0.00  0.00    +0.000 C 
ATOM      3  C   UNL     1       0.693   2.965  19.466  0.00  0.00    +0.000 C 
ATOM      4  N   UNL     1       1.304   1.648  19.254  0.00  0.00    +0.000 NA
ATOM      5  C   UNL     1       2.371   1.659  18.248  0.00  0.00    +0.000 C 
ATOM      6  C   UNL     1       3.648   2.398  18.665  0.00  0.00    +0.000 C 
ATOM      7  C   UNL     1       3.534   3.895  18.511  0.00  0.00    +0.000 A 
ATOM      8  C   UNL     1       4.384   4.546  17.593  0.00  0.00    +0.000 A 
ATOM      9  C   UNL     1       4.297   5.919  17.321  0.00  0.00    +0.000 A 
ATOM     10  C   UNL     1       3.325   6.662  17.996  0.00  0.00    +0.000 A 
ATOM     11 BR   UNL     1       2.905   8.484  17.654  0.00  0.00    +0.000 Br
ATOM     12  C   UNL     1       2.501   6.031  18.943  0.00  0.00    +0.000 A 
ATOM     13  C   UNL     1       2.581   4.650  19.207  0.00  0.00    +0.000 A 
ATOM     14  H   UNL     1       0.573   1.014  18.928  0.00  0.00    +0.000 HD
ENDROOT
BRANCH   9  15
ATOM     15  O   UNL     1       5.160   6.305  16.332  0.00  0.00    +0.000 OA
BRANCH  15  16
ATOM     16  C   UNL     1       6.402   5.616  16.197  0.00  0.00    +0.000 C 
BRANCH  16  17
ATOM     17  C   UNL     1       6.517   4.987  14.824  0.00  0.00    +0.000 A 
ATOM     18  C   UNL     1       5.539   4.080  14.388  0.00  0.00    +0.000 A 
ATOM     19  C   UNL     1       5.593   3.536  13.103  0.00  0.00    +0.000 A 
ATOM     20  C   UNL     1       6.620   3.900  12.234  0.00  0.00    +0.000 A 
ATOM     21  C   UNL     1       7.590   4.808  12.650  0.00  0.00    +0.000 A 
ATOM     22  C   UNL     1       7.538   5.354  13.934  0.00  0.00    +0.000 A 
ENDBRANCH  16  17
ENDBRANCH  15  16
ENDBRANCH   9  15
TORSDOF 3
ENDMDL
MODEL 2
REMARK VINA RESULT:      -7.7      0.435      1.130
REMARK  Name = 
REMARK  4 active torsions:
REMARK  status: ('A' for Active; 'I' for Inactive)
REMARK    1  A    between atoms: C_1  and  C_2
REMARK    2  A    between atoms: C_9  and  O_10
REMARK    3  A    between atoms: O_10  and  C_11
REMARK    4  A    between atoms: C_11  and  C_12
REMARK                            x       y       z     vdW  Elec       q    Type
REMARK                         _______ _______ _______ _____ _____    ______ ____
ROOT
ATOM      1  C   UNL     1       1.759   3.499  21.263  0.00  0.00    +0.000 C 
ATOM      2  C   UNL     1       1.463   3.883  19.809  0.00  0.00    +0.000 C 
ATOM      3  C   UNL     1       0.847   2.727  18.988  0.00  0.00    +0.000 C 
ATOM      4  N   UNL     1       1.567   1.449  19.006  0.00  0.00    +0.000 NA
ATOM      5  C   UNL     1       2.844   1.492  18.286  0.00  0.00    +0.000 C 
ATOM      6  C   UNL     1       3.937   2.338  18.950  0.00  0.00    +0.000 C 
ATOM      7  C   UNL     1       3.776   3.815  18.686  0.00  0.00    +0.000 A 
ATOM      8  C   UNL     1       4.783   4.484  17.961  0.00  0.00    +0.000 A 
ATOM      9  C   UNL     1       4.684   5.835  17.596  0.00  0.00    +0.000 A 
ATOM     10  C   UNL     1       3.536   6.535  17.974  0.00  0.00    +0.000 A 
ATOM     11 BR   UNL     1       3.105   8.306  17.436  0.00  0.00    +0.000 Br
ATOM     12  C   UNL     1       2.545   5.888  18.733  0.00  0.00    +0.000 A 
ATOM     13  C   UNL     1       2.640   4.530  19.089  0.00  0.00    +0.000 A 
ATOM     14  H   UNL     1       0.976   0.752  18.553  0.00  0.00    +0.000 HD
ENDROOT
BRANCH   9  15
ATOM     15  O   UNL     1       5.736   6.238  16.821  0.00  0.00    +0.000 OA
BRANCH  15  16
ATOM     16  C   UNL     1       6.773   5.302  16.529  0.00  0.00    +0.000 C 
BRANCH  16  17
ATOM     17  C   UNL     1       6.750   4.919  15.064  0.00  0.00    +0.000 A 
ATOM     18  C   UNL     1       7.634   5.537  14.166  0.00  0.00    +0.000 A 
ATOM     19  C   UNL     1       7.671   5.155  12.824  0.00  0.00    +0.000 A 
ATOM     20  C   UNL     1       6.832   4.142  12.363  0.00  0.00    +0.000 A 
ATOM     21  C   UNL     1       5.959   3.512  13.246  0.00  0.00    +0.000 A 
ATOM     22  C   UNL     1       5.920   3.892  14.589  0.00  0.00    +0.000 A 
ENDBRANCH  16  17
ENDBRANCH  15  16
ENDBRANCH   9  15
TORSDOF 3
ENDMDL
MODEL 3
REMARK VINA RESULT:      -7.5      3.598      6.250
REMARK  Name = 
REMARK  4 active torsions:
REMARK  status: ('A' for Active; 'I' for Inactive)
REMARK    1  A    between atoms: C_1  and  C_2
REMARK    2  A    between atoms: C_9  and  O_10
REMARK    3  A    between atoms: O_10  and  C_11
REMARK    4  A    between atoms: C_11  and  C_12
REMARK                            x       y       z     vdW  Elec       q    Type
REMARK                         _______ _______ _______ _____ _____    ______ ____
ROOT
ATOM      1  C   UNL     1       2.954   2.598  21.187  0.00  0.00    +0.000 C 
ATOM      2  C   UNL     1       1.727   3.359  20.673  0.00  0.00    +0.000 C 
ATOM      3  C   UNL     1       0.876   2.538  19.678  0.00  0.00    +0.000 C 
ATOM      4  N   UNL     1       1.583   1.948  18.536  0.00  0.00    +0.000 NA
ATOM      5  C   UNL     1       2.047   2.944  17.564  0.00  0.00    +0.000 C 
ATOM      6  C   UNL     1       3.188   3.845  18.052  0.00  0.00    +0.000 C 
ATOM      7  C   UNL     1       2.707   4.975  18.929  0.00  0.00    +0.000 A 
ATOM      8  C   UNL     1       2.889   6.300  18.483  0.00  0.00    +0.000 A 
ATOM      9  C   UNL     1       2.403   7.411  19.188  0.00  0.00    +0.000 A 
ATOM     10  C   UNL     1       1.714   7.181  20.381  0.00  0.00    +0.000 A 
ATOM     11 BR   UNL     1       0.815   8.510  21.401  0.00  0.00    +0.000 Br
ATOM     12  C   UNL     1       1.563   5.867  20.856  0.00  0.00    +0.000 A 
ATOM     13  C   UNL     1       2.041   4.752  20.142  0.00  0.00    +0.000 A 
ATOM     14  H   UNL     1       0.934   1.323  18.057  0.00  0.00    +0.000 HD
ENDROOT
BRANCH   9  15
ATOM     15  O   UNL     1       2.620   8.583  18.517  0.00  0.00    +0.000 OA
BRANCH  15  16
ATOM     16  C   UNL     1       1.660   9.009  17.551  0.00  0.00    +0.000 C 
BRANCH  16  17
ATOM     17  C   UNL     1       0.771  10.094  18.124  0.00  0.00    +0.000 A 
ATOM     18  C   UNL     1      -0.624   9.944  18.090  0.00  0.00    +0.000 A 
ATOM     19  C   UNL     1      -1.459  10.903  18.667  0.00  0.00    +0.000 A 
ATOM     20  C   UNL     1      -0.910  12.019  19.294  0.00  0.00    +0.000 A 
ATOM     21  C   UNL     1       0.473  12.174  19.346  0.00  0.00    +0.000 A 
ATOM     22  C   UNL     1       1.310  11.217  18.770  0.00  0.00    +0.000 A 
ENDBRANCH  16  17
ENDBRANCH  15  16
ENDBRANCH   9  15
TORSDOF 3
ENDMDL
MODEL 4
REMARK VINA RESULT:      -7.5      1.939      3.256
REMARK  Name = 
REMARK  4 active torsions:
REMARK  status: ('A' for Active; 'I' for Inactive)
REMARK    1  A    between atoms: C_1  and  C_2
REMARK    2  A    between atoms: C_9  and  O_10
REMARK    3  A    between atoms: O_10  and  C_11
REMARK    4  A    between atoms: C_11  and  C_12
REMARK                            x       y       z     vdW  Elec       q    Type
REMARK                         _______ _______ _______ _____ _____    ______ ____
ROOT
ATOM      1  C   UNL     1       2.084   3.534  21.464  0.00  0.00    +0.000 C 
ATOM      2  C   UNL     1       1.379   4.014  20.191  0.00  0.00    +0.000 C 
ATOM      3  C   UNL     1       0.600   2.891  19.468  0.00  0.00    +0.000 C 
ATOM      4  N   UNL     1       1.343   1.662  19.166  0.00  0.00    +0.000 NA
ATOM      5  C   UNL     1       2.364   1.842  18.129  0.00  0.00    +0.000 C 
ATOM      6  C   UNL     1       3.567   2.697  18.542  0.00  0.00    +0.000 C 
ATOM      7  C   UNL     1       3.284   4.178  18.472  0.00  0.00    +0.000 A 
ATOM      8  C   UNL     1       4.023   4.963  17.563  0.00  0.00    +0.000 A 
ATOM      9  C   UNL     1       3.776   6.330  17.368  0.00  0.00    +0.000 A 
ATOM     10  C   UNL     1       2.755   6.926  18.112  0.00  0.00    +0.000 A 
ATOM     11 BR   UNL     1       2.125   8.705  17.882  0.00  0.00    +0.000 Br
ATOM     12  C   UNL     1       2.041   6.161  19.051  0.00  0.00    +0.000 A 
ATOM     13  C   UNL     1       2.282   4.787  19.238  0.00  0.00    +0.000 A 
ATOM     14  H   UNL     1       0.674   0.969  18.830  0.00  0.00    +0.000 HD
ENDROOT
BRANCH   9  15
ATOM     15  O   UNL     1       4.553   6.858  16.373  0.00  0.00    +0.000 OA
BRANCH  15  16
ATOM     16  C   UNL     1       5.821   6.263  16.104  0.00  0.00    +0.000 C 
BRANCH  16  17
ATOM     17  C   UNL     1       6.838   6.679  17.148  0.00  0.00    +0.000 A 
ATOM     18  C   UNL     1       7.334   7.992  17.155  0.00  0.00    +0.000 A 
ATOM     19  C   UNL     1       8.224   8.412  18.144  0.00  0.00    +0.000 A 
ATOM     20  C   UNL     1       8.622   7.530  19.147  0.00  0.00    +0.000 A 
ATOM     21  C   UNL     1       8.127   6.228  19.159  0.00  0.00    +0.000 A 
ATOM     22  C   UNL     1       7.237   5.805  18.171  0.00  0.00    +0.000 A 
ENDBRANCH  16  17
ENDBRANCH  15  16
ENDBRANCH   9  15
TORSDOF 3
ENDMDL
MODEL 5
REMARK VINA RESULT:      -7.4      3.594      6.410
REMARK  Name = 
REMARK  4 active torsions:
REMARK  status: ('A' for Active; 'I' for Inactive)
REMARK    1  A    between atoms: C_1  and  C_2
REMARK    2  A    between atoms: C_9  and  O_10
REMARK    3  A    between atoms: O_10  and  C_11
REMARK    4  A    between atoms: C_11  and  C_12
REMARK                            x       y       z     vdW  Elec       q    Type
REMARK                         _______ _______ _______ _____ _____    ______ ____
ROOT
ATOM      1  C   UNL     1       3.732   2.566  20.633  0.00  0.00    +0.000 C 
ATOM      2  C   UNL     1       2.393   3.207  20.252  0.00  0.00    +0.000 C 
ATOM      3  C   UNL     1       1.567   2.351  19.266  0.00  0.00    +0.000 C 
ATOM      4  N   UNL     1       2.249   1.912  18.043  0.00  0.00    +0.000 NA
ATOM      5  C   UNL     1       2.526   3.007  17.109  0.00  0.00    +0.000 C 
ATOM      6  C   UNL     1       3.593   4.005  17.576  0.00  0.00    +0.000 C 
ATOM      7  C   UNL     1       3.055   5.021  18.554  0.00  0.00    +0.000 A 
ATOM      8  C   UNL     1       3.056   6.381  18.183  0.00  0.00    +0.000 A 
ATOM      9  C   UNL     1       2.503   7.387  18.989  0.00  0.00    +0.000 A 
ATOM     10  C   UNL     1       1.934   7.013  20.208  0.00  0.00    +0.000 A 
ATOM     11 BR   UNL     1       0.970   8.170  21.369  0.00  0.00    +0.000 Br
ATOM     12  C   UNL     1       1.966   5.665  20.606  0.00  0.00    +0.000 A 
ATOM     13  C   UNL     1       2.510   4.654  19.792  0.00  0.00    +0.000 A 
ATOM     14  H   UNL     1       1.640   1.243  17.570  0.00  0.00    +0.000 HD
ENDROOT
BRANCH   9  15
ATOM     15  O   UNL     1       2.538   8.612  18.381  0.00  0.00    +0.000 OA
BRANCH  15  16
ATOM     16  C   UNL     1       1.422   9.018  17.590  0.00  0.00    +0.000 C 
BRANCH  16  17
ATOM     17  C   UNL     1       0.672  10.148  18.265  0.00  0.00    +0.000 A 
ATOM     18  C   UNL     1       1.375  11.262  18.749  0.00  0.00    +0.000 A 
ATOM     19  C   UNL     1       0.698  12.341  19.320  0.00  0.00    +0.000 A 
ATOM     20  C   UNL     1      -0.694  12.326  19.404  0.00  0.00    +0.000 A 
ATOM     21  C   UNL     1      -1.404  11.232  18.917  0.00  0.00    +0.000 A 
ATOM     22  C   UNL     1      -0.729  10.152  18.346  0.00  0.00    +0.000 A 
ENDBRANCH  16  17
ENDBRANCH  15  16
ENDBRANCH   9  15
TORSDOF 3
ENDMDL
MODEL 6
REMARK VINA RESULT:      -7.3      1.810      2.426
REMARK  Name = 
REMARK  4 active torsions:
REMARK  status: ('A' for Active; 'I' for Inactive)
REMARK    1  A    between atoms: C_1  and  C_2
REMARK    2  A    between atoms: C_9  and  O_10
REMARK    3  A    between atoms: O_10  and  C_11
REMARK    4  A    between atoms: C_11  and  C_12
REMARK                            x       y       z     vdW  Elec       q    Type
REMARK                         _______ _______ _______ _____ _____    ______ ____
ROOT
ATOM      1  C   UNL     1       4.258   2.408  20.378  0.00  0.00    +0.000 C 
ATOM      2  C   UNL     1       4.019   3.875  20.001  0.00  0.00    +0.000 C 
ATOM      3  C   UNL     1       2.548   4.315  20.176  0.00  0.00    +0.000 C 
ATOM      4  N   UNL     1       1.529   3.484  19.524  0.00  0.00    +0.000 NA
ATOM      5  C   UNL     1       1.551   3.581  18.061  0.00  0.00    +0.000 C 
ATOM      6  C   UNL     1       2.775   2.949  17.386  0.00  0.00    +0.000 C 
ATOM      7  C   UNL     1       3.992   3.840  17.430  0.00  0.00    +0.000 A 
ATOM      8  C   UNL     1       4.530   4.307  16.214  0.00  0.00    +0.000 A 
ATOM      9  C   UNL     1       5.608   5.203  16.155  0.00  0.00    +0.000 A 
ATOM     10  C   UNL     1       6.162   5.642  17.360  0.00  0.00    +0.000 A 
ATOM     11 BR   UNL     1       7.495   6.987  17.527  0.00  0.00    +0.000 Br
ATOM     12  C   UNL     1       5.660   5.151  18.577  0.00  0.00    +0.000 A 
ATOM     13  C   UNL     1       4.571   4.260  18.635  0.00  0.00    +0.000 A 
ATOM     14  H   UNL     1       0.614   3.804  19.845  0.00  0.00    +0.000 HD
ENDROOT
BRANCH   9  15
ATOM     15  O   UNL     1       5.894   5.583  14.873  0.00  0.00    +0.000 OA
BRANCH  15  16
ATOM     16  C   UNL     1       6.943   4.913  14.176  0.00  0.00    +0.000 C 
BRANCH  16  17
ATOM     17  C   UNL     1       6.374   3.970  13.135  0.00  0.00    +0.000 A 
ATOM     18  C   UNL     1       4.998   3.983  12.860  0.00  0.00    +0.000 A 
ATOM     19  C   UNL     1       4.463   3.166  11.862  0.00  0.00    +0.000 A 
ATOM     20  C   UNL     1       5.298   2.334  11.118  0.00  0.00    +0.000 A 
ATOM     21  C   UNL     1       6.667   2.321  11.373  0.00  0.00    +0.000 A 
ATOM     22  C   UNL     1       7.204   3.137  12.370  0.00  0.00    +0.000 A 
ENDBRANCH  16  17
ENDBRANCH  15  16
ENDBRANCH   9  15
TORSDOF 3
ENDMDL
MODEL 7
REMARK VINA RESULT:      -7.3      1.852      3.116
REMARK  Name = 
REMARK  4 active torsions:
REMARK  status: ('A' for Active; 'I' for Inactive)
REMARK    1  A    between atoms: C_1  and  C_2
REMARK    2  A    between atoms: C_9  and  O_10
REMARK    3  A    between atoms: O_10  and  C_11
REMARK    4  A    between atoms: C_11  and  C_12
REMARK                            x       y       z     vdW  Elec       q    Type
REMARK                         _______ _______ _______ _____ _____    ______ ____
ROOT
ATOM      1  C   UNL     1       2.233   3.486  21.360  0.00  0.00    +0.000 C 
ATOM      2  C   UNL     1       1.493   3.997  20.119  0.00  0.00    +0.000 C 
ATOM      3  C   UNL     1       0.639   2.910  19.429  0.00  0.00    +0.000 C 
ATOM      4  N   UNL     1       1.317   1.653  19.095  0.00  0.00    +0.000 NA
ATOM      5  C   UNL     1       2.298   1.793  18.014  0.00  0.00    +0.000 C 
ATOM      6  C   UNL     1       3.552   2.597  18.375  0.00  0.00    +0.000 C 
ATOM      7  C   UNL     1       3.328   4.089  18.319  0.00  0.00    +0.000 A 
ATOM      8  C   UNL     1       4.057   4.846  17.380  0.00  0.00    +0.000 A 
ATOM      9  C   UNL     1       3.858   6.222  17.197  0.00  0.00    +0.000 A 
ATOM     10  C   UNL     1       2.896   6.857  17.986  0.00  0.00    +0.000 A 
ATOM     11 BR   UNL     1       2.330   8.661  17.786  0.00  0.00    +0.000 Br
ATOM     12  C   UNL     1       2.193   6.119  18.954  0.00  0.00    +0.000 A 
ATOM     13  C   UNL     1       2.385   4.736  19.129  0.00  0.00    +0.000 A 
ATOM     14  H   UNL     1       0.606   0.988  18.787  0.00  0.00    +0.000 HD
ENDROOT
BRANCH   9  15
ATOM     15  O   UNL     1       4.612   6.721  16.171  0.00  0.00    +0.000 OA
BRANCH  15  16
ATOM     16  C   UNL     1       5.933   6.216  15.981  0.00  0.00    +0.000 C 
BRANCH  16  17
ATOM     17  C   UNL     1       6.825   6.604  17.142  0.00  0.00    +0.000 A 
ATOM     18  C   UNL     1       7.220   5.632  18.074  0.00  0.00    +0.000 A 
ATOM     19  C   UNL     1       8.091   5.955  19.117  0.00  0.00    +0.000 A 
ATOM     20  C   UNL     1       8.586   7.253  19.236  0.00  0.00    +0.000 A 
ATOM     21  C   UNL     1       8.211   8.224  18.311  0.00  0.00    +0.000 A 
ATOM     22  C   UNL     1       7.342   7.903  17.267  0.00  0.00    +0.000 A 
ENDBRANCH  16  17
ENDBRANCH  15  16
ENDBRANCH   9  15
TORSDOF 3
ENDMDL
MODEL 8
REMARK VINA RESULT:      -7.3      2.561      6.226
REMARK  Name = 
REMARK  4 active torsions:
REMARK  status: ('A' for Active; 'I' for Inactive)
REMARK    1  A    between atoms: C_1  and  C_2
REMARK    2  A    between atoms: C_9  and  O_10
REMARK    3  A    between atoms: O_10  and  C_11
REMARK    4  A    between atoms: C_11  and  C_12
REMARK                            x       y       z     vdW  Elec       q    Type
REMARK                         _______ _______ _______ _____ _____    ______ ____
ROOT
ATOM      1  C   UNL     1       5.258   4.461  15.008  0.00  0.00    +0.000 C 
ATOM      2  C   UNL     1       5.557   5.767  15.753  0.00  0.00    +0.000 C 
ATOM      3  C   UNL     1       7.057   5.954  16.074  0.00  0.00    +0.000 C 
ATOM      4  N   UNL     1       7.726   4.848  16.766  0.00  0.00    +0.000 NA
ATOM      5  C   UNL     1       7.286   4.683  18.156  0.00  0.00    +0.000 C 
ATOM      6  C   UNL     1       5.850   4.175  18.326  0.00  0.00    +0.000 C 
ATOM      7  C   UNL     1       4.820   5.267  18.166  0.00  0.00    +0.000 A 
ATOM      8  C   UNL     1       4.010   5.598  19.271  0.00  0.00    +0.000 A 
ATOM      9  C   UNL     1       3.084   6.651  19.244  0.00  0.00    +0.000 A 
ATOM     10  C   UNL     1       2.968   7.393  18.066  0.00  0.00    +0.000 A 
ATOM     11 BR   UNL     1       1.922   8.968  17.861  0.00  0.00    +0.000 Br
ATOM     12  C   UNL     1       3.741   7.045  16.945  0.00  0.00    +0.000 A 
ATOM     13  C   UNL     1       4.679   5.995  16.977  0.00  0.00    +0.000 A 
ATOM     14  H   UNL     1       8.727   5.047  16.777  0.00  0.00    +0.000 HD
ENDROOT
BRANCH   9  15
ATOM     15  O   UNL     1       2.483   6.841  20.457  0.00  0.00    +0.000 OA
BRANCH  15  16
ATOM     16  C   UNL     1       1.246   6.179  20.722  0.00  0.00    +0.000 C 
BRANCH  16  17
ATOM     17  C   UNL     1       1.410   4.677  20.611  0.00  0.00    +0.000 A 
ATOM     18  C   UNL     1       0.930   4.005  19.476  0.00  0.00    +0.000 A 
ATOM     19  C   UNL     1       1.125   2.631  19.325  0.00  0.00    +0.000 A 
ATOM     20  C   UNL     1       1.811   1.912  20.302  0.00  0.00    +0.000 A 
ATOM     21  C   UNL     1       2.302   2.568  21.427  0.00  0.00    +0.000 A 
ATOM     22  C   UNL     1       2.109   3.943  21.580  0.00  0.00    +0.000 A 
ENDBRANCH  16  17
ENDBRANCH  15  16
ENDBRANCH   9  15
TORSDOF 3
ENDMDL
MODEL 9
REMARK VINA RESULT:      -7.2      3.197      6.433
REMARK  Name = 
REMARK  4 active torsions:
REMARK  status: ('A' for Active; 'I' for Inactive)
REMARK    1  A    between atoms: C_1  and  C_2
REMARK    2  A    between atoms: C_9  and  O_10
REMARK    3  A    between atoms: O_10  and  C_11
REMARK    4  A    between atoms: C_11  and  C_12
REMARK                            x       y       z     vdW  Elec       q    Type
REMARK                         _______ _______ _______ _____ _____    ______ ____
ROOT
ATOM      1  C   UNL     1       2.125   1.818  18.514  0.00  0.00    +0.000 C 
ATOM      2  C   UNL     1       3.303   2.689  18.965  0.00  0.00    +0.000 C 
ATOM      3  C   UNL     1       3.774   2.376  20.403  0.00  0.00    +0.000 C 
ATOM      4  N   UNL     1       2.747   2.385  21.451  0.00  0.00    +0.000 NA
ATOM      5  C   UNL     1       2.228   3.726  21.742  0.00  0.00    +0.000 C 
ATOM      6  C   UNL     1       1.375   4.348  20.630  0.00  0.00    +0.000 C 
ATOM      7  C   UNL     1       2.205   4.947  19.521  0.00  0.00    +0.000 A 
ATOM      8  C   UNL     1       2.125   6.336  19.294  0.00  0.00    +0.000 A 
ATOM      9  C   UNL     1       2.918   6.995  18.343  0.00  0.00    +0.000 A 
ATOM     10  C   UNL     1       3.817   6.232  17.595  0.00  0.00    +0.000 A 
ATOM     11 BR   UNL     1       5.112   6.931  16.391  0.00  0.00    +0.000 Br
ATOM     12  C   UNL     1       3.875   4.841  17.785  0.00  0.00    +0.000 A 
ATOM     13  C   UNL     1       3.087   4.181  18.747  0.00  0.00    +0.000 A 
ATOM     14  H   UNL     1       3.170   2.021  22.305  0.00  0.00    +0.000 HD
ENDROOT
BRANCH   9  15
ATOM     15  O   UNL     1       2.732   8.350  18.366  0.00  0.00    +0.000 OA
BRANCH  15  16
ATOM     16  C   UNL     1       1.691   8.915  17.570  0.00  0.00    +0.000 C 
BRANCH  16  17
ATOM     17  C   UNL     1       0.696   9.656  18.440  0.00  0.00    +0.000 A 
ATOM     18  C   UNL     1       1.046  10.012  19.752  0.00  0.00    +0.000 A 
ATOM     19  C   UNL     1       0.168  10.749  20.549  0.00  0.00    +0.000 A 
ATOM     20  C   UNL     1      -1.067  11.149  20.042  0.00  0.00    +0.000 A 
ATOM     21  C   UNL     1      -1.421  10.814  18.738  0.00  0.00    +0.000 A 
ATOM     22  C   UNL     1      -0.545  10.078  17.938  0.00  0.00    +0.000 A 
ENDBRANCH  16  17
ENDBRANCH  15  16
ENDBRANCH   9  15
TORSDOF 3
ENDMDL
