MODEL 1
REMARK VINA RESULT:      -8.3      0.000      0.000
REMARK  Name = 
REMARK  6 active torsions:
REMARK  status: ('A' for Active; 'I' for Inactive)
REMARK    1  A    between atoms: C_1  and  N_2
REMARK    2  A    between atoms: C_3  and  C_4
REMARK    3  A    between atoms: C_4  and  C_6
REMARK    4  A    between atoms: N_8  and  C_9
REMARK    5  A    between atoms: C_9  and  C_10
REMARK    6  A    between atoms: C_10  and  N_11
REMARK                            x       y       z     vdW  Elec       q    Type
REMARK                         _______ _______ _______ _____ _____    ______ ____
ROOT
ATOM      1  C   UNL     1       4.812   5.387  18.685  0.00  0.00    +0.000 A 
ATOM      2  C   UNL     1       4.169   6.596  18.472  0.00  0.00    +0.000 A 
ATOM      3  N   UNL     1       2.913   6.537  19.013  0.00  0.00    +0.000 N 
ATOM      4  C   UNL     1       2.763   5.346  19.698  0.00  0.00    +0.000 A 
ATOM      5  C   UNL     1       1.717   4.864  20.500  0.00  0.00    +0.000 A 
ATOM      6  F   UNL     1       0.625   5.602  20.738  0.00  0.00    +0.000 F 
ATOM      7  C   UNL     1       1.818   3.602  21.079  0.00  0.00    +0.000 A 
ATOM      8  C   UNL     1       2.948   2.825  20.869  0.00  0.00    +0.000 A 
ATOM      9  C   UNL     1       4.002   3.311  20.086  0.00  0.00    +0.000 A 
ATOM     10  C   UNL     1       3.923   4.590  19.484  0.00  0.00    +0.000 A 
ENDROOT
BRANCH   1  11
ATOM     11  C   UNL     1       6.171   5.116  18.209  0.00  0.00    +0.000 C 
ATOM     12  O   UNL     1       7.120   5.105  18.989  0.00  0.00    +0.000 OA
BRANCH  11  15
ATOM     13  C   UNL     1       4.486   3.166  16.425  0.00  0.00    +0.000 C 
ATOM     14  N   UNL     1       5.582   4.007  16.006  0.00  0.00    +0.000 N 
ATOM     15  C   UNL     1       6.309   4.889  16.779  0.00  0.00    +0.000 A 
ATOM     16  N   UNL     1       7.227   5.490  16.036  0.00  0.00    +0.000 NA
ATOM     17  C   UNL     1       7.084   5.003  14.770  0.00  0.00    +0.000 A 
ATOM     18  C   UNL     1       7.811   5.313  13.610  0.00  0.00    +0.000 A 
ATOM     19  C   UNL     1       7.471   4.671  12.416  0.00  0.00    +0.000 A 
ATOM     20  C   UNL     1       6.426   3.750  12.389  0.00  0.00    +0.000 A 
ATOM     21  F   UNL     1       6.121   3.152  11.232  0.00  0.00    +0.000 F 
ATOM     22  C   UNL     1       5.688   3.425  13.527  0.00  0.00    +0.000 A 
ATOM     23  C   UNL     1       6.052   4.075  14.713  0.00  0.00    +0.000 A 
ENDBRANCH  11  15
ENDBRANCH   1  11
BRANCH   3  24
ATOM     24  C   UNL     1       1.925   7.610  18.991  0.00  0.00    +0.000 C 
BRANCH  24  25
ATOM     25  C   UNL     1       1.675   8.315  20.339  0.00  0.00    +0.000 C 
BRANCH  25  26
ATOM     26  N   UNL     1       0.302   8.837  20.507  0.00  0.00    +0.000 NA
ATOM     27  C   UNL     1       0.253  10.300  20.255  0.00  0.00    +0.000 C 
ATOM     28  C   UNL     1       0.842  11.158  21.393  0.00  0.00    +0.000 C 
ATOM     29  O   UNL     1       0.245  10.848  22.659  0.00  0.00    +0.000 OA
ATOM     30  C   UNL     1       0.376   9.453  22.954  0.00  0.00    +0.000 C 
ATOM     31  C   UNL     1      -0.272   8.601  21.851  0.00  0.00    +0.000 C 
ENDBRANCH  25  26
ENDBRANCH  24  25
ENDBRANCH   3  24
TORSDOF 5
ENDMDL
MODEL 2
REMARK VINA RESULT:      -8.3      1.237      1.799
REMARK  Name = 
REMARK  6 active torsions:
REMARK  status: ('A' for Active; 'I' for Inactive)
REMARK    1  A    between atoms: C_1  and  N_2
REMARK    2  A    between atoms: C_3  and  C_4
REMARK    3  A    between atoms: C_4  and  C_6
REMARK    4  A    between atoms: N_8  and  C_9
REMARK    5  A    between atoms: C_9  and  C_10
REMARK    6  A    between atoms: C_10  and  N_11
REMARK                            x       y       z     vdW  Elec       q    Type
REMARK                         _______ _______ _______ _____ _____    ______ ____
ROOT
ATOM      1  C   UNL     1       4.446   4.960  19.226  0.00  0.00    +0.000 A 
ATOM      2  C   UNL     1       3.813   6.041  19.818  0.00  0.00    +0.000 A 
ATOM      3  N   UNL     1       2.495   5.731  20.022  0.00  0.00    +0.000 N 
ATOM      4  C   UNL     1       2.277   4.407  19.691  0.00  0.00    +0.000 A 
ATOM      5  C   UNL     1       1.140   3.595  19.821  0.00  0.00    +0.000 A 
ATOM      6  F   UNL     1       0.009   4.061  20.366  0.00  0.00    +0.000 F 
ATOM      7  C   UNL     1       1.188   2.271  19.394  0.00  0.00    +0.000 A 
ATOM      8  C   UNL     1       2.353   1.754  18.847  0.00  0.00    +0.000 A 
ATOM      9  C   UNL     1       3.495   2.556  18.734  0.00  0.00    +0.000 A 
ATOM     10  C   UNL     1       3.472   3.906  19.158  0.00  0.00    +0.000 A 
ENDROOT
BRANCH   1  11
ATOM     11  C   UNL     1       5.864   4.976  18.857  0.00  0.00    +0.000 C 
ATOM     12  O   UNL     1       6.735   5.119  19.711  0.00  0.00    +0.000 OA
BRANCH  11  15
ATOM     13  C   UNL     1       7.610   6.877  17.079  0.00  0.00    +0.000 C 
ATOM     14  N   UNL     1       6.898   5.694  16.656  0.00  0.00    +0.000 N 
ATOM     15  C   UNL     1       6.152   4.836  17.438  0.00  0.00    +0.000 A 
ATOM     16  N   UNL     1       5.661   3.856  16.692  0.00  0.00    +0.000 NA
ATOM     17  C   UNL     1       6.104   4.075  15.421  0.00  0.00    +0.000 A 
ATOM     18  C   UNL     1       5.867   3.329  14.256  0.00  0.00    +0.000 A 
ATOM     19  C   UNL     1       6.439   3.763  13.057  0.00  0.00    +0.000 A 
ATOM     20  C   UNL     1       7.231   4.908  13.032  0.00  0.00    +0.000 A 
ATOM     21  F   UNL     1       7.767   5.299  11.870  0.00  0.00    +0.000 F 
ATOM     22  C   UNL     1       7.482   5.666  14.175  0.00  0.00    +0.000 A 
ATOM     23  C   UNL     1       6.893   5.217  15.363  0.00  0.00    +0.000 A 
ENDBRANCH  11  15
ENDBRANCH   1  11
BRANCH   3  24
ATOM     24  C   UNL     1       1.496   6.611  20.619  0.00  0.00    +0.000 C 
BRANCH  24  25
ATOM     25  C   UNL     1       1.635   8.108  20.278  0.00  0.00    +0.000 C 
BRANCH  25  26
ATOM     26  N   UNL     1       0.353   8.844  20.237  0.00  0.00    +0.000 NA
ATOM     27  C   UNL     1       0.567  10.267  19.870  0.00  0.00    +0.000 C 
ATOM     28  C   UNL     1       1.159  11.131  21.003  0.00  0.00    +0.000 C 
ATOM     29  O   UNL     1       0.386  11.035  22.206  0.00  0.00    +0.000 OA
ATOM     30  C   UNL     1       0.259   9.670  22.620  0.00  0.00    +0.000 C 
ATOM     31  C   UNL     1      -0.394   8.824  21.515  0.00  0.00    +0.000 C 
ENDBRANCH  25  26
ENDBRANCH  24  25
ENDBRANCH   3  24
TORSDOF 5
ENDMDL
MODEL 3
REMARK VINA RESULT:      -8.3      4.798      8.541
REMARK  Name = 
REMARK  6 active torsions:
REMARK  status: ('A' for Active; 'I' for Inactive)
REMARK    1  A    between atoms: C_1  and  N_2
REMARK    2  A    between atoms: C_3  and  C_4
REMARK    3  A    between atoms: C_4  and  C_6
REMARK    4  A    between atoms: N_8  and  C_9
REMARK    5  A    between atoms: C_9  and  C_10
REMARK    6  A    between atoms: C_10  and  N_11
REMARK                            x       y       z     vdW  Elec       q    Type
REMARK                         _______ _______ _______ _____ _____    ______ ____
ROOT
ATOM      1  C   UNL     1      -1.043  11.720  19.964  0.00  0.00    +0.000 A 
ATOM      2  C   UNL     1      -1.937  12.526  20.651  0.00  0.00    +0.000 A 
ATOM      3  N   UNL     1      -3.111  12.591  19.951  0.00  0.00    +0.000 N 
ATOM      4  C   UNL     1      -3.051  11.730  18.871  0.00  0.00    +0.000 A 
ATOM      5  C   UNL     1      -4.019  11.361  17.926  0.00  0.00    +0.000 A 
ATOM      6  F   UNL     1      -5.268  11.842  17.983  0.00  0.00    +0.000 F 
ATOM      7  C   UNL     1      -3.689  10.461  16.916  0.00  0.00    +0.000 A 
ATOM      8  C   UNL     1      -2.409   9.929  16.845  0.00  0.00    +0.000 A 
ATOM      9  C   UNL     1      -1.446  10.280  17.798  0.00  0.00    +0.000 A 
ATOM     10  C   UNL     1      -1.756  11.195  18.833  0.00  0.00    +0.000 A 
ENDROOT
BRANCH   1  11
ATOM     11  C   UNL     1       0.318  11.460  20.440  0.00  0.00    +0.000 C 
ATOM     12  O   UNL     1       0.913  12.287  21.128  0.00  0.00    +0.000 OA
BRANCH  11  15
ATOM     13  C   UNL     1       0.388   8.782  22.066  0.00  0.00    +0.000 C 
ATOM     14  N   UNL     1       0.956   9.028  20.761  0.00  0.00    +0.000 N 
ATOM     15  C   UNL     1       0.904  10.195  20.027  0.00  0.00    +0.000 A 
ATOM     16  N   UNL     1       1.532  10.030  18.871  0.00  0.00    +0.000 NA
ATOM     17  C   UNL     1       1.981   8.742  18.852  0.00  0.00    +0.000 A 
ATOM     18  C   UNL     1       2.705   8.068  17.857  0.00  0.00    +0.000 A 
ATOM     19  C   UNL     1       3.055   6.732  18.074  0.00  0.00    +0.000 A 
ATOM     20  C   UNL     1       2.681   6.092  19.253  0.00  0.00    +0.000 A 
ATOM     21  F   UNL     1       3.028   4.813  19.434  0.00  0.00    +0.000 F 
ATOM     22  C   UNL     1       1.961   6.740  20.257  0.00  0.00    +0.000 A 
ATOM     23  C   UNL     1       1.628   8.079  20.021  0.00  0.00    +0.000 A 
ENDBRANCH  11  15
ENDBRANCH   1  11
BRANCH   3  24
ATOM     24  C   UNL     1      -4.297  13.345  20.343  0.00  0.00    +0.000 C 
BRANCH  24  25
ATOM     25  C   UNL     1      -5.308  12.586  21.225  0.00  0.00    +0.000 C 
BRANCH  25  26
ATOM     26  N   UNL     1      -6.459  13.401  21.670  0.00  0.00    +0.000 NA
ATOM     27  C   UNL     1      -6.271  13.873  23.065  0.00  0.00    +0.000 C 
ATOM     28  C   UNL     1      -6.483  12.783  24.136  0.00  0.00    +0.000 C 
ATOM     29  O   UNL     1      -7.753  12.135  23.993  0.00  0.00    +0.000 OA
ATOM     30  C   UNL     1      -7.901  11.591  22.676  0.00  0.00    +0.000 C 
ATOM     31  C   UNL     1      -7.757  12.692  21.614  0.00  0.00    +0.000 C 
ENDBRANCH  25  26
ENDBRANCH  24  25
ENDBRANCH   3  24
TORSDOF 5
ENDMDL
MODEL 4
REMARK VINA RESULT:      -8.3      4.504      7.913
REMARK  Name = 
REMARK  6 active torsions:
REMARK  status: ('A' for Active; 'I' for Inactive)
REMARK    1  A    between atoms: C_1  and  N_2
REMARK    2  A    between atoms: C_3  and  C_4
REMARK    3  A    between atoms: C_4  and  C_6
REMARK    4  A    between atoms: N_8  and  C_9
REMARK    5  A    between atoms: C_9  and  C_10
REMARK    6  A    between atoms: C_10  and  N_11
REMARK                            x       y       z     vdW  Elec       q    Type
REMARK                         _______ _______ _______ _____ _____    ______ ____
ROOT
ATOM      1  C   UNL     1      -0.029  11.403  18.844  0.00  0.00    +0.000 A 
ATOM      2  C   UNL     1      -0.374  12.344  19.801  0.00  0.00    +0.000 A 
ATOM      3  N   UNL     1      -1.720  12.583  19.731  0.00  0.00    +0.000 N 
ATOM      4  C   UNL     1      -2.294  11.711  18.824  0.00  0.00    +0.000 A 
ATOM      5  C   UNL     1      -3.635  11.486  18.479  0.00  0.00    +0.000 A 
ATOM      6  F   UNL     1      -4.631  12.155  19.076  0.00  0.00    +0.000 F 
ATOM      7  C   UNL     1      -3.947  10.535  17.510  0.00  0.00    +0.000 A 
ATOM      8  C   UNL     1      -2.938   9.811  16.892  0.00  0.00    +0.000 A 
ATOM      9  C   UNL     1      -1.600  10.019  17.249  0.00  0.00    +0.000 A 
ATOM     10  C   UNL     1      -1.257  10.982  18.228  0.00  0.00    +0.000 A 
ENDROOT
BRANCH   1  11
ATOM     11  C   UNL     1       1.347  10.941  18.645  0.00  0.00    +0.000 C 
ATOM     12  O   UNL     1       2.223  11.718  18.275  0.00  0.00    +0.000 OA
BRANCH  11  15
ATOM     13  C   UNL     1       0.910   9.380  21.327  0.00  0.00    +0.000 C 
ATOM     14  N   UNL     1       1.416   8.854  20.081  0.00  0.00    +0.000 N 
ATOM     15  C   UNL     1       1.584   9.527  18.889  0.00  0.00    +0.000 A 
ATOM     16  N   UNL     1       2.062   8.703  17.968  0.00  0.00    +0.000 NA
ATOM     17  C   UNL     1       2.192   7.484  18.566  0.00  0.00    +0.000 A 
ATOM     18  C   UNL     1       2.656   6.275  18.026  0.00  0.00    +0.000 A 
ATOM     19  C   UNL     1       2.697   5.147  18.851  0.00  0.00    +0.000 A 
ATOM     20  C   UNL     1       2.277   5.232  20.176  0.00  0.00    +0.000 A 
ATOM     21  F   UNL     1       2.325   4.137  20.943  0.00  0.00    +0.000 F 
ATOM     22  C   UNL     1       1.811   6.422  20.736  0.00  0.00    +0.000 A 
ATOM     23  C   UNL     1       1.785   7.540  19.893  0.00  0.00    +0.000 A 
ENDBRANCH  11  15
ENDBRANCH   1  11
BRANCH   3  24
ATOM     24  C   UNL     1      -2.465  13.515  20.569  0.00  0.00    +0.000 C 
BRANCH  24  25
ATOM     25  C   UNL     1      -3.006  12.936  21.892  0.00  0.00    +0.000 C 
BRANCH  25  26
ATOM     26  N   UNL     1      -3.756  13.907  22.719  0.00  0.00    +0.000 NA
ATOM     27  C   UNL     1      -3.621  13.592  24.164  0.00  0.00    +0.000 C 
ATOM     28  C   UNL     1      -4.454  12.379  24.628  0.00  0.00    +0.000 C 
ATOM     29  O   UNL     1      -5.836  12.514  24.271  0.00  0.00    +0.000 OA
ATOM     30  C   UNL     1      -5.978  12.720  22.861  0.00  0.00    +0.000 C 
ATOM     31  C   UNL     1      -5.202  13.968  22.413  0.00  0.00    +0.000 C 
ENDBRANCH  25  26
ENDBRANCH  24  25
ENDBRANCH   3  24
TORSDOF 5
ENDMDL
MODEL 5
REMARK VINA RESULT:      -8.2      4.865      8.483
REMARK  Name = 
REMARK  6 active torsions:
REMARK  status: ('A' for Active; 'I' for Inactive)
REMARK    1  A    between atoms: C_1  and  N_2
REMARK    2  A    between atoms: C_3  and  C_4
REMARK    3  A    between atoms: C_4  and  C_6
REMARK    4  A    between atoms: N_8  and  C_9
REMARK    5  A    between atoms: C_9  and  C_10
REMARK    6  A    between atoms: C_10  and  N_11
REMARK                            x       y       z     vdW  Elec       q    Type
REMARK                         _______ _______ _______ _____ _____    ______ ____
ROOT
ATOM      1  C   UNL     1      -1.386  11.828  18.802  0.00  0.00    +0.000 A 
ATOM      2  C   UNL     1      -2.278  12.228  19.784  0.00  0.00    +0.000 A 
ATOM      3  N   UNL     1      -3.553  12.137  19.296  0.00  0.00    +0.000 N 
ATOM      4  C   UNL     1      -3.525  11.556  18.042  0.00  0.00    +0.000 A 
ATOM      5  C   UNL     1      -4.560  11.155  17.184  0.00  0.00    +0.000 A 
ATOM      6  F   UNL     1      -5.846  11.285  17.535  0.00  0.00    +0.000 F 
ATOM      7  C   UNL     1      -4.251  10.590  15.950  0.00  0.00    +0.000 A 
ATOM      8  C   UNL     1      -2.928  10.421  15.569  0.00  0.00    +0.000 A 
ATOM      9  C   UNL     1      -1.893  10.802  16.431  0.00  0.00    +0.000 A 
ATOM     10  C   UNL     1      -2.180  11.381  17.691  0.00  0.00    +0.000 A 
ENDROOT
BRANCH   1  11
ATOM     11  C   UNL     1       0.066  11.827  19.000  0.00  0.00    +0.000 C 
ATOM     12  O   UNL     1       0.687  12.882  19.103  0.00  0.00    +0.000 OA
BRANCH  11  15
ATOM     13  C   UNL     1       0.110   9.816  21.404  0.00  0.00    +0.000 C 
ATOM     14  N   UNL     1       0.739   9.652  20.114  0.00  0.00    +0.000 N 
ATOM     15  C   UNL     1       0.700  10.519  19.042  0.00  0.00    +0.000 A 
ATOM     16  N   UNL     1       1.390  10.015  18.028  0.00  0.00    +0.000 NA
ATOM     17  C   UNL     1       1.868   8.807  18.444  0.00  0.00    +0.000 A 
ATOM     18  C   UNL     1       2.656   7.877  17.750  0.00  0.00    +0.000 A 
ATOM     19  C   UNL     1       3.024   6.695  18.400  0.00  0.00    +0.000 A 
ATOM     20  C   UNL     1       2.604   6.454  19.706  0.00  0.00    +0.000 A 
ATOM     21  F   UNL     1       2.969   5.314  20.303  0.00  0.00    +0.000 F 
ATOM     22  C   UNL     1       1.819   7.362  20.416  0.00  0.00    +0.000 A 
ATOM     23  C   UNL     1       1.469   8.542  19.748  0.00  0.00    +0.000 A 
ENDBRANCH  11  15
ENDBRANCH   1  11
BRANCH   3  24
ATOM     24  C   UNL     1      -4.770  12.475  20.025  0.00  0.00    +0.000 C 
BRANCH  24  25
ATOM     25  C   UNL     1      -4.583  13.395  21.248  0.00  0.00    +0.000 C 
BRANCH  25  26
ATOM     26  N   UNL     1      -4.709  12.708  22.552  0.00  0.00    +0.000 NA
ATOM     27  C   UNL     1      -5.520  13.510  23.501  0.00  0.00    +0.000 C 
ATOM     28  C   UNL     1      -4.784  14.733  24.087  0.00  0.00    +0.000 C 
ATOM     29  O   UNL     1      -3.533  14.367  24.682  0.00  0.00    +0.000 OA
ATOM     30  C   UNL     1      -2.704  13.677  23.740  0.00  0.00    +0.000 C 
ATOM     31  C   UNL     1      -3.413  12.422  23.208  0.00  0.00    +0.000 C 
ENDBRANCH  25  26
ENDBRANCH  24  25
ENDBRANCH   3  24
TORSDOF 5
ENDMDL
MODEL 6
REMARK VINA RESULT:      -8.2      4.601      8.186
REMARK  Name = 
REMARK  6 active torsions:
REMARK  status: ('A' for Active; 'I' for Inactive)
REMARK    1  A    between atoms: C_1  and  N_2
REMARK    2  A    between atoms: C_3  and  C_4
REMARK    3  A    between atoms: C_4  and  C_6
REMARK    4  A    between atoms: N_8  and  C_9
REMARK    5  A    between atoms: C_9  and  C_10
REMARK    6  A    between atoms: C_10  and  N_11
REMARK                            x       y       z     vdW  Elec       q    Type
REMARK                         _______ _______ _______ _____ _____    ______ ____
ROOT
ATOM      1  C   UNL     1      -0.933  11.664  19.876  0.00  0.00    +0.000 A 
ATOM      2  C   UNL     1      -1.824  12.433  20.607  0.00  0.00    +0.000 A 
ATOM      3  N   UNL     1      -3.010  12.511  19.930  0.00  0.00    +0.000 N 
ATOM      4  C   UNL     1      -2.960  11.692  18.818  0.00  0.00    +0.000 A 
ATOM      5  C   UNL     1      -3.941  11.347  17.877  0.00  0.00    +0.000 A 
ATOM      6  F   UNL     1      -5.194  11.811  17.973  0.00  0.00    +0.000 F 
ATOM      7  C   UNL     1      -3.618  10.489  16.829  0.00  0.00    +0.000 A 
ATOM      8  C   UNL     1      -2.335   9.973  16.716  0.00  0.00    +0.000 A 
ATOM      9  C   UNL     1      -1.359  10.300  17.665  0.00  0.00    +0.000 A 
ATOM     10  C   UNL     1      -1.661  11.172  18.739  0.00  0.00    +0.000 A 
ENDROOT
BRANCH   1  11
ATOM     11  C   UNL     1       0.439  11.402  20.318  0.00  0.00    +0.000 C 
ATOM     12  O   UNL     1       1.073  12.253  20.937  0.00  0.00    +0.000 OA
BRANCH  11  15
ATOM     13  C   UNL     1       0.417   8.789  22.050  0.00  0.00    +0.000 C 
ATOM     14  N   UNL     1       0.996   8.965  20.738  0.00  0.00    +0.000 N 
ATOM     15  C   UNL     1       0.985  10.103  19.958  0.00  0.00    +0.000 A 
ATOM     16  N   UNL     1       1.610   9.872  18.812  0.00  0.00    +0.000 NA
ATOM     17  C   UNL     1       2.017   8.570  18.847  0.00  0.00    +0.000 A 
ATOM     18  C   UNL     1       2.722   7.834  17.882  0.00  0.00    +0.000 A 
ATOM     19  C   UNL     1       3.028   6.497  18.153  0.00  0.00    +0.000 A 
ATOM     20  C   UNL     1       2.630   5.918  19.356  0.00  0.00    +0.000 A 
ATOM     21  F   UNL     1       2.934   4.636  19.588  0.00  0.00    +0.000 F 
ATOM     22  C   UNL     1       1.928   6.627  20.330  0.00  0.00    +0.000 A 
ATOM     23  C   UNL     1       1.640   7.966  20.039  0.00  0.00    +0.000 A 
ENDBRANCH  11  15
ENDBRANCH   1  11
BRANCH   3  24
ATOM     24  C   UNL     1      -4.197  13.237  20.370  0.00  0.00    +0.000 C 
BRANCH  24  25
ATOM     25  C   UNL     1      -4.947  12.624  21.570  0.00  0.00    +0.000 C 
BRANCH  25  26
ATOM     26  N   UNL     1      -5.385  13.610  22.582  0.00  0.00    +0.000 NA
ATOM     27  C   UNL     1      -4.326  14.618  22.838  0.00  0.00    +0.000 C 
ATOM     28  C   UNL     1      -3.149  14.098  23.688  0.00  0.00    +0.000 C 
ATOM     29  O   UNL     1      -3.596  13.517  24.919  0.00  0.00    +0.000 OA
ATOM     30  C   UNL     1      -4.547  12.475  24.674  0.00  0.00    +0.000 C 
ATOM     31  C   UNL     1      -5.751  13.012  23.885  0.00  0.00    +0.000 C 
ENDBRANCH  25  26
ENDBRANCH  24  25
ENDBRANCH   3  24
TORSDOF 5
ENDMDL
MODEL 7
REMARK VINA RESULT:      -8.1      5.006      8.757
REMARK  Name = 
REMARK  6 active torsions:
REMARK  status: ('A' for Active; 'I' for Inactive)
REMARK    1  A    between atoms: C_1  and  N_2
REMARK    2  A    between atoms: C_3  and  C_4
REMARK    3  A    between atoms: C_4  and  C_6
REMARK    4  A    between atoms: N_8  and  C_9
REMARK    5  A    between atoms: C_9  and  C_10
REMARK    6  A    between atoms: C_10  and  N_11
REMARK                            x       y       z     vdW  Elec       q    Type
REMARK                         _______ _______ _______ _____ _____    ______ ____
ROOT
ATOM      1  C   UNL     1      -1.405  11.802  19.005  0.00  0.00    +0.000 A 
ATOM      2  C   UNL     1      -2.323  12.269  19.932  0.00  0.00    +0.000 A 
ATOM      3  N   UNL     1      -3.582  12.165  19.406  0.00  0.00    +0.000 N 
ATOM      4  C   UNL     1      -3.521  11.510  18.190  0.00  0.00    +0.000 A 
ATOM      5  C   UNL     1      -4.532  11.072  17.323  0.00  0.00    +0.000 A 
ATOM      6  F   UNL     1      -5.828  11.238  17.621  0.00  0.00    +0.000 F 
ATOM      7  C   UNL     1      -4.191  10.432  16.134  0.00  0.00    +0.000 A 
ATOM      8  C   UNL     1      -2.858  10.225  15.809  0.00  0.00    +0.000 A 
ATOM      9  C   UNL     1      -1.847  10.644  16.682  0.00  0.00    +0.000 A 
ATOM     10  C   UNL     1      -2.168  11.299  17.896  0.00  0.00    +0.000 A 
ENDROOT
BRANCH   1  11
ATOM     11  C   UNL     1       0.039  11.795  19.252  0.00  0.00    +0.000 C 
ATOM     12  O   UNL     1       0.649  12.844  19.446  0.00  0.00    +0.000 OA
BRANCH  11  15
ATOM     13  C   UNL     1       0.052   9.644  21.531  0.00  0.00    +0.000 C 
ATOM     14  N   UNL     1       0.707   9.561  20.247  0.00  0.00    +0.000 N 
ATOM     15  C   UNL     1       0.682  10.491  19.228  0.00  0.00    +0.000 A 
ATOM     16  N   UNL     1       1.395  10.053  18.199  0.00  0.00    +0.000 NA
ATOM     17  C   UNL     1       1.873   8.825  18.551  0.00  0.00    +0.000 A 
ATOM     18  C   UNL     1       2.682   7.943  17.819  0.00  0.00    +0.000 A 
ATOM     19  C   UNL     1       3.045   6.727  18.404  0.00  0.00    +0.000 A 
ATOM     20  C   UNL     1       2.602   6.406  19.685  0.00  0.00    +0.000 A 
ATOM     21  F   UNL     1       2.963   5.234  20.220  0.00  0.00    +0.000 F 
ATOM     22  C   UNL     1       1.797   7.264  20.433  0.00  0.00    +0.000 A 
ATOM     23  C   UNL     1       1.452   8.480  19.829  0.00  0.00    +0.000 A 
ENDBRANCH  11  15
ENDBRANCH   1  11
BRANCH   3  24
ATOM     24  C   UNL     1      -4.819  12.558  20.073  0.00  0.00    +0.000 C 
BRANCH  24  25
ATOM     25  C   UNL     1      -4.733  12.706  21.605  0.00  0.00    +0.000 C 
BRANCH  25  26
ATOM     26  N   UNL     1      -5.962  12.308  22.325  0.00  0.00    +0.000 NA
ATOM     27  C   UNL     1      -7.172  12.588  21.511  0.00  0.00    +0.000 C 
ATOM     28  C   UNL     1      -7.557  14.080  21.443  0.00  0.00    +0.000 C 
ATOM     29  O   UNL     1      -7.688  14.657  22.748  0.00  0.00    +0.000 OA
ATOM     30  C   UNL     1      -6.487  14.476  23.506  0.00  0.00    +0.000 C 
ATOM     31  C   UNL     1      -6.141  12.984  23.630  0.00  0.00    +0.000 C 
ENDBRANCH  25  26
ENDBRANCH  24  25
ENDBRANCH   3  24
TORSDOF 5
ENDMDL
MODEL 8
REMARK VINA RESULT:      -8.1      2.966      8.412
REMARK  Name = 
REMARK  6 active torsions:
REMARK  status: ('A' for Active; 'I' for Inactive)
REMARK    1  A    between atoms: C_1  and  N_2
REMARK    2  A    between atoms: C_3  and  C_4
REMARK    3  A    between atoms: C_4  and  C_6
REMARK    4  A    between atoms: N_8  and  C_9
REMARK    5  A    between atoms: C_9  and  C_10
REMARK    6  A    between atoms: C_10  and  N_11
REMARK                            x       y       z     vdW  Elec       q    Type
REMARK                         _______ _______ _______ _____ _____    ______ ____
ROOT
ATOM      1  C   UNL     1       2.754   6.567  19.067  0.00  0.00    +0.000 A 
ATOM      2  C   UNL     1       4.113   6.360  18.891  0.00  0.00    +0.000 A 
ATOM      3  N   UNL     1       4.448   5.130  19.388  0.00  0.00    +0.000 N 
ATOM      4  C   UNL     1       3.301   4.462  19.775  0.00  0.00    +0.000 A 
ATOM      5  C   UNL     1       3.103   3.154  20.240  0.00  0.00    +0.000 A 
ATOM      6  F   UNL     1       4.123   2.293  20.354  0.00  0.00    +0.000 F 
ATOM      7  C   UNL     1       1.820   2.727  20.572  0.00  0.00    +0.000 A 
ATOM      8  C   UNL     1       0.741   3.590  20.442  0.00  0.00    +0.000 A 
ATOM      9  C   UNL     1       0.932   4.890  19.960  0.00  0.00    +0.000 A 
ATOM     10  C   UNL     1       2.227   5.349  19.617  0.00  0.00    +0.000 A 
ENDROOT
BRANCH   1  11
ATOM     11  C   UNL     1       2.079   7.801  18.658  0.00  0.00    +0.000 C 
ATOM     12  O   UNL     1       2.164   8.211  17.503  0.00  0.00    +0.000 OA
BRANCH  11  15
ATOM     13  C   UNL     1       0.141  10.239  18.307  0.00  0.00    +0.000 C 
ATOM     14  N   UNL     1       0.513   9.587  19.541  0.00  0.00    +0.000 N 
ATOM     15  C   UNL     1       1.342   8.496  19.701  0.00  0.00    +0.000 A 
ATOM     16  N   UNL     1       1.432   8.182  20.986  0.00  0.00    +0.000 NA
ATOM     17  C   UNL     1       0.645   9.068  21.660  0.00  0.00    +0.000 A 
ATOM     18  C   UNL     1       0.397   9.167  23.038  0.00  0.00    +0.000 A 
ATOM     19  C   UNL     1      -0.459  10.175  23.492  0.00  0.00    +0.000 A 
ATOM     20  C   UNL     1      -1.052  11.051  22.587  0.00  0.00    +0.000 A 
ATOM     21  F   UNL     1      -1.869  12.004  23.049  0.00  0.00    +0.000 F 
ATOM     22  C   UNL     1      -0.823  10.973  21.213  0.00  0.00    +0.000 A 
ATOM     23  C   UNL     1       0.043   9.961  20.782  0.00  0.00    +0.000 A 
ENDBRANCH  11  15
ENDBRANCH   1  11
BRANCH   3  24
ATOM     24  C   UNL     1       5.785   4.548  19.394  0.00  0.00    +0.000 C 
BRANCH  24  25
ATOM     25  C   UNL     1       6.946   5.546  19.575  0.00  0.00    +0.000 C 
BRANCH  25  26
ATOM     26  N   UNL     1       7.879   5.610  18.429  0.00  0.00    +0.000 NA
ATOM     27  C   UNL     1       7.835   6.944  17.779  0.00  0.00    +0.000 C 
ATOM     28  C   UNL     1       6.579   7.186  16.917  0.00  0.00    +0.000 C 
ATOM     29  O   UNL     1       6.390   6.149  15.946  0.00  0.00    +0.000 OA
ATOM     30  C   UNL     1       6.334   4.866  16.578  0.00  0.00    +0.000 C 
ATOM     31  C   UNL     1       7.616   4.598  17.382  0.00  0.00    +0.000 C 
ENDBRANCH  25  26
ENDBRANCH  24  25
ENDBRANCH   3  24
TORSDOF 5
ENDMDL
MODEL 9
REMARK VINA RESULT:      -8.0      1.082      1.868
REMARK  Name = 
REMARK  6 active torsions:
REMARK  status: ('A' for Active; 'I' for Inactive)
REMARK    1  A    between atoms: C_1  and  N_2
REMARK    2  A    between atoms: C_3  and  C_4
REMARK    3  A    between atoms: C_4  and  C_6
REMARK    4  A    between atoms: N_8  and  C_9
REMARK    5  A    between atoms: C_9  and  C_10
REMARK    6  A    between atoms: C_10  and  N_11
REMARK                            x       y       z     vdW  Elec       q    Type
REMARK                         _______ _______ _______ _____ _____    ______ ____
ROOT
ATOM      1  C   UNL     1       4.443   5.004  19.030  0.00  0.00    +0.000 A 
ATOM      2  C   UNL     1       3.882   6.265  19.147  0.00  0.00    +0.000 A 
ATOM      3  N   UNL     1       2.560   6.139  19.476  0.00  0.00    +0.000 N 
ATOM      4  C   UNL     1       2.269   4.808  19.708  0.00  0.00    +0.000 A 
ATOM      5  C   UNL     1       1.101   4.182  20.169  0.00  0.00    +0.000 A 
ATOM      6  F   UNL     1       0.013   4.891  20.496  0.00  0.00    +0.000 F 
ATOM      7  C   UNL     1       1.071   2.797  20.309  0.00  0.00    +0.000 A 
ATOM      8  C   UNL     1       2.191   2.039  20.000  0.00  0.00    +0.000 A 
ATOM      9  C   UNL     1       3.364   2.662  19.559  0.00  0.00    +0.000 A 
ATOM     10  C   UNL     1       3.419   4.068  19.404  0.00  0.00    +0.000 A 
ENDROOT
BRANCH   1  11
ATOM     11  C   UNL     1       5.846   4.789  18.666  0.00  0.00    +0.000 C 
ATOM     12  O   UNL     1       6.719   4.735  19.529  0.00  0.00    +0.000 OA
BRANCH  11  15
ATOM     13  C   UNL     1       7.626   6.685  16.916  0.00  0.00    +0.000 C 
ATOM     14  N   UNL     1       6.884   5.527  16.474  0.00  0.00    +0.000 N 
ATOM     15  C   UNL     1       6.122   4.672  17.243  0.00  0.00    +0.000 A 
ATOM     16  N   UNL     1       5.603   3.720  16.480  0.00  0.00    +0.000 NA
ATOM     17  C   UNL     1       6.044   3.954  15.211  0.00  0.00    +0.000 A 
ATOM     18  C   UNL     1       5.782   3.238  14.033  0.00  0.00    +0.000 A 
ATOM     19  C   UNL     1       6.356   3.682  12.838  0.00  0.00    +0.000 A 
ATOM     20  C   UNL     1       7.175   4.808  12.832  0.00  0.00    +0.000 A 
ATOM     21  F   UNL     1       7.714   5.210  11.675  0.00  0.00    +0.000 F 
ATOM     22  C   UNL     1       7.452   5.537  13.989  0.00  0.00    +0.000 A 
ATOM     23  C   UNL     1       6.860   5.077  15.171  0.00  0.00    +0.000 A 
ENDBRANCH  11  15
ENDBRANCH   1  11
BRANCH   3  24
ATOM     24  C   UNL     1       1.625   7.239  19.683  0.00  0.00    +0.000 C 
BRANCH  24  25
ATOM     25  C   UNL     1       1.396   7.654  21.150  0.00  0.00    +0.000 C 
BRANCH  25  26
ATOM     26  N   UNL     1       1.632   9.088  21.421  0.00  0.00    +0.000 NA
ATOM     27  C   UNL     1       1.171   9.456  22.784  0.00  0.00    +0.000 C 
ATOM     28  C   UNL     1      -0.361   9.564  22.926  0.00  0.00    +0.000 C 
ATOM     29  O   UNL     1      -0.926  10.449  21.950  0.00  0.00    +0.000 OA
ATOM     30  C   UNL     1      -0.565  10.041  20.626  0.00  0.00    +0.000 C 
ATOM     31  C   UNL     1       0.963  10.000  20.467  0.00  0.00    +0.000 C 
ENDBRANCH  25  26
ENDBRANCH  24  25
ENDBRANCH   3  24
TORSDOF 5
ENDMDL
