MODEL 1
REMARK VINA RESULT:      -9.5      0.000      0.000
REMARK  Name = 
REMARK  7 active torsions:
REMARK  status: ('A' for Active; 'I' for Inactive)
REMARK    1  A    between atoms: C_1  and  C_2
REMARK    2  A    between atoms: C_4  and  C_5
REMARK    3  A    between atoms: C_7  and  O_8
REMARK    4  A    between atoms: O_8  and  C_9
REMARK    5  A    between atoms: C_12  and  C_13
REMARK    6  A    between atoms: N_14  and  O_15
REMARK    7  A    between atoms: N_16  and  C_17
REMARK                            x       y       z     vdW  Elec       q    Type
REMARK                         _______ _______ _______ _____ _____    ______ ____
ROOT
ATOM      1  C   UNL     1       6.921   4.566  14.270  0.00  0.00    +0.000 A 
ATOM      2  C   UNL     1       6.052   3.686  14.902  0.00  0.00    +0.000 A 
ATOM      3  C   UNL     1       5.945   3.745  16.292  0.00  0.00    +0.000 A 
ATOM      4  C   UNL     1       6.690   4.692  16.997  0.00  0.00    +0.000 A 
ATOM      5  C   UNL     1       7.563   5.491  16.274  0.00  0.00    +0.000 A 
ATOM      6  N   UNL     1       7.711   5.436  14.937  0.00  0.00    +0.000 NA
ENDROOT
BRANCH   4   7
ATOM      7  C   UNL     1       6.660   4.841  18.476  0.00  0.00    +0.000 C 
ATOM      8  N   UNL     1       7.758   5.331  18.981  0.00  0.00    +0.000 NA
ATOM      9  N   UNL     1       5.557   4.427  19.211  0.00  0.00    +0.000 N 
ATOM     10  H   UNL     1       5.725   4.387  20.218  0.00  0.00    +0.000 HD
BRANCH   9  11
ATOM     11  C   UNL     1       4.162   4.492  18.807  0.00  0.00    +0.000 C 
ATOM     12  C   UNL     1       3.564   5.914  18.758  0.00  0.00    +0.000 C 
ATOM     13  C   UNL     1       2.100   5.808  19.232  0.00  0.00    +0.000 C 
ATOM     14  C   UNL     1       2.131   4.577  20.077  0.00  0.00    +0.000 A 
ATOM     15  C   UNL     1       1.179   4.148  20.989  0.00  0.00    +0.000 A 
ATOM     16  C   UNL     1       1.406   2.954  21.676  0.00  0.00    +0.000 A 
ATOM     17  C   UNL     1       2.554   2.190  21.418  0.00  0.00    +0.000 A 
ATOM     18  C   UNL     1       3.495   2.618  20.481  0.00  0.00    +0.000 A 
ATOM     19  C   UNL     1       3.288   3.826  19.836  0.00  0.00    +0.000 A 
ENDBRANCH   9  11
BRANCH   8  20
ATOM     20  O   UNL     1       7.730   5.495  20.376  0.00  0.00    +0.000 OA
ATOM     21  H   UNL     1       6.796   5.778  20.515  0.00  0.00    +0.000 HD
ENDBRANCH   8  20
ENDBRANCH   4   7
BRANCH   1  22
ATOM     22  O   UNL     1       6.980   4.535  12.887  0.00  0.00    +0.000 OA
BRANCH  22  29
ATOM     23  C   UNL     1       6.201  -0.049  11.185  0.00  0.00    +0.000 C 
ATOM     24  C   UNL     1       5.765   1.376  11.343  0.00  0.00    +0.000 A 
ATOM     25  C   UNL     1       4.583   1.850  10.769  0.00  0.00    +0.000 A 
ATOM     26  C   UNL     1       4.201   3.192  10.919  0.00  0.00    +0.000 A 
ATOM     27  C   UNL     1       2.922   3.697  10.318  0.00  0.00    +0.000 C 
ATOM     28  C   UNL     1       5.024   4.065  11.647  0.00  0.00    +0.000 A 
ATOM     29  C   UNL     1       6.201   3.600  12.234  0.00  0.00    +0.000 A 
ATOM     30  C   UNL     1       6.570   2.260  12.072  0.00  0.00    +0.000 A 
ENDBRANCH  22  29
ENDBRANCH   1  22
TORSDOF 5
ENDMDL
MODEL 2
REMARK VINA RESULT:      -9.4      0.164      1.638
REMARK  Name = 
REMARK  7 active torsions:
REMARK  status: ('A' for Active; 'I' for Inactive)
REMARK    1  A    between atoms: C_1  and  C_2
REMARK    2  A    between atoms: C_4  and  C_5
REMARK    3  A    between atoms: C_7  and  O_8
REMARK    4  A    between atoms: O_8  and  C_9
REMARK    5  A    between atoms: C_12  and  C_13
REMARK    6  A    between atoms: N_14  and  O_15
REMARK    7  A    between atoms: N_16  and  C_17
REMARK                            x       y       z     vdW  Elec       q    Type
REMARK                         _______ _______ _______ _____ _____    ______ ____
ROOT
ATOM      1  C   UNL     1       6.959   4.634  14.135  0.00  0.00    +0.000 A 
ATOM      2  C   UNL     1       6.110   3.718  14.742  0.00  0.00    +0.000 A 
ATOM      3  C   UNL     1       5.989   3.747  16.132  0.00  0.00    +0.000 A 
ATOM      4  C   UNL     1       6.702   4.701  16.861  0.00  0.00    +0.000 A 
ATOM      5  C   UNL     1       7.559   5.538  16.161  0.00  0.00    +0.000 A 
ATOM      6  N   UNL     1       7.719   5.513  14.825  0.00  0.00    +0.000 NA
ENDROOT
BRANCH   4   7
ATOM      7  C   UNL     1       6.655   4.821  18.342  0.00  0.00    +0.000 C 
ATOM      8  N   UNL     1       7.748   5.299  18.869  0.00  0.00    +0.000 NA
ATOM      9  N   UNL     1       5.543   4.394  19.057  0.00  0.00    +0.000 N 
ATOM     10  H   UNL     1       5.700   4.333  20.065  0.00  0.00    +0.000 HD
BRANCH   9  11
ATOM     11  C   UNL     1       4.153   4.469  18.638  0.00  0.00    +0.000 C 
ATOM     12  C   UNL     1       3.582   5.899  18.532  0.00  0.00    +0.000 C 
ATOM     13  C   UNL     1       2.112   5.836  18.997  0.00  0.00    +0.000 C 
ATOM     14  C   UNL     1       2.114   4.637  19.886  0.00  0.00    +0.000 A 
ATOM     15  C   UNL     1       1.147   4.258  20.805  0.00  0.00    +0.000 A 
ATOM     16  C   UNL     1       1.347   3.086  21.537  0.00  0.00    +0.000 A 
ATOM     17  C   UNL     1       2.482   2.293  21.317  0.00  0.00    +0.000 A 
ATOM     18  C   UNL     1       3.438   2.670  20.373  0.00  0.00    +0.000 A 
ATOM     19  C   UNL     1       3.259   3.857  19.683  0.00  0.00    +0.000 A 
ENDBRANCH   9  11
BRANCH   8  20
ATOM     20  O   UNL     1       7.704   5.436  20.267  0.00  0.00    +0.000 OA
ATOM     21  H   UNL     1       8.070   6.344  20.380  0.00  0.00    +0.000 HD
ENDBRANCH   8  20
ENDBRANCH   4   7
BRANCH   1  22
ATOM     22  O   UNL     1       7.030   4.631  12.752  0.00  0.00    +0.000 OA
BRANCH  22  29
ATOM     23  C   UNL     1       2.839   3.573  10.336  0.00  0.00    +0.000 C 
ATOM     24  C   UNL     1       4.162   3.152  10.901  0.00  0.00    +0.000 A 
ATOM     25  C   UNL     1       4.601   1.827  10.836  0.00  0.00    +0.000 A 
ATOM     26  C   UNL     1       5.837   1.453  11.383  0.00  0.00    +0.000 A 
ATOM     27  C   UNL     1       6.315   0.034  11.296  0.00  0.00    +0.000 C 
ATOM     28  C   UNL     1       6.634   2.423  12.010  0.00  0.00    +0.000 A 
ATOM     29  C   UNL     1       6.212   3.751  12.071  0.00  0.00    +0.000 A 
ATOM     30  C   UNL     1       4.974   4.108  11.523  0.00  0.00    +0.000 A 
ENDBRANCH  22  29
ENDBRANCH   1  22
TORSDOF 5
ENDMDL
MODEL 3
REMARK VINA RESULT:      -9.0      4.146      7.729
REMARK  Name = 
REMARK  7 active torsions:
REMARK  status: ('A' for Active; 'I' for Inactive)
REMARK    1  A    between atoms: C_1  and  C_2
REMARK    2  A    between atoms: C_4  and  C_5
REMARK    3  A    between atoms: C_7  and  O_8
REMARK    4  A    between atoms: O_8  and  C_9
REMARK    5  A    between atoms: C_12  and  C_13
REMARK    6  A    between atoms: N_14  and  O_15
REMARK    7  A    between atoms: N_16  and  C_17
REMARK                            x       y       z     vdW  Elec       q    Type
REMARK                         _______ _______ _______ _____ _____    ______ ____
ROOT
ATOM      1  C   UNL     1       2.271   8.063  17.958  0.00  0.00    +0.000 A 
ATOM      2  C   UNL     1       2.155   7.358  19.150  0.00  0.00    +0.000 A 
ATOM      3  C   UNL     1       3.121   6.395  19.446  0.00  0.00    +0.000 A 
ATOM      4  C   UNL     1       4.175   6.187  18.555  0.00  0.00    +0.000 A 
ATOM      5  C   UNL     1       4.171   6.910  17.372  0.00  0.00    +0.000 A 
ATOM      6  N   UNL     1       3.237   7.823  17.045  0.00  0.00    +0.000 NA
ENDROOT
BRANCH   4   7
ATOM      7  C   UNL     1       5.256   5.186  18.765  0.00  0.00    +0.000 C 
ATOM      8  N   UNL     1       6.250   5.624  19.486  0.00  0.00    +0.000 NA
ATOM      9  N   UNL     1       5.188   3.931  18.173  0.00  0.00    +0.000 N 
ATOM     10  H   UNL     1       6.066   3.410  18.215  0.00  0.00    +0.000 HD
BRANCH   9  11
ATOM     11  C   UNL     1       3.993   3.137  17.940  0.00  0.00    +0.000 C 
ATOM     12  C   UNL     1       2.965   3.775  16.982  0.00  0.00    +0.000 C 
ATOM     13  C   UNL     1       1.563   3.408  17.510  0.00  0.00    +0.000 C 
ATOM     14  C   UNL     1       1.825   3.173  18.961  0.00  0.00    +0.000 A 
ATOM     15  C   UNL     1       0.899   3.091  19.989  0.00  0.00    +0.000 A 
ATOM     16  C   UNL     1       1.363   2.859  21.285  0.00  0.00    +0.000 A 
ATOM     17  C   UNL     1       2.731   2.674  21.531  0.00  0.00    +0.000 A 
ATOM     18  C   UNL     1       3.653   2.734  20.486  0.00  0.00    +0.000 A 
ATOM     19  C   UNL     1       3.194   3.011  19.209  0.00  0.00    +0.000 A 
ENDBRANCH   9  11
BRANCH   8  20
ATOM     20  O   UNL     1       7.265   4.679  19.706  0.00  0.00    +0.000 OA
ATOM     21  H   UNL     1       6.876   3.880  19.281  0.00  0.00    +0.000 HD
ENDBRANCH   8  20
ENDBRANCH   4   7
BRANCH   1  22
ATOM     22  O   UNL     1       1.337   9.052  17.700  0.00  0.00    +0.000 OA
BRANCH  22  29
ATOM     23  C   UNL     1      -0.205  11.513  21.711  0.00  0.00    +0.000 C 
ATOM     24  C   UNL     1       0.605  11.446  20.452  0.00  0.00    +0.000 A 
ATOM     25  C   UNL     1       1.347  12.540  19.997  0.00  0.00    +0.000 A 
ATOM     26  C   UNL     1       2.086  12.460  18.808  0.00  0.00    +0.000 A 
ATOM     27  C   UNL     1       2.898  13.628  18.330  0.00  0.00    +0.000 C 
ATOM     28  C   UNL     1       2.070  11.269  18.066  0.00  0.00    +0.000 A 
ATOM     29  C   UNL     1       1.343  10.167  18.516  0.00  0.00    +0.000 A 
ATOM     30  C   UNL     1       0.607  10.264  19.702  0.00  0.00    +0.000 A 
ENDBRANCH  22  29
ENDBRANCH   1  22
TORSDOF 5
ENDMDL
MODEL 4
REMARK VINA RESULT:      -8.9      4.176      7.755
REMARK  Name = 
REMARK  7 active torsions:
REMARK  status: ('A' for Active; 'I' for Inactive)
REMARK    1  A    between atoms: C_1  and  C_2
REMARK    2  A    between atoms: C_4  and  C_5
REMARK    3  A    between atoms: C_7  and  O_8
REMARK    4  A    between atoms: O_8  and  C_9
REMARK    5  A    between atoms: C_12  and  C_13
REMARK    6  A    between atoms: N_14  and  O_15
REMARK    7  A    between atoms: N_16  and  C_17
REMARK                            x       y       z     vdW  Elec       q    Type
REMARK                         _______ _______ _______ _____ _____    ______ ____
ROOT
ATOM      1  C   UNL     1       2.194   8.095  17.981  0.00  0.00    +0.000 A 
ATOM      2  C   UNL     1       2.065   7.385  19.169  0.00  0.00    +0.000 A 
ATOM      3  C   UNL     1       3.042   6.440  19.485  0.00  0.00    +0.000 A 
ATOM      4  C   UNL     1       4.119   6.253  18.617  0.00  0.00    +0.000 A 
ATOM      5  C   UNL     1       4.127   6.979  17.435  0.00  0.00    +0.000 A 
ATOM      6  N   UNL     1       3.184   7.875  17.089  0.00  0.00    +0.000 NA
ENDROOT
BRANCH   4   7
ATOM      7  C   UNL     1       5.213   5.272  18.848  0.00  0.00    +0.000 C 
ATOM      8  N   UNL     1       6.181   5.726  19.594  0.00  0.00    +0.000 NA
ATOM      9  N   UNL     1       5.183   4.018  18.252  0.00  0.00    +0.000 N 
ATOM     10  H   UNL     1       6.069   3.513  18.312  0.00  0.00    +0.000 HD
BRANCH   9  11
ATOM     11  C   UNL     1       4.008   3.203  17.989  0.00  0.00    +0.000 C 
ATOM     12  C   UNL     1       2.989   3.826  17.012  0.00  0.00    +0.000 C 
ATOM     13  C   UNL     1       1.583   3.429  17.508  0.00  0.00    +0.000 C 
ATOM     14  C   UNL     1       1.819   3.190  18.963  0.00  0.00    +0.000 A 
ATOM     15  C   UNL     1       0.872   3.085  19.971  0.00  0.00    +0.000 A 
ATOM     16  C   UNL     1       1.313   2.854  21.275  0.00  0.00    +0.000 A 
ATOM     17  C   UNL     1       2.679   2.694  21.550  0.00  0.00    +0.000 A 
ATOM     18  C   UNL     1       3.622   2.778  20.524  0.00  0.00    +0.000 A 
ATOM     19  C   UNL     1       3.184   3.054  19.240  0.00  0.00    +0.000 A 
ENDBRANCH   9  11
BRANCH   8  20
ATOM     20  O   UNL     1       7.209   4.799  19.835  0.00  0.00    +0.000 OA
ATOM     21  H   UNL     1       6.727   4.112  20.351  0.00  0.00    +0.000 HD
ENDBRANCH   8  20
ENDBRANCH   4   7
BRANCH   1  22
ATOM     22  O   UNL     1       1.248   9.068  17.704  0.00  0.00    +0.000 OA
BRANCH  22  29
ATOM     23  C   UNL     1       2.989  13.631  18.522  0.00  0.00    +0.000 C 
ATOM     24  C   UNL     1       2.130  12.470  18.923  0.00  0.00    +0.000 A 
ATOM     25  C   UNL     1       1.391  12.478  20.110  0.00  0.00    +0.000 A 
ATOM     26  C   UNL     1       0.605  11.375  20.472  0.00  0.00    +0.000 A 
ATOM     27  C   UNL     1      -0.203  11.392  21.736  0.00  0.00    +0.000 C 
ATOM     28  C   UNL     1       0.570  10.249  19.635  0.00  0.00    +0.000 A 
ATOM     29  C   UNL     1       1.294  10.234  18.443  0.00  0.00    +0.000 A 
ATOM     30  C   UNL     1       2.077  11.341  18.097  0.00  0.00    +0.000 A 
ENDBRANCH  22  29
ENDBRANCH   1  22
TORSDOF 5
ENDMDL
MODEL 5
REMARK VINA RESULT:      -8.9      6.251      9.012
REMARK  Name = 
REMARK  7 active torsions:
REMARK  status: ('A' for Active; 'I' for Inactive)
REMARK    1  A    between atoms: C_1  and  C_2
REMARK    2  A    between atoms: C_4  and  C_5
REMARK    3  A    between atoms: C_7  and  O_8
REMARK    4  A    between atoms: O_8  and  C_9
REMARK    5  A    between atoms: C_12  and  C_13
REMARK    6  A    between atoms: N_14  and  O_15
REMARK    7  A    between atoms: N_16  and  C_17
REMARK                            x       y       z     vdW  Elec       q    Type
REMARK                         _______ _______ _______ _____ _____    ______ ____
ROOT
ATOM      1  C   UNL     1       2.117   7.622  19.826  0.00  0.00    +0.000 A 
ATOM      2  C   UNL     1       2.248   8.028  18.504  0.00  0.00    +0.000 A 
ATOM      3  C   UNL     1       1.719   9.266  18.136  0.00  0.00    +0.000 A 
ATOM      4  C   UNL     1       1.101  10.060  19.103  0.00  0.00    +0.000 A 
ATOM      5  C   UNL     1       0.982   9.540  20.383  0.00  0.00    +0.000 A 
ATOM      6  N   UNL     1       1.454   8.338  20.760  0.00  0.00    +0.000 NA
ENDROOT
BRANCH   4   7
ATOM      7  C   UNL     1       0.499  11.391  18.824  0.00  0.00    +0.000 C 
ATOM      8  N   UNL     1       1.374  12.332  18.603  0.00  0.00    +0.000 NA
ATOM      9  N   UNL     1      -0.877  11.573  18.866  0.00  0.00    +0.000 N 
ATOM     10  H   UNL     1      -1.163  12.555  18.863  0.00  0.00    +0.000 HD
BRANCH   9  11
ATOM     11  C   UNL     1      -1.898  10.618  18.467  0.00  0.00    +0.000 C 
ATOM     12  C   UNL     1      -1.777  10.104  17.017  0.00  0.00    +0.000 C 
ATOM     13  C   UNL     1      -3.211   9.932  16.474  0.00  0.00    +0.000 C 
ATOM     14  C   UNL     1      -3.983  10.893  17.318  0.00  0.00    +0.000 A 
ATOM     15  C   UNL     1      -5.264  11.377  17.099  0.00  0.00    +0.000 A 
ATOM     16  C   UNL     1      -5.804  12.272  18.024  0.00  0.00    +0.000 A 
ATOM     17  C   UNL     1      -5.080  12.640  19.168  0.00  0.00    +0.000 A 
ATOM     18  C   UNL     1      -3.801  12.128  19.392  0.00  0.00    +0.000 A 
ATOM     19  C   UNL     1      -3.251  11.277  18.448  0.00  0.00    +0.000 A 
ENDBRANCH   9  11
BRANCH   8  20
ATOM     20  O   UNL     1       0.814  13.589  18.319  0.00  0.00    +0.000 OA
ATOM     21  H   UNL     1       1.604  14.078  17.991  0.00  0.00    +0.000 HD
ENDBRANCH   8  20
ENDBRANCH   4   7
BRANCH   1  22
ATOM     22  O   UNL     1       2.692   6.416  20.192  0.00  0.00    +0.000 OA
BRANCH  22  29
ATOM     23  C   UNL     1       0.576   2.226  18.616  0.00  0.00    +0.000 C 
ATOM     24  C   UNL     1       1.627   3.287  18.486  0.00  0.00    +0.000 A 
ATOM     25  C   UNL     1       2.616   3.224  17.500  0.00  0.00    +0.000 A 
ATOM     26  C   UNL     1       3.598   4.221  17.407  0.00  0.00    +0.000 A 
ATOM     27  C   UNL     1       4.649   4.163  16.337  0.00  0.00    +0.000 C 
ATOM     28  C   UNL     1       3.588   5.286  18.320  0.00  0.00    +0.000 A 
ATOM     29  C   UNL     1       2.599   5.366  19.300  0.00  0.00    +0.000 A 
ATOM     30  C   UNL     1       1.628   4.361  19.383  0.00  0.00    +0.000 A 
ENDBRANCH  22  29
ENDBRANCH   1  22
TORSDOF 5
ENDMDL
MODEL 6
REMARK VINA RESULT:      -8.9      4.218      8.044
REMARK  Name = 
REMARK  7 active torsions:
REMARK  status: ('A' for Active; 'I' for Inactive)
REMARK    1  A    between atoms: C_1  and  C_2
REMARK    2  A    between atoms: C_4  and  C_5
REMARK    3  A    between atoms: C_7  and  O_8
REMARK    4  A    between atoms: O_8  and  C_9
REMARK    5  A    between atoms: C_12  and  C_13
REMARK    6  A    between atoms: N_14  and  O_15
REMARK    7  A    between atoms: N_16  and  C_17
REMARK                            x       y       z     vdW  Elec       q    Type
REMARK                         _______ _______ _______ _____ _____    ______ ____
ROOT
ATOM      1  C   UNL     1       2.114   8.055  18.421  0.00  0.00    +0.000 A 
ATOM      2  C   UNL     1       3.030   7.991  17.379  0.00  0.00    +0.000 A 
ATOM      3  C   UNL     1       4.066   7.059  17.464  0.00  0.00    +0.000 A 
ATOM      4  C   UNL     1       4.136   6.213  18.572  0.00  0.00    +0.000 A 
ATOM      5  C   UNL     1       3.198   6.392  19.578  0.00  0.00    +0.000 A 
ATOM      6  N   UNL     1       2.207   7.301  19.538  0.00  0.00    +0.000 NA
ENDROOT
BRANCH   4   7
ATOM      7  C   UNL     1       5.196   5.189  18.770  0.00  0.00    +0.000 C 
ATOM      8  N   UNL     1       6.206   5.605  19.482  0.00  0.00    +0.000 NA
ATOM      9  N   UNL     1       5.095   3.936  18.180  0.00  0.00    +0.000 N 
ATOM     10  H   UNL     1       5.962   3.396  18.212  0.00  0.00    +0.000 HD
BRANCH   9  11
ATOM     11  C   UNL     1       3.881   3.169  17.958  0.00  0.00    +0.000 C 
ATOM     12  C   UNL     1       2.831   3.858  17.060  0.00  0.00    +0.000 C 
ATOM     13  C   UNL     1       1.441   3.490  17.622  0.00  0.00    +0.000 C 
ATOM     14  C   UNL     1       1.749   3.195  19.053  0.00  0.00    +0.000 A 
ATOM     15  C   UNL     1       0.857   3.086  20.109  0.00  0.00    +0.000 A 
ATOM     16  C   UNL     1       1.361   2.797  21.378  0.00  0.00    +0.000 A 
ATOM     17  C   UNL     1       2.735   2.584  21.570  0.00  0.00    +0.000 A 
ATOM     18  C   UNL     1       3.621   2.672  20.496  0.00  0.00    +0.000 A 
ATOM     19  C   UNL     1       3.123   3.005  19.248  0.00  0.00    +0.000 A 
ENDBRANCH   9  11
BRANCH   8  20
ATOM     20  O   UNL     1       7.202   4.637  19.693  0.00  0.00    +0.000 OA
ATOM     21  H   UNL     1       7.465   4.835  20.622  0.00  0.00    +0.000 HD
ENDBRANCH   8  20
ENDBRANCH   4   7
BRANCH   1  22
ATOM     22  O   UNL     1       1.060   8.945  18.301  0.00  0.00    +0.000 OA
BRANCH  22  29
ATOM     23  C   UNL     1      -0.523  10.069  22.856  0.00  0.00    +0.000 C 
ATOM     24  C   UNL     1       0.079  10.477  21.546  0.00  0.00    +0.000 A 
ATOM     25  C   UNL     1       0.400  11.809  21.268  0.00  0.00    +0.000 A 
ATOM     26  C   UNL     1       0.950  12.170  20.029  0.00  0.00    +0.000 A 
ATOM     27  C   UNL     1       1.312  13.597  19.738  0.00  0.00    +0.000 C 
ATOM     28  C   UNL     1       1.169  11.181  19.059  0.00  0.00    +0.000 A 
ATOM     29  C   UNL     1       0.864   9.847  19.328  0.00  0.00    +0.000 A 
ATOM     30  C   UNL     1       0.312   9.503  20.568  0.00  0.00    +0.000 A 
ENDBRANCH  22  29
ENDBRANCH   1  22
TORSDOF 5
ENDMDL
MODEL 7
REMARK VINA RESULT:      -8.8      6.155      8.891
REMARK  Name = 
REMARK  7 active torsions:
REMARK  status: ('A' for Active; 'I' for Inactive)
REMARK    1  A    between atoms: C_1  and  C_2
REMARK    2  A    between atoms: C_4  and  C_5
REMARK    3  A    between atoms: C_7  and  O_8
REMARK    4  A    between atoms: O_8  and  C_9
REMARK    5  A    between atoms: C_12  and  C_13
REMARK    6  A    between atoms: N_14  and  O_15
REMARK    7  A    between atoms: N_16  and  C_17
REMARK                            x       y       z     vdW  Elec       q    Type
REMARK                         _______ _______ _______ _____ _____    ______ ____
ROOT
ATOM      1  C   UNL     1       2.138   7.479  19.856  0.00  0.00    +0.000 A 
ATOM      2  C   UNL     1       2.323   7.848  18.530  0.00  0.00    +0.000 A 
ATOM      3  C   UNL     1       1.834   9.087  18.112  0.00  0.00    +0.000 A 
ATOM      4  C   UNL     1       1.198   9.918  19.036  0.00  0.00    +0.000 A 
ATOM      5  C   UNL     1       1.023   9.433  20.324  0.00  0.00    +0.000 A 
ATOM      6  N   UNL     1       1.457   8.232  20.747  0.00  0.00    +0.000 NA
ENDROOT
BRANCH   4   7
ATOM      7  C   UNL     1       0.633  11.253  18.703  0.00  0.00    +0.000 C 
ATOM      8  N   UNL     1       1.534  12.151  18.417  0.00  0.00    +0.000 NA
ATOM      9  N   UNL     1      -0.735  11.482  18.763  0.00  0.00    +0.000 N 
ATOM     10  H   UNL     1      -0.988  12.471  18.716  0.00  0.00    +0.000 HD
BRANCH   9  11
ATOM     11  C   UNL     1      -1.795  10.543  18.434  0.00  0.00    +0.000 C 
ATOM     12  C   UNL     1      -1.766  10.012  16.985  0.00  0.00    +0.000 C 
ATOM     13  C   UNL     1      -3.232   9.862  16.527  0.00  0.00    +0.000 C 
ATOM     14  C   UNL     1      -3.936  10.847  17.401  0.00  0.00    +0.000 A 
ATOM     15  C   UNL     1      -5.218  11.354  17.249  0.00  0.00    +0.000 A 
ATOM     16  C   UNL     1      -5.687  12.269  18.192  0.00  0.00    +0.000 A 
ATOM     17  C   UNL     1      -4.893  12.635  19.289  0.00  0.00    +0.000 A 
ATOM     18  C   UNL     1      -3.614  12.100  19.447  0.00  0.00    +0.000 A 
ATOM     19  C   UNL     1      -3.134  11.229  18.483  0.00  0.00    +0.000 A 
ENDBRANCH   9  11
BRANCH   8  20
ATOM     20  O   UNL     1       1.008  13.410  18.080  0.00  0.00    +0.000 OA
ATOM     21  H   UNL     1       1.407  13.976  18.783  0.00  0.00    +0.000 HD
ENDBRANCH   8  20
ENDBRANCH   4   7
BRANCH   1  22
ATOM     22  O   UNL     1       2.675   6.273  20.272  0.00  0.00    +0.000 OA
BRANCH  22  29
ATOM     23  C   UNL     1       4.661   4.088  16.297  0.00  0.00    +0.000 C 
ATOM     24  C   UNL     1       3.632   4.130  17.385  0.00  0.00    +0.000 A 
ATOM     25  C   UNL     1       2.621   3.169  17.478  0.00  0.00    +0.000 A 
ATOM     26  C   UNL     1       1.660   3.236  18.497  0.00  0.00    +0.000 A 
ATOM     27  C   UNL     1       0.586   2.194  18.607  0.00  0.00    +0.000 C 
ATOM     28  C   UNL     1       1.714   4.286  19.427  0.00  0.00    +0.000 A 
ATOM     29  C   UNL     1       2.725   5.243  19.352  0.00  0.00    +0.000 A 
ATOM     30  C   UNL     1       3.674   5.165  18.326  0.00  0.00    +0.000 A 
ENDBRANCH  22  29
ENDBRANCH   1  22
TORSDOF 5
ENDMDL
MODEL 8
REMARK VINA RESULT:      -8.7      5.838      8.484
REMARK  Name = 
REMARK  7 active torsions:
REMARK  status: ('A' for Active; 'I' for Inactive)
REMARK    1  A    between atoms: C_1  and  C_2
REMARK    2  A    between atoms: C_4  and  C_5
REMARK    3  A    between atoms: C_7  and  O_8
REMARK    4  A    between atoms: O_8  and  C_9
REMARK    5  A    between atoms: C_12  and  C_13
REMARK    6  A    between atoms: N_14  and  O_15
REMARK    7  A    between atoms: N_16  and  C_17
REMARK                            x       y       z     vdW  Elec       q    Type
REMARK                         _______ _______ _______ _____ _____    ______ ____
ROOT
ATOM      1  C   UNL     1       2.509   7.032  18.950  0.00  0.00    +0.000 A 
ATOM      2  C   UNL     1       1.892   7.510  20.100  0.00  0.00    +0.000 A 
ATOM      3  C   UNL     1       1.358   8.798  20.079  0.00  0.00    +0.000 A 
ATOM      4  C   UNL     1       1.438   9.553  18.907  0.00  0.00    +0.000 A 
ATOM      5  C   UNL     1       2.116   9.000  17.830  0.00  0.00    +0.000 A 
ATOM      6  N   UNL     1       2.668   7.773  17.831  0.00  0.00    +0.000 NA
ENDROOT
BRANCH   4   7
ATOM      7  C   UNL     1       0.909  10.936  18.771  0.00  0.00    +0.000 C 
ATOM      8  N   UNL     1       1.829  11.835  18.556  0.00  0.00    +0.000 NA
ATOM      9  N   UNL     1      -0.446  11.199  18.926  0.00  0.00    +0.000 N 
ATOM     10  H   UNL     1      -0.664  12.193  19.015  0.00  0.00    +0.000 HD
BRANCH   9  11
ATOM     11  C   UNL     1      -1.553  10.343  18.534  0.00  0.00    +0.000 C 
ATOM     12  C   UNL     1      -1.527   9.878  17.063  0.00  0.00    +0.000 C 
ATOM     13  C   UNL     1      -2.989   9.839  16.572  0.00  0.00    +0.000 C 
ATOM     14  C   UNL     1      -3.651  10.823  17.479  0.00  0.00    +0.000 A 
ATOM     15  C   UNL     1      -4.896  11.414  17.329  0.00  0.00    +0.000 A 
ATOM     16  C   UNL     1      -5.329  12.312  18.306  0.00  0.00    +0.000 A 
ATOM     17  C   UNL     1      -4.537  12.577  19.433  0.00  0.00    +0.000 A 
ATOM     18  C   UNL     1      -3.296  11.959  19.587  0.00  0.00    +0.000 A 
ATOM     19  C   UNL     1      -2.850  11.106  18.592  0.00  0.00    +0.000 A 
ENDBRANCH   9  11
BRANCH   8  20
ATOM     20  O   UNL     1       1.336  13.142  18.405  0.00  0.00    +0.000 OA
ATOM     21  H   UNL     1       2.015  13.533  17.807  0.00  0.00    +0.000 HD
ENDBRANCH   8  20
ENDBRANCH   4   7
BRANCH   1  22
ATOM     22  O   UNL     1       2.988   5.733  18.965  0.00  0.00    +0.000 OA
BRANCH  22  29
ATOM     23  C   UNL     1       5.640   4.105  15.114  0.00  0.00    +0.000 C 
ATOM     24  C   UNL     1       5.563   4.677  16.497  0.00  0.00    +0.000 A 
ATOM     25  C   UNL     1       6.711   4.919  17.257  0.00  0.00    +0.000 A 
ATOM     26  C   UNL     1       6.613   5.442  18.555  0.00  0.00    +0.000 A 
ATOM     27  C   UNL     1       7.847   5.719  19.363  0.00  0.00    +0.000 C 
ATOM     28  C   UNL     1       5.347   5.715  19.094  0.00  0.00    +0.000 A 
ATOM     29  C   UNL     1       4.195   5.489  18.341  0.00  0.00    +0.000 A 
ATOM     30  C   UNL     1       4.309   4.963  17.049  0.00  0.00    +0.000 A 
ENDBRANCH  22  29
ENDBRANCH   1  22
TORSDOF 5
ENDMDL
MODEL 9
REMARK VINA RESULT:      -8.6      5.816      8.446
REMARK  Name = 
REMARK  7 active torsions:
REMARK  status: ('A' for Active; 'I' for Inactive)
REMARK    1  A    between atoms: C_1  and  C_2
REMARK    2  A    between atoms: C_4  and  C_5
REMARK    3  A    between atoms: C_7  and  O_8
REMARK    4  A    between atoms: O_8  and  C_9
REMARK    5  A    between atoms: C_12  and  C_13
REMARK    6  A    between atoms: N_14  and  O_15
REMARK    7  A    between atoms: N_16  and  C_17
REMARK                            x       y       z     vdW  Elec       q    Type
REMARK                         _______ _______ _______ _____ _____    ______ ____
ROOT
ATOM      1  C   UNL     1       2.456   6.945  18.955  0.00  0.00    +0.000 A 
ATOM      2  C   UNL     1       1.885   7.462  20.111  0.00  0.00    +0.000 A 
ATOM      3  C   UNL     1       1.378   8.761  20.075  0.00  0.00    +0.000 A 
ATOM      4  C   UNL     1       1.440   9.487  18.884  0.00  0.00    +0.000 A 
ATOM      5  C   UNL     1       2.074   8.895  17.802  0.00  0.00    +0.000 A 
ATOM      6  N   UNL     1       2.599   7.656  17.815  0.00  0.00    +0.000 NA
ENDROOT
BRANCH   4   7
ATOM      7  C   UNL     1       0.938  10.879  18.732  0.00  0.00    +0.000 C 
ATOM      8  N   UNL     1       1.874  11.756  18.497  0.00  0.00    +0.000 NA
ATOM      9  N   UNL     1      -0.410  11.171  18.891  0.00  0.00    +0.000 N 
ATOM     10  H   UNL     1      -0.608  12.170  18.968  0.00  0.00    +0.000 HD
BRANCH   9  11
ATOM     11  C   UNL     1      -1.537  10.331  18.520  0.00  0.00    +0.000 C 
ATOM     12  C   UNL     1      -1.549   9.874  17.046  0.00  0.00    +0.000 C 
ATOM     13  C   UNL     1      -3.023   9.857  16.587  0.00  0.00    +0.000 C 
ATOM     14  C   UNL     1      -3.652  10.845  17.515  0.00  0.00    +0.000 A 
ATOM     15  C   UNL     1      -4.892  11.453  17.395  0.00  0.00    +0.000 A 
ATOM     16  C   UNL     1      -5.291  12.350  18.386  0.00  0.00    +0.000 A 
ATOM     17  C   UNL     1      -4.471  12.599  19.496  0.00  0.00    +0.000 A 
ATOM     18  C   UNL     1      -3.234  11.964  19.620  0.00  0.00    +0.000 A 
ATOM     19  C   UNL     1      -2.822  11.110  18.611  0.00  0.00    +0.000 A 
ENDBRANCH   9  11
BRANCH   8  20
ATOM     20  O   UNL     1       1.406  13.070  18.330  0.00  0.00    +0.000 OA
ATOM     21  H   UNL     1       1.251  13.337  19.267  0.00  0.00    +0.000 HD
ENDBRANCH   8  20
ENDBRANCH   4   7
BRANCH   1  22
ATOM     22  O   UNL     1       2.907   5.636  18.987  0.00  0.00    +0.000 OA
BRANCH  22  29
ATOM     23  C   UNL     1       7.844   5.728  19.358  0.00  0.00    +0.000 C 
ATOM     24  C   UNL     1       6.599   5.423  18.582  0.00  0.00    +0.000 A 
ATOM     25  C   UNL     1       6.651   4.937  17.272  0.00  0.00    +0.000 A 
ATOM     26  C   UNL     1       5.472   4.672  16.559  0.00  0.00    +0.000 A 
ATOM     27  C   UNL     1       5.527   4.132  15.160  0.00  0.00    +0.000 C 
ATOM     28  C   UNL     1       4.230   4.907  17.170  0.00  0.00    +0.000 A 
ATOM     29  C   UNL     1       4.166   5.380  18.480  0.00  0.00    +0.000 A 
ATOM     30  C   UNL     1       5.352   5.644  19.176  0.00  0.00    +0.000 A 
ENDBRANCH  22  29
ENDBRANCH   1  22
TORSDOF 5
ENDMDL
