MODEL 1
REMARK VINA RESULT:      -7.4      0.000      0.000
REMARK  Name = 
REMARK  4 active torsions:
REMARK  status: ('A' for Active; 'I' for Inactive)
REMARK    1  A    between atoms: C_2  and  C_3
REMARK    2  A    between atoms: C_2  and  N_10
REMARK    3  A    between atoms: N_13  and  C_14
REMARK    4  A    between atoms: C_14  and  C_15
REMARK                            x       y       z     vdW  Elec       q    Type
REMARK                         _______ _______ _______ _____ _____    ______ ____
ROOT
ATOM      1  N   UNL     1       4.193   5.128  18.475  0.00  0.00    +0.000 N 
ATOM      2  C   UNL     1       4.006   5.141  17.016  0.00  0.00    +0.000 C 
ATOM      3  C   UNL     1       4.951   6.125  16.299  0.00  0.00    +0.000 C 
ATOM      4  N   UNL     1       6.378   6.030  16.712  0.00  0.00    +0.000 NA
ATOM      5  C   UNL     1       6.431   6.164  18.186  0.00  0.00    +0.000 C 
ATOM      6  C   UNL     1       5.585   5.124  18.950  0.00  0.00    +0.000 C 
ENDROOT
BRANCH   1   8
ATOM      7  S   UNL     1       2.627   4.175  20.445  0.00  0.00    +0.000 S 
ATOM      8  C   UNL     1       3.148   5.359  19.365  0.00  0.00    +0.000 C 
BRANCH   8   9
ATOM      9  C   UNL     1       2.568   6.743  19.327  0.00  0.00    +0.000 A 
ATOM     10  C   UNL     1       1.900   7.238  20.461  0.00  0.00    +0.000 A 
ATOM     11  C   UNL     1       1.286   8.494  20.437  0.00  0.00    +0.000 A 
ATOM     12  C   UNL     1       1.333   9.262  19.277  0.00  0.00    +0.000 A 
ATOM     13 BR   UNL     1       0.488  10.953  19.238  0.00  0.00    +0.000 Br
ATOM     14  C   UNL     1       1.990   8.789  18.143  0.00  0.00    +0.000 A 
ATOM     15  C   UNL     1       2.607   7.532  18.168  0.00  0.00    +0.000 A 
ENDBRANCH   8   9
ENDBRANCH   1   8
BRANCH   4  16
ATOM     16  C   UNL     1       6.971   4.774  16.218  0.00  0.00    +0.000 C 
BRANCH  16  17
ATOM     17  C   UNL     1       6.924   4.594  14.717  0.00  0.00    +0.000 A 
ATOM     18  C   UNL     1       7.777   5.338  13.888  0.00  0.00    +0.000 A 
ATOM     19  C   UNL     1       7.775   5.145  12.507  0.00  0.00    +0.000 A 
ATOM     20  C   UNL     1       6.921   4.205  11.938  0.00  0.00    +0.000 A 
ATOM     21  C   UNL     1       6.063   3.464  12.747  0.00  0.00    +0.000 A 
ATOM     22  C   UNL     1       6.061   3.658  14.130  0.00  0.00    +0.000 A 
ENDBRANCH  16  17
ENDBRANCH   4  16
TORSDOF 4
ENDMDL
MODEL 2
REMARK VINA RESULT:      -7.4      0.089      1.032
REMARK  Name = 
REMARK  4 active torsions:
REMARK  status: ('A' for Active; 'I' for Inactive)
REMARK    1  A    between atoms: C_2  and  C_3
REMARK    2  A    between atoms: C_2  and  N_10
REMARK    3  A    between atoms: N_13  and  C_14
REMARK    4  A    between atoms: C_14  and  C_15
REMARK                            x       y       z     vdW  Elec       q    Type
REMARK                         _______ _______ _______ _____ _____    ______ ____
ROOT
ATOM      1  N   UNL     1       4.182   5.099  18.510  0.00  0.00    +0.000 N 
ATOM      2  C   UNL     1       3.991   5.043  17.052  0.00  0.00    +0.000 C 
ATOM      3  C   UNL     1       4.880   6.047  16.291  0.00  0.00    +0.000 C 
ATOM      4  N   UNL     1       6.311   6.046  16.701  0.00  0.00    +0.000 NA
ATOM      5  C   UNL     1       6.360   6.242  18.169  0.00  0.00    +0.000 C 
ATOM      6  C   UNL     1       5.573   5.190  18.978  0.00  0.00    +0.000 C 
ENDROOT
BRANCH   1   8
ATOM      7  S   UNL     1       2.596   4.100  20.440  0.00  0.00    +0.000 S 
ATOM      8  C   UNL     1       3.128   5.309  19.394  0.00  0.00    +0.000 C 
BRANCH   8   9
ATOM      9  C   UNL     1       2.550   6.695  19.384  0.00  0.00    +0.000 A 
ATOM     10  C   UNL     1       1.904   7.177  20.536  0.00  0.00    +0.000 A 
ATOM     11  C   UNL     1       1.291   8.433  20.539  0.00  0.00    +0.000 A 
ATOM     12  C   UNL     1       1.317   9.215  19.388  0.00  0.00    +0.000 A 
ATOM     13 BR   UNL     1       0.474  10.907  19.385  0.00  0.00    +0.000 Br
ATOM     14  C   UNL     1       1.952   8.755  18.236  0.00  0.00    +0.000 A 
ATOM     15  C   UNL     1       2.568   7.498  18.234  0.00  0.00    +0.000 A 
ENDBRANCH   8   9
ENDBRANCH   1   8
BRANCH   4  16
ATOM     16  C   UNL     1       6.970   4.805  16.256  0.00  0.00    +0.000 C 
BRANCH  16  17
ATOM     17  C   UNL     1       6.983   4.591  14.759  0.00  0.00    +0.000 A 
ATOM     18  C   UNL     1       6.140   3.635  14.173  0.00  0.00    +0.000 A 
ATOM     19  C   UNL     1       6.110   3.463  12.790  0.00  0.00    +0.000 A 
ATOM     20  C   UNL     1       6.922   4.246  11.974  0.00  0.00    +0.000 A 
ATOM     21  C   UNL     1       7.771   5.194  12.541  0.00  0.00    +0.000 A 
ATOM     22  C   UNL     1       7.805   5.365  13.927  0.00  0.00    +0.000 A 
ENDBRANCH  16  17
ENDBRANCH   4  16
TORSDOF 4
ENDMDL
MODEL 3
REMARK VINA RESULT:      -7.3      0.692      1.644
REMARK  Name = 
REMARK  4 active torsions:
REMARK  status: ('A' for Active; 'I' for Inactive)
REMARK    1  A    between atoms: C_2  and  C_3
REMARK    2  A    between atoms: C_2  and  N_10
REMARK    3  A    between atoms: N_13  and  C_14
REMARK    4  A    between atoms: C_14  and  C_15
REMARK                            x       y       z     vdW  Elec       q    Type
REMARK                         _______ _______ _______ _____ _____    ______ ____
ROOT
ATOM      1  N   UNL     1       4.124   5.581  18.401  0.00  0.00    +0.000 N 
ATOM      2  C   UNL     1       5.536   5.841  18.725  0.00  0.00    +0.000 C 
ATOM      3  C   UNL     1       6.474   4.703  18.274  0.00  0.00    +0.000 C 
ATOM      4  N   UNL     1       6.263   4.240  16.876  0.00  0.00    +0.000 NA
ATOM      5  C   UNL     1       4.831   3.889  16.728  0.00  0.00    +0.000 C 
ATOM      6  C   UNL     1       3.856   5.037  17.062  0.00  0.00    +0.000 C 
ENDROOT
BRANCH   1   8
ATOM      7  S   UNL     1       2.826   4.277  20.364  0.00  0.00    +0.000 S 
ATOM      8  C   UNL     1       3.120   5.601  19.365  0.00  0.00    +0.000 C 
BRANCH   8   9
ATOM      9  C   UNL     1       2.370   6.897  19.480  0.00  0.00    +0.000 A 
ATOM     10  C   UNL     1       2.326   7.764  18.374  0.00  0.00    +0.000 A 
ATOM     11  C   UNL     1       1.698   9.010  18.467  0.00  0.00    +0.000 A 
ATOM     12  C   UNL     1       1.114   9.399  19.669  0.00  0.00    +0.000 A 
ATOM     13 BR   UNL     1       0.280  11.090  19.802  0.00  0.00    +0.000 Br
ATOM     14  C   UNL     1       1.147   8.554  20.776  0.00  0.00    +0.000 A 
ATOM     15  C   UNL     1       1.773   7.305  20.682  0.00  0.00    +0.000 A 
ENDBRANCH   8   9
ENDBRANCH   1   8
BRANCH   4  16
ATOM     16  C   UNL     1       6.712   5.271  15.923  0.00  0.00    +0.000 C 
BRANCH  16  17
ATOM     17  C   UNL     1       6.762   4.826  14.478  0.00  0.00    +0.000 A 
ATOM     18  C   UNL     1       7.699   5.385  13.597  0.00  0.00    +0.000 A 
ATOM     19  C   UNL     1       7.786   4.947  12.276  0.00  0.00    +0.000 A 
ATOM     20  C   UNL     1       6.936   3.945  11.819  0.00  0.00    +0.000 A 
ATOM     21  C   UNL     1       5.994   3.385  12.679  0.00  0.00    +0.000 A 
ATOM     22  C   UNL     1       5.904   3.824  14.002  0.00  0.00    +0.000 A 
ENDBRANCH  16  17
ENDBRANCH   4  16
TORSDOF 4
ENDMDL
MODEL 4
REMARK VINA RESULT:      -7.3      0.850      1.732
REMARK  Name = 
REMARK  4 active torsions:
REMARK  status: ('A' for Active; 'I' for Inactive)
REMARK    1  A    between atoms: C_2  and  C_3
REMARK    2  A    between atoms: C_2  and  N_10
REMARK    3  A    between atoms: N_13  and  C_14
REMARK    4  A    between atoms: C_14  and  C_15
REMARK                            x       y       z     vdW  Elec       q    Type
REMARK                         _______ _______ _______ _____ _____    ______ ____
ROOT
ATOM      1  N   UNL     1       3.863   5.738  18.613  0.00  0.00    +0.000 N 
ATOM      2  C   UNL     1       5.289   5.621  18.958  0.00  0.00    +0.000 C 
ATOM      3  C   UNL     1       5.951   4.366  18.354  0.00  0.00    +0.000 C 
ATOM      4  N   UNL     1       5.671   4.150  16.908  0.00  0.00    +0.000 NA
ATOM      5  C   UNL     1       4.201   4.161  16.726  0.00  0.00    +0.000 C 
ATOM      6  C   UNL     1       3.508   5.449  17.216  0.00  0.00    +0.000 C 
ENDROOT
BRANCH   1   8
ATOM      7  S   UNL     1       2.481   4.598  20.621  0.00  0.00    +0.000 S 
ATOM      8  C   UNL     1       2.868   5.864  19.579  0.00  0.00    +0.000 C 
BRANCH   8   9
ATOM      9  C   UNL     1       2.218   7.215  19.656  0.00  0.00    +0.000 A 
ATOM     10  C   UNL     1       1.530   7.579  20.827  0.00  0.00    +0.000 A 
ATOM     11  C   UNL     1       0.852   8.799  20.907  0.00  0.00    +0.000 A 
ATOM     12  C   UNL     1       0.855   9.662  19.815  0.00  0.00    +0.000 A 
ATOM     13 BR   UNL     1      -0.075  11.305  19.916  0.00  0.00    +0.000 Br
ATOM     14  C   UNL     1       1.531   9.319  18.646  0.00  0.00    +0.000 A 
ATOM     15  C   UNL     1       2.212   8.099  18.566  0.00  0.00    +0.000 A 
ENDBRANCH   8   9
ENDBRANCH   1   8
BRANCH   4  16
ATOM     16  C   UNL     1       6.367   5.164  16.096  0.00  0.00    +0.000 C 
BRANCH  16  17
ATOM     17  C   UNL     1       6.616   4.768  14.658  0.00  0.00    +0.000 A 
ATOM     18  C   UNL     1       5.815   3.795  14.042  0.00  0.00    +0.000 A 
ATOM     19  C   UNL     1       6.006   3.457  12.703  0.00  0.00    +0.000 A 
ATOM     20  C   UNL     1       7.001   4.088  11.962  0.00  0.00    +0.000 A 
ATOM     21  C   UNL     1       7.811   5.050  12.561  0.00  0.00    +0.000 A 
ATOM     22  C   UNL     1       7.623   5.388  13.903  0.00  0.00    +0.000 A 
ENDBRANCH  16  17
ENDBRANCH   4  16
TORSDOF 4
ENDMDL
MODEL 5
REMARK VINA RESULT:      -7.3      0.826      1.372
REMARK  Name = 
REMARK  4 active torsions:
REMARK  status: ('A' for Active; 'I' for Inactive)
REMARK    1  A    between atoms: C_2  and  C_3
REMARK    2  A    between atoms: C_2  and  N_10
REMARK    3  A    between atoms: N_13  and  C_14
REMARK    4  A    between atoms: C_14  and  C_15
REMARK                            x       y       z     vdW  Elec       q    Type
REMARK                         _______ _______ _______ _____ _____    ______ ____
ROOT
ATOM      1  N   UNL     1       3.935   5.626  18.564  0.00  0.00    +0.000 N 
ATOM      2  C   UNL     1       5.371   5.762  18.858  0.00  0.00    +0.000 C 
ATOM      3  C   UNL     1       6.204   4.572  18.342  0.00  0.00    +0.000 C 
ATOM      4  N   UNL     1       5.923   4.180  16.934  0.00  0.00    +0.000 NA
ATOM      5  C   UNL     1       4.465   3.948  16.812  0.00  0.00    +0.000 C 
ATOM      6  C   UNL     1       3.593   5.155  17.214  0.00  0.00    +0.000 C 
ENDROOT
BRANCH   1   8
ATOM      7  S   UNL     1       2.623   4.371  20.550  0.00  0.00    +0.000 S 
ATOM      8  C   UNL     1       2.960   5.688  19.555  0.00  0.00    +0.000 C 
BRANCH   8   9
ATOM      9  C   UNL     1       2.283   7.021  19.703  0.00  0.00    +0.000 A 
ATOM     10  C   UNL     1       1.603   7.315  20.899  0.00  0.00    +0.000 A 
ATOM     11  C   UNL     1       0.901   8.515  21.046  0.00  0.00    +0.000 A 
ATOM     12  C   UNL     1       0.870   9.427  19.995  0.00  0.00    +0.000 A 
ATOM     13 BR   UNL     1      -0.093  11.042  20.184  0.00  0.00    +0.000 Br
ATOM     14  C   UNL     1       1.536   9.153  18.802  0.00  0.00    +0.000 A 
ATOM     15  C   UNL     1       2.242   7.953  18.656  0.00  0.00    +0.000 A 
ENDBRANCH   8   9
ENDBRANCH   1   8
BRANCH   4  16
ATOM     16  C   UNL     1       6.429   5.208  16.006  0.00  0.00    +0.000 C 
BRANCH  16  17
ATOM     17  C   UNL     1       6.542   4.766  14.564  0.00  0.00    +0.000 A 
ATOM     18  C   UNL     1       7.581   5.249  13.755  0.00  0.00    +0.000 A 
ATOM     19  C   UNL     1       7.722   4.811  12.439  0.00  0.00    +0.000 A 
ATOM     20  C   UNL     1       6.827   3.884  11.915  0.00  0.00    +0.000 A 
ATOM     21  C   UNL     1       5.784   3.401  12.703  0.00  0.00    +0.000 A 
ATOM     22  C   UNL     1       5.640   3.841  14.021  0.00  0.00    +0.000 A 
ENDBRANCH  16  17
ENDBRANCH   4  16
TORSDOF 4
ENDMDL
MODEL 6
REMARK VINA RESULT:      -7.3      0.245      1.059
REMARK  Name = 
REMARK  4 active torsions:
REMARK  status: ('A' for Active; 'I' for Inactive)
REMARK    1  A    between atoms: C_2  and  C_3
REMARK    2  A    between atoms: C_2  and  N_10
REMARK    3  A    between atoms: N_13  and  C_14
REMARK    4  A    between atoms: C_14  and  C_15
REMARK                            x       y       z     vdW  Elec       q    Type
REMARK                         _______ _______ _______ _____ _____    ______ ____
ROOT
ATOM      1  N   UNL     1       4.246   4.944  18.457  0.00  0.00    +0.000 N 
ATOM      2  C   UNL     1       4.042   4.903  17.000  0.00  0.00    +0.000 C 
ATOM      3  C   UNL     1       4.852   5.981  16.251  0.00  0.00    +0.000 C 
ATOM      4  N   UNL     1       6.284   6.069  16.647  0.00  0.00    +0.000 NA
ATOM      5  C   UNL     1       6.337   6.239  18.117  0.00  0.00    +0.000 C 
ATOM      6  C   UNL     1       5.632   5.120  18.913  0.00  0.00    +0.000 C 
ENDROOT
BRANCH   1   8
ATOM      7  S   UNL     1       2.734   3.791  20.361  0.00  0.00    +0.000 S 
ATOM      8  C   UNL     1       3.190   5.064  19.356  0.00  0.00    +0.000 C 
BRANCH   8   9
ATOM      9  C   UNL     1       2.537   6.416  19.400  0.00  0.00    +0.000 A 
ATOM     10  C   UNL     1       2.597   7.243  18.263  0.00  0.00    +0.000 A 
ATOM     11  C   UNL     1       2.063   8.535  18.291  0.00  0.00    +0.000 A 
ATOM     12  C   UNL     1       1.469   9.010  19.457  0.00  0.00    +0.000 A 
ATOM     13 BR   UNL     1       0.762  10.762  19.501  0.00  0.00    +0.000 Br
ATOM     14  C   UNL     1       1.400   8.206  20.593  0.00  0.00    +0.000 A 
ATOM     15  C   UNL     1       1.932   6.911  20.564  0.00  0.00    +0.000 A 
ENDBRANCH   8   9
ENDBRANCH   1   8
BRANCH   4  16
ATOM     16  C   UNL     1       7.021   4.885  16.170  0.00  0.00    +0.000 C 
BRANCH  16  17
ATOM     17  C   UNL     1       6.973   4.663  14.674  0.00  0.00    +0.000 A 
ATOM     18  C   UNL     1       7.781   5.427  13.820  0.00  0.00    +0.000 A 
ATOM     19  C   UNL     1       7.779   5.199  12.444  0.00  0.00    +0.000 A 
ATOM     20  C   UNL     1       6.970   4.203  11.906  0.00  0.00    +0.000 A 
ATOM     21  C   UNL     1       6.155   3.441  12.741  0.00  0.00    +0.000 A 
ATOM     22  C   UNL     1       6.153   3.670  14.119  0.00  0.00    +0.000 A 
ENDBRANCH  16  17
ENDBRANCH   4  16
TORSDOF 4
ENDMDL
MODEL 7
REMARK VINA RESULT:      -7.2      0.158      1.464
REMARK  Name = 
REMARK  4 active torsions:
REMARK  status: ('A' for Active; 'I' for Inactive)
REMARK    1  A    between atoms: C_2  and  C_3
REMARK    2  A    between atoms: C_2  and  N_10
REMARK    3  A    between atoms: N_13  and  C_14
REMARK    4  A    between atoms: C_14  and  C_15
REMARK                            x       y       z     vdW  Elec       q    Type
REMARK                         _______ _______ _______ _____ _____    ______ ____
ROOT
ATOM      1  N   UNL     1       4.169   4.992  18.517  0.00  0.00    +0.000 N 
ATOM      2  C   UNL     1       3.986   4.949  17.057  0.00  0.00    +0.000 C 
ATOM      3  C   UNL     1       4.856   5.982  16.313  0.00  0.00    +0.000 C 
ATOM      4  N   UNL     1       6.285   6.007  16.730  0.00  0.00    +0.000 NA
ATOM      5  C   UNL     1       6.323   6.186  18.200  0.00  0.00    +0.000 C 
ATOM      6  C   UNL     1       5.556   5.107  18.993  0.00  0.00    +0.000 C 
ENDROOT
BRANCH   1   8
ATOM      7  S   UNL     1       2.626   3.950  20.459  0.00  0.00    +0.000 S 
ATOM      8  C   UNL     1       3.107   5.168  19.399  0.00  0.00    +0.000 C 
BRANCH   8   9
ATOM      9  C   UNL     1       2.471   6.528  19.371  0.00  0.00    +0.000 A 
ATOM     10  C   UNL     1       2.526   7.286  18.188  0.00  0.00    +0.000 A 
ATOM     11  C   UNL     1       2.008   8.584  18.146  0.00  0.00    +0.000 A 
ATOM     12  C   UNL     1       1.435   9.134  19.290  0.00  0.00    +0.000 A 
ATOM     13 BR   UNL     1       0.750  10.895  19.240  0.00  0.00    +0.000 Br
ATOM     14  C   UNL     1       1.371   8.398  20.471  0.00  0.00    +0.000 A 
ATOM     15  C   UNL     1       1.888   7.098  20.512  0.00  0.00    +0.000 A 
ENDBRANCH   8   9
ENDBRANCH   1   8
BRANCH   4  16
ATOM     16  C   UNL     1       6.973   4.786  16.273  0.00  0.00    +0.000 C 
BRANCH  16  17
ATOM     17  C   UNL     1       6.980   4.581  14.775  0.00  0.00    +0.000 A 
ATOM     18  C   UNL     1       6.127   3.636  14.186  0.00  0.00    +0.000 A 
ATOM     19  C   UNL     1       6.091   3.473  12.801  0.00  0.00    +0.000 A 
ATOM     20  C   UNL     1       6.909   4.252  11.988  0.00  0.00    +0.000 A 
ATOM     21  C   UNL     1       7.768   5.188  12.559  0.00  0.00    +0.000 A 
ATOM     22  C   UNL     1       7.807   5.351  13.945  0.00  0.00    +0.000 A 
ENDBRANCH  16  17
ENDBRANCH   4  16
TORSDOF 4
ENDMDL
MODEL 8
REMARK VINA RESULT:      -7.1      0.906      2.048
REMARK  Name = 
REMARK  4 active torsions:
REMARK  status: ('A' for Active; 'I' for Inactive)
REMARK    1  A    between atoms: C_2  and  C_3
REMARK    2  A    between atoms: C_2  and  N_10
REMARK    3  A    between atoms: N_13  and  C_14
REMARK    4  A    between atoms: C_14  and  C_15
REMARK                            x       y       z     vdW  Elec       q    Type
REMARK                         _______ _______ _______ _____ _____    ______ ____
ROOT
ATOM      1  N   UNL     1       3.689   5.651  18.710  0.00  0.00    +0.000 N 
ATOM      2  C   UNL     1       5.132   5.693  18.998  0.00  0.00    +0.000 C 
ATOM      3  C   UNL     1       5.895   4.489  18.412  0.00  0.00    +0.000 C 
ATOM      4  N   UNL     1       5.584   4.188  16.987  0.00  0.00    +0.000 NA
ATOM      5  C   UNL     1       4.115   4.042  16.868  0.00  0.00    +0.000 C 
ATOM      6  C   UNL     1       3.312   5.272  17.340  0.00  0.00    +0.000 C 
ENDROOT
BRANCH   1   8
ATOM      7  S   UNL     1       2.437   4.415  20.746  0.00  0.00    +0.000 S 
ATOM      8  C   UNL     1       2.725   5.714  19.712  0.00  0.00    +0.000 C 
BRANCH   8   9
ATOM      9  C   UNL     1       2.013   7.031  19.833  0.00  0.00    +0.000 A 
ATOM     10  C   UNL     1       2.153   7.983  18.807  0.00  0.00    +0.000 A 
ATOM     11  C   UNL     1       1.564   9.246  18.919  0.00  0.00    +0.000 A 
ATOM     12  C   UNL     1       0.835   9.567  20.060  0.00  0.00    +0.000 A 
ATOM     13 BR   UNL     1       0.052  11.280  20.221  0.00  0.00    +0.000 Br
ATOM     14  C   UNL     1       0.685   8.637  21.088  0.00  0.00    +0.000 A 
ATOM     15  C   UNL     1       1.273   7.372  20.974  0.00  0.00    +0.000 A 
ENDBRANCH   8   9
ENDBRANCH   1   8
BRANCH   4  16
ATOM     16  C   UNL     1       6.140   5.234  16.111  0.00  0.00    +0.000 C 
BRANCH  16  17
ATOM     17  C   UNL     1       6.428   4.792  14.693  0.00  0.00    +0.000 A 
ATOM     18  C   UNL     1       5.616   3.832  14.073  0.00  0.00    +0.000 A 
ATOM     19  C   UNL     1       5.844   3.452  12.751  0.00  0.00    +0.000 A 
ATOM     20  C   UNL     1       6.888   4.029  12.032  0.00  0.00    +0.000 A 
ATOM     21  C   UNL     1       7.708   4.978  12.637  0.00  0.00    +0.000 A 
ATOM     22  C   UNL     1       7.483   5.357  13.962  0.00  0.00    +0.000 A 
ENDBRANCH  16  17
ENDBRANCH   4  16
TORSDOF 4
ENDMDL
MODEL 9
REMARK VINA RESULT:      -6.8      1.253      1.913
REMARK  Name = 
REMARK  4 active torsions:
REMARK  status: ('A' for Active; 'I' for Inactive)
REMARK    1  A    between atoms: C_2  and  C_3
REMARK    2  A    between atoms: C_2  and  N_10
REMARK    3  A    between atoms: N_13  and  C_14
REMARK    4  A    between atoms: C_14  and  C_15
REMARK                            x       y       z     vdW  Elec       q    Type
REMARK                         _______ _______ _______ _____ _____    ______ ____
ROOT
ATOM      1  N   UNL     1       4.606   5.474  17.194  0.00  0.00    +0.000 N 
ATOM      2  C   UNL     1       5.753   6.336  16.869  0.00  0.00    +0.000 C 
ATOM      3  C   UNL     1       7.011   5.536  16.474  0.00  0.00    +0.000 C 
ATOM      4  N   UNL     1       6.775   4.460  15.473  0.00  0.00    +0.000 NA
ATOM      5  C   UNL     1       5.689   3.594  15.987  0.00  0.00    +0.000 C 
ATOM      6  C   UNL     1       4.371   4.338  16.291  0.00  0.00    +0.000 C 
ENDROOT
BRANCH   1   8
ATOM      7  S   UNL     1       4.076   4.368  19.589  0.00  0.00    +0.000 S 
ATOM      8  C   UNL     1       3.927   5.559  18.407  0.00  0.00    +0.000 C 
BRANCH   8   9
ATOM      9  C   UNL     1       3.111   6.805  18.598  0.00  0.00    +0.000 A 
ATOM     10  C   UNL     1       2.441   7.005  19.818  0.00  0.00    +0.000 A 
ATOM     11  C   UNL     1       1.615   8.118  20.006  0.00  0.00    +0.000 A 
ATOM     12  C   UNL     1       1.450   9.035  18.972  0.00  0.00    +0.000 A 
ATOM     13 BR   UNL     1       0.319  10.530  19.218  0.00  0.00    +0.000 Br
ATOM     14  C   UNL     1       2.104   8.853  17.756  0.00  0.00    +0.000 A 
ATOM     15  C   UNL     1       2.934   7.741  17.569  0.00  0.00    +0.000 A 
ENDBRANCH   8   9
ENDBRANCH   1   8
BRANCH   4  16
ATOM     16  C   UNL     1       6.478   5.046  14.153  0.00  0.00    +0.000 C 
BRANCH  16  17
ATOM     17  C   UNL     1       6.239   4.042  13.048  0.00  0.00    +0.000 A 
ATOM     18  C   UNL     1       7.320   3.383  12.444  0.00  0.00    +0.000 A 
ATOM     19  C   UNL     1       7.108   2.421  11.458  0.00  0.00    +0.000 A 
ATOM     20  C   UNL     1       5.811   2.104  11.063  0.00  0.00    +0.000 A 
ATOM     21  C   UNL     1       4.727   2.755  11.648  0.00  0.00    +0.000 A 
ATOM     22  C   UNL     1       4.938   3.722  12.634  0.00  0.00    +0.000 A 
ENDBRANCH  16  17
ENDBRANCH   4  16
TORSDOF 4
ENDMDL
