MODEL 1
REMARK VINA RESULT:      -6.8      0.000      0.000
REMARK  Name = 
REMARK  11 active torsions:
REMARK  status: ('A' for Active; 'I' for Inactive)
REMARK    1  A    between atoms: C_1  and  C_2
REMARK    2  A    between atoms: C_2  and  N_3
REMARK    3  A    between atoms: N_3  and  C_4
REMARK    4  A    between atoms: N_3  and  C_6
REMARK    5  A    between atoms: C_4  and  C_5
REMARK    6  A    between atoms: C_9  and  N_10
REMARK    7  A    between atoms: C_11  and  C_13
REMARK    8  A    between atoms: C_13  and  N_14
REMARK    9  A    between atoms: N_17  and  C_18
REMARK   10  A    between atoms: C_18  and  C_19
REMARK   11  A    between atoms: N_21  and  C_22
REMARK                            x       y       z     vdW  Elec       q    Type
REMARK                         _______ _______ _______ _____ _____    ______ ____
ROOT
ATOM      1  N   UNL     1      -1.207  11.253  22.134  0.00  0.00    +0.000 NA
ATOM      2  C   UNL     1      -1.831  12.223  23.062  0.00  0.00    +0.000 C 
ATOM      3  C   UNL     1      -1.143  13.597  23.307  0.00  0.00    +0.000 C 
ATOM      4  N   UNL     1      -0.476  14.214  22.137  0.00  0.00    +0.000 NA
ATOM      5  C   UNL     1       0.400  13.174  21.560  0.00  0.00    +0.000 C 
ATOM      6  C   UNL     1      -0.332  11.888  21.127  0.00  0.00    +0.000 C 
ENDROOT
BRANCH   1   7
ATOM      7  C   UNL     1      -0.503  10.149  22.819  0.00  0.00    +0.000 C 
BRANCH   7   9
ATOM      8  N   UNL     1       1.076   9.186  21.196  0.00  0.00    +0.000 N 
ATOM      9  C   UNL     1      -0.124   9.007  21.870  0.00  0.00    +0.000 C 
ATOM     10  O   UNL     1      -0.849   8.012  21.820  0.00  0.00    +0.000 OA
ATOM     11  H   UNL     1       1.553  10.062  21.383  0.00  0.00    +0.000 HD
BRANCH   8  15
ATOM     12  C   UNL     1       2.936   6.558  18.392  0.00  0.00    +0.000 A 
ATOM     13  C   UNL     1       2.669   6.157  19.699  0.00  0.00    +0.000 A 
ATOM     14  C   UNL     1       2.070   7.011  20.631  0.00  0.00    +0.000 A 
ATOM     15  C   UNL     1       1.669   8.293  20.276  0.00  0.00    +0.000 A 
ATOM     16  C   UNL     1       1.873   8.702  18.962  0.00  0.00    +0.000 A 
ATOM     17  C   UNL     1       2.503   7.848  18.034  0.00  0.00    +0.000 A 
BRANCH  12  18
ATOM     18  N   UNL     1       3.597   5.723  17.502  0.00  0.00    +0.000 N 
BRANCH  18  20
ATOM     19  C   UNL     1       4.392   3.453  16.793  0.00  0.00    +0.000 C 
ATOM     20  C   UNL     1       3.325   4.278  17.503  0.00  0.00    +0.000 C 
ENDBRANCH  18  20
BRANCH  18  21
ATOM     21  C   UNL     1       4.662   6.249  16.646  0.00  0.00    +0.000 C 
ATOM     22  C   UNL     1       5.864   6.718  17.462  0.00  0.00    +0.000 C 
ENDBRANCH  18  21
ENDBRANCH  12  18
ENDBRANCH   8  15
ENDBRANCH   7   9
ENDBRANCH   1   7
BRANCH   4  23
ATOM     23  C   UNL     1      -1.497  14.706  21.177  0.00  0.00    +0.000 C 
BRANCH  23  24
ATOM     24  C   UNL     1      -0.892  15.175  19.849  0.00  0.00    +0.000 C 
ATOM     25  O   UNL     1      -0.767  14.402  18.900  0.00  0.00    +0.000 OA
ATOM     26  N   UNL     1      -0.514  16.507  19.849  0.00  0.00    +0.000 N 
ATOM     27  H   UNL     1      -0.224  16.845  20.764  0.00  0.00    +0.000 HD
BRANCH  26  28
ATOM     28  C   UNL     1       0.077  17.114  18.719  0.00  0.00    +0.000 A 
ATOM     29  C   UNL     1       1.441  16.978  18.439  0.00  0.00    +0.000 A 
ATOM     30  C   UNL     1       1.986  17.576  17.299  0.00  0.00    +0.000 A 
ATOM     31  C   UNL     1       1.180  18.340  16.453  0.00  0.00    +0.000 A 
ATOM     32  C   UNL     1      -0.178  18.489  16.735  0.00  0.00    +0.000 A 
ATOM     33  C   UNL     1      -0.724  17.855  17.849  0.00  0.00    +0.000 A 
ATOM     34  F   UNL     1      -2.028  18.020  18.120  0.00  0.00    +0.000 F 
ENDBRANCH  26  28
ENDBRANCH  23  24
ENDBRANCH   4  23
TORSDOF 9
ENDMDL
MODEL 2
REMARK VINA RESULT:      -6.7      3.297      5.619
REMARK  Name = 
REMARK  11 active torsions:
REMARK  status: ('A' for Active; 'I' for Inactive)
REMARK    1  A    between atoms: C_1  and  C_2
REMARK    2  A    between atoms: C_2  and  N_3
REMARK    3  A    between atoms: N_3  and  C_4
REMARK    4  A    between atoms: N_3  and  C_6
REMARK    5  A    between atoms: C_4  and  C_5
REMARK    6  A    between atoms: C_9  and  N_10
REMARK    7  A    between atoms: C_11  and  C_13
REMARK    8  A    between atoms: C_13  and  N_14
REMARK    9  A    between atoms: N_17  and  C_18
REMARK   10  A    between atoms: C_18  and  C_19
REMARK   11  A    between atoms: N_21  and  C_22
REMARK                            x       y       z     vdW  Elec       q    Type
REMARK                         _______ _______ _______ _____ _____    ______ ____
ROOT
ATOM      1  N   UNL     1       1.041  11.374  19.781  0.00  0.00    +0.000 NA
ATOM      2  C   UNL     1       1.431  12.747  20.168  0.00  0.00    +0.000 C 
ATOM      3  C   UNL     1       0.375  13.888  20.105  0.00  0.00    +0.000 C 
ATOM      4  N   UNL     1      -1.011  13.519  20.477  0.00  0.00    +0.000 NA
ATOM      5  C   UNL     1      -1.348  12.316  19.690  0.00  0.00    +0.000 C 
ATOM      6  C   UNL     1      -0.407  11.116  19.921  0.00  0.00    +0.000 C 
ENDROOT
BRANCH   1   7
ATOM      7  C   UNL     1       1.515  10.980  18.438  0.00  0.00    +0.000 C 
BRANCH   7   9
ATOM      8  N   UNL     1       2.166   8.767  19.293  0.00  0.00    +0.000 N 
ATOM      9  C   UNL     1       1.571   9.460  18.248  0.00  0.00    +0.000 C 
ATOM     10  O   UNL     1       1.044   8.968  17.249  0.00  0.00    +0.000 OA
ATOM     11  H   UNL     1       2.522   9.341  20.050  0.00  0.00    +0.000 HD
BRANCH   8  15
ATOM     12  C   UNL     1       2.588   4.528  19.587  0.00  0.00    +0.000 A 
ATOM     13  C   UNL     1       3.147   5.244  18.531  0.00  0.00    +0.000 A 
ATOM     14  C   UNL     1       3.008   6.630  18.416  0.00  0.00    +0.000 A 
ATOM     15  C   UNL     1       2.339   7.368  19.386  0.00  0.00    +0.000 A 
ATOM     16  C   UNL     1       1.816   6.687  20.480  0.00  0.00    +0.000 A 
ATOM     17  C   UNL     1       1.934   5.285  20.577  0.00  0.00    +0.000 A 
BRANCH  12  18
ATOM     18  N   UNL     1       2.672   3.144  19.646  0.00  0.00    +0.000 N 
BRANCH  18  20
ATOM     19  C   UNL     1       0.423   2.362  18.860  0.00  0.00    +0.000 C 
ATOM     20  C   UNL     1       1.479   2.344  19.959  0.00  0.00    +0.000 C 
ENDBRANCH  18  20
BRANCH  18  21
ATOM     21  C   UNL     1       3.969   2.476  19.529  0.00  0.00    +0.000 C 
ATOM     22  C   UNL     1       3.993   1.487  18.366  0.00  0.00    +0.000 C 
ENDBRANCH  18  21
ENDBRANCH  12  18
ENDBRANCH   8  15
ENDBRANCH   7   9
ENDBRANCH   1   7
BRANCH   4  23
ATOM     23  C   UNL     1      -1.095  13.293  21.943  0.00  0.00    +0.000 C 
BRANCH  23  24
ATOM     24  C   UNL     1      -2.450  12.727  22.383  0.00  0.00    +0.000 C 
ATOM     25  O   UNL     1      -2.530  11.632  22.938  0.00  0.00    +0.000 OA
ATOM     26  N   UNL     1      -3.521  13.552  22.086  0.00  0.00    +0.000 N 
ATOM     27  H   UNL     1      -3.378  14.117  21.252  0.00  0.00    +0.000 HD
BRANCH  26  28
ATOM     28  C   UNL     1      -4.850  13.192  22.402  0.00  0.00    +0.000 A 
ATOM     29  C   UNL     1      -5.707  12.633  21.448  0.00  0.00    +0.000 A 
ATOM     30  C   UNL     1      -7.009  12.269  21.804  0.00  0.00    +0.000 A 
ATOM     31  C   UNL     1      -7.472  12.493  23.103  0.00  0.00    +0.000 A 
ATOM     32  C   UNL     1      -6.624  13.060  24.053  0.00  0.00    +0.000 A 
ATOM     33  C   UNL     1      -5.314  13.382  23.705  0.00  0.00    +0.000 A 
ATOM     34  F   UNL     1      -4.514  13.944  24.623  0.00  0.00    +0.000 F 
ENDBRANCH  26  28
ENDBRANCH  23  24
ENDBRANCH   4  23
TORSDOF 9
ENDMDL
MODEL 3
REMARK VINA RESULT:      -6.7      3.637      4.418
REMARK  Name = 
REMARK  11 active torsions:
REMARK  status: ('A' for Active; 'I' for Inactive)
REMARK    1  A    between atoms: C_1  and  C_2
REMARK    2  A    between atoms: C_2  and  N_3
REMARK    3  A    between atoms: N_3  and  C_4
REMARK    4  A    between atoms: N_3  and  C_6
REMARK    5  A    between atoms: C_4  and  C_5
REMARK    6  A    between atoms: C_9  and  N_10
REMARK    7  A    between atoms: C_11  and  C_13
REMARK    8  A    between atoms: C_13  and  N_14
REMARK    9  A    between atoms: N_17  and  C_18
REMARK   10  A    between atoms: C_18  and  C_19
REMARK   11  A    between atoms: N_21  and  C_22
REMARK                            x       y       z     vdW  Elec       q    Type
REMARK                         _______ _______ _______ _____ _____    ______ ____
ROOT
ATOM      1  N   UNL     1       0.525  12.263  20.074  0.00  0.00    +0.000 NA
ATOM      2  C   UNL     1       1.712  12.408  19.203  0.00  0.00    +0.000 C 
ATOM      3  C   UNL     1       1.810  13.628  18.242  0.00  0.00    +0.000 C 
ATOM      4  N   UNL     1       1.266  14.908  18.751  0.00  0.00    +0.000 NA
ATOM      5  C   UNL     1      -0.094  14.616  19.248  0.00  0.00    +0.000 C 
ATOM      6  C   UNL     1      -0.154  13.545  20.355  0.00  0.00    +0.000 C 
ENDROOT
BRANCH   1   7
ATOM      7  C   UNL     1      -0.441  11.253  19.595  0.00  0.00    +0.000 C 
BRANCH   7   9
ATOM      8  N   UNL     1       1.126   9.358  19.690  0.00  0.00    +0.000 N 
ATOM      9  C   UNL     1       0.235  10.068  18.896  0.00  0.00    +0.000 C 
ATOM     10  O   UNL     1      -0.094   9.794  17.741  0.00  0.00    +0.000 OA
ATOM     11  H   UNL     1       1.251   9.717  20.631  0.00  0.00    +0.000 HD
BRANCH   8  15
ATOM     12  C   UNL     1       3.469   5.983  18.528  0.00  0.00    +0.000 A 
ATOM     13  C   UNL     1       2.689   5.965  19.682  0.00  0.00    +0.000 A 
ATOM     14  C   UNL     1       1.925   7.067  20.081  0.00  0.00    +0.000 A 
ATOM     15  C   UNL     1       1.874   8.222  19.309  0.00  0.00    +0.000 A 
ATOM     16  C   UNL     1       2.600   8.249  18.123  0.00  0.00    +0.000 A 
ATOM     17  C   UNL     1       3.391   7.146  17.740  0.00  0.00    +0.000 A 
BRANCH  12  18
ATOM     18  N   UNL     1       4.278   4.909  18.187  0.00  0.00    +0.000 N 
BRANCH  18  20
ATOM     19  C   UNL     1       5.117   4.264  15.913  0.00  0.00    +0.000 C 
ATOM     20  C   UNL     1       4.014   4.146  16.958  0.00  0.00    +0.000 C 
ENDBRANCH  18  20
BRANCH  18  21
ATOM     21  C   UNL     1       5.318   4.444  19.106  0.00  0.00    +0.000 C 
ATOM     22  C   UNL     1       6.479   5.431  19.194  0.00  0.00    +0.000 C 
ENDBRANCH  18  21
ENDBRANCH  12  18
ENDBRANCH   8  15
ENDBRANCH   7   9
ENDBRANCH   1   7
BRANCH   4  23
ATOM     23  C   UNL     1       2.161  15.452  19.805  0.00  0.00    +0.000 C 
BRANCH  23  24
ATOM     24  C   UNL     1       3.457  16.045  19.240  0.00  0.00    +0.000 C 
ATOM     25  O   UNL     1       3.432  16.984  18.446  0.00  0.00    +0.000 OA
ATOM     26  N   UNL     1       4.603  15.421  19.702  0.00  0.00    +0.000 N 
ATOM     27  H   UNL     1       4.468  14.436  19.918  0.00  0.00    +0.000 HD
BRANCH  26  28
ATOM     28  C   UNL     1       5.891  15.819  19.281  0.00  0.00    +0.000 A 
ATOM     29  C   UNL     1       6.592  16.842  19.926  0.00  0.00    +0.000 A 
ATOM     30  C   UNL     1       7.875  17.193  19.494  0.00  0.00    +0.000 A 
ATOM     31  C   UNL     1       8.448  16.549  18.396  0.00  0.00    +0.000 A 
ATOM     32  C   UNL     1       7.747  15.535  17.743  0.00  0.00    +0.000 A 
ATOM     33  C   UNL     1       6.488  15.160  18.204  0.00  0.00    +0.000 A 
ATOM     34  F   UNL     1       5.815  14.197  17.556  0.00  0.00    +0.000 F 
ENDBRANCH  26  28
ENDBRANCH  23  24
ENDBRANCH   4  23
TORSDOF 9
ENDMDL
MODEL 4
REMARK VINA RESULT:      -6.7      2.163      3.031
REMARK  Name = 
REMARK  11 active torsions:
REMARK  status: ('A' for Active; 'I' for Inactive)
REMARK    1  A    between atoms: C_1  and  C_2
REMARK    2  A    between atoms: C_2  and  N_3
REMARK    3  A    between atoms: N_3  and  C_4
REMARK    4  A    between atoms: N_3  and  C_6
REMARK    5  A    between atoms: C_4  and  C_5
REMARK    6  A    between atoms: C_9  and  N_10
REMARK    7  A    between atoms: C_11  and  C_13
REMARK    8  A    between atoms: C_13  and  N_14
REMARK    9  A    between atoms: N_17  and  C_18
REMARK   10  A    between atoms: C_18  and  C_19
REMARK   11  A    between atoms: N_21  and  C_22
REMARK                            x       y       z     vdW  Elec       q    Type
REMARK                         _______ _______ _______ _____ _____    ______ ____
ROOT
ATOM      1  N   UNL     1      -0.181  11.516  22.458  0.00  0.00    +0.000 NA
ATOM      2  C   UNL     1       0.152  11.693  21.028  0.00  0.00    +0.000 C 
ATOM      3  C   UNL     1      -0.959  12.141  20.034  0.00  0.00    +0.000 C 
ATOM      4  N   UNL     1      -1.952  13.109  20.555  0.00  0.00    +0.000 NA
ATOM      5  C   UNL     1      -2.446  12.556  21.832  0.00  0.00    +0.000 C 
ATOM      6  C   UNL     1      -1.350  12.310  22.889  0.00  0.00    +0.000 C 
ENDROOT
BRANCH   1   7
ATOM      7  C   UNL     1      -0.330  10.102  22.860  0.00  0.00    +0.000 C 
BRANCH   7   9
ATOM      8  N   UNL     1       0.470   8.395  21.279  0.00  0.00    +0.000 N 
ATOM      9  C   UNL     1       0.809   9.214  22.347  0.00  0.00    +0.000 C 
ATOM     10  O   UNL     1       1.926   9.331  22.854  0.00  0.00    +0.000 OA
ATOM     11  H   UNL     1      -0.496   8.453  20.976  0.00  0.00    +0.000 HD
BRANCH   8  15
ATOM     12  C   UNL     1       2.967   5.595  19.239  0.00  0.00    +0.000 A 
ATOM     13  C   UNL     1       2.881   6.925  18.833  0.00  0.00    +0.000 A 
ATOM     14  C   UNL     1       2.059   7.851  19.484  0.00  0.00    +0.000 A 
ATOM     15  C   UNL     1       1.322   7.491  20.607  0.00  0.00    +0.000 A 
ATOM     16  C   UNL     1       1.429   6.183  21.068  0.00  0.00    +0.000 A 
ATOM     17  C   UNL     1       2.237   5.247  20.390  0.00  0.00    +0.000 A 
BRANCH  12  18
ATOM     18  N   UNL     1       3.729   4.674  18.536  0.00  0.00    +0.000 N 
BRANCH  18  20
ATOM     19  C   UNL     1       6.112   5.242  19.075  0.00  0.00    +0.000 C 
ATOM     20  C   UNL     1       5.045   5.057  18.003  0.00  0.00    +0.000 C 
ENDBRANCH  18  20
BRANCH  18  21
ATOM     21  C   UNL     1       3.181   3.357  18.207  0.00  0.00    +0.000 C 
ATOM     22  C   UNL     1       3.836   2.250  19.028  0.00  0.00    +0.000 C 
ENDBRANCH  18  21
ENDBRANCH  12  18
ENDBRANCH   8  15
ENDBRANCH   7   9
ENDBRANCH   1   7
BRANCH   4  23
ATOM     23  C   UNL     1      -1.319  14.444  20.711  0.00  0.00    +0.000 C 
BRANCH  23  24
ATOM     24  C   UNL     1      -0.258  14.731  19.643  0.00  0.00    +0.000 C 
ATOM     25  O   UNL     1      -0.551  14.756  18.448  0.00  0.00    +0.000 OA
ATOM     26  N   UNL     1       1.009  14.941  20.158  0.00  0.00    +0.000 N 
ATOM     27  H   UNL     1       1.185  14.429  21.020  0.00  0.00    +0.000 HD
BRANCH  26  28
ATOM     28  C   UNL     1       2.119  15.204  19.326  0.00  0.00    +0.000 A 
ATOM     29  C   UNL     1       2.400  16.493  18.859  0.00  0.00    +0.000 A 
ATOM     30  C   UNL     1       3.521  16.718  18.055  0.00  0.00    +0.000 A 
ATOM     31  C   UNL     1       4.346  15.654  17.685  0.00  0.00    +0.000 A 
ATOM     32  C   UNL     1       4.064  14.366  18.139  0.00  0.00    +0.000 A 
ATOM     33  C   UNL     1       2.970  14.154  18.975  0.00  0.00    +0.000 A 
ATOM     34  F   UNL     1       2.698  12.908  19.391  0.00  0.00    +0.000 F 
ENDBRANCH  26  28
ENDBRANCH  23  24
ENDBRANCH   4  23
TORSDOF 9
ENDMDL
MODEL 5
REMARK VINA RESULT:      -6.6      3.415      4.412
REMARK  Name = 
REMARK  11 active torsions:
REMARK  status: ('A' for Active; 'I' for Inactive)
REMARK    1  A    between atoms: C_1  and  C_2
REMARK    2  A    between atoms: C_2  and  N_3
REMARK    3  A    between atoms: N_3  and  C_4
REMARK    4  A    between atoms: N_3  and  C_6
REMARK    5  A    between atoms: C_4  and  C_5
REMARK    6  A    between atoms: C_9  and  N_10
REMARK    7  A    between atoms: C_11  and  C_13
REMARK    8  A    between atoms: C_13  and  N_14
REMARK    9  A    between atoms: N_17  and  C_18
REMARK   10  A    between atoms: C_18  and  C_19
REMARK   11  A    between atoms: N_21  and  C_22
REMARK                            x       y       z     vdW  Elec       q    Type
REMARK                         _______ _______ _______ _____ _____    ______ ____
ROOT
ATOM      1  N   UNL     1       0.285  13.141  20.974  0.00  0.00    +0.000 NA
ATOM      2  C   UNL     1       1.697  12.987  20.562  0.00  0.00    +0.000 C 
ATOM      3  C   UNL     1       2.117  13.373  19.114  0.00  0.00    +0.000 C 
ATOM      4  N   UNL     1       1.434  14.548  18.525  0.00  0.00    +0.000 NA
ATOM      5  C   UNL     1      -0.014  14.328  18.715  0.00  0.00    +0.000 C 
ATOM      6  C   UNL     1      -0.448  14.152  20.184  0.00  0.00    +0.000 C 
ENDROOT
BRANCH   1   7
ATOM      7  C   UNL     1      -0.461  11.867  21.016  0.00  0.00    +0.000 C 
BRANCH   7   9
ATOM      8  N   UNL     1       0.613  10.045  19.758  0.00  0.00    +0.000 N 
ATOM      9  C   UNL     1       0.456  10.639  21.003  0.00  0.00    +0.000 C 
ATOM     10  O   UNL     1       1.025  10.313  22.046  0.00  0.00    +0.000 OA
ATOM     11  H   UNL     1       0.083  10.470  19.004  0.00  0.00    +0.000 HD
BRANCH   8  15
ATOM     12  C   UNL     1       2.928   6.569  18.871  0.00  0.00    +0.000 A 
ATOM     13  C   UNL     1       2.837   7.632  17.974  0.00  0.00    +0.000 A 
ATOM     14  C   UNL     1       2.074   8.772  18.247  0.00  0.00    +0.000 A 
ATOM     15  C   UNL     1       1.405   8.915  19.457  0.00  0.00    +0.000 A 
ATOM     16  C   UNL     1       1.521   7.894  20.394  0.00  0.00    +0.000 A 
ATOM     17  C   UNL     1       2.268   6.734  20.102  0.00  0.00    +0.000 A 
BRANCH  12  18
ATOM     18  N   UNL     1       3.629   5.415  18.553  0.00  0.00    +0.000 N 
BRANCH  18  20
ATOM     19  C   UNL     1       6.134   5.304  18.527  0.00  0.00    +0.000 C 
ATOM     20  C   UNL     1       4.844   5.059  19.300  0.00  0.00    +0.000 C 
ENDBRANCH  18  20
BRANCH  18  21
ATOM     21  C   UNL     1       3.244   4.610  17.392  0.00  0.00    +0.000 C 
ATOM     22  C   UNL     1       2.144   3.609  17.737  0.00  0.00    +0.000 C 
ENDBRANCH  18  21
ENDBRANCH  12  18
ENDBRANCH   8  15
ENDBRANCH   7   9
ENDBRANCH   1   7
BRANCH   4  23
ATOM     23  C   UNL     1       1.919  15.792  19.178  0.00  0.00    +0.000 C 
BRANCH  23  24
ATOM     24  C   UNL     1       3.276  16.258  18.642  0.00  0.00    +0.000 C 
ATOM     25  O   UNL     1       3.351  17.030  17.687  0.00  0.00    +0.000 OA
ATOM     26  N   UNL     1       4.357  15.723  19.322  0.00  0.00    +0.000 N 
ATOM     27  H   UNL     1       4.177  14.798  19.704  0.00  0.00    +0.000 HD
BRANCH  26  28
ATOM     28  C   UNL     1       5.689  16.025  18.961  0.00  0.00    +0.000 A 
ATOM     29  C   UNL     1       6.335  17.175  19.427  0.00  0.00    +0.000 A 
ATOM     30  C   UNL     1       7.662  17.428  19.066  0.00  0.00    +0.000 A 
ATOM     31  C   UNL     1       8.337  16.554  18.213  0.00  0.00    +0.000 A 
ATOM     32  C   UNL     1       7.694  15.413  17.736  0.00  0.00    +0.000 A 
ATOM     33  C   UNL     1       6.386  15.142  18.133  0.00  0.00    +0.000 A 
ATOM     34  F   UNL     1       5.770  14.051  17.655  0.00  0.00    +0.000 F 
ENDBRANCH  26  28
ENDBRANCH  23  24
ENDBRANCH   4  23
TORSDOF 9
ENDMDL
MODEL 6
REMARK VINA RESULT:      -6.5      3.244      5.512
REMARK  Name = 
REMARK  11 active torsions:
REMARK  status: ('A' for Active; 'I' for Inactive)
REMARK    1  A    between atoms: C_1  and  C_2
REMARK    2  A    between atoms: C_2  and  N_3
REMARK    3  A    between atoms: N_3  and  C_4
REMARK    4  A    between atoms: N_3  and  C_6
REMARK    5  A    between atoms: C_4  and  C_5
REMARK    6  A    between atoms: C_9  and  N_10
REMARK    7  A    between atoms: C_11  and  C_13
REMARK    8  A    between atoms: C_13  and  N_14
REMARK    9  A    between atoms: N_17  and  C_18
REMARK   10  A    between atoms: C_18  and  C_19
REMARK   11  A    between atoms: N_21  and  C_22
REMARK                            x       y       z     vdW  Elec       q    Type
REMARK                         _______ _______ _______ _____ _____    ______ ____
ROOT
ATOM      1  N   UNL     1       0.330  11.499  20.079  0.00  0.00    +0.000 NA
ATOM      2  C   UNL     1       0.964  12.761  20.521  0.00  0.00    +0.000 C 
ATOM      3  C   UNL     1       0.229  14.111  20.278  0.00  0.00    +0.000 C 
ATOM      4  N   UNL     1      -1.245  14.089  20.412  0.00  0.00    +0.000 NA
ATOM      5  C   UNL     1      -1.724  12.963  19.585  0.00  0.00    +0.000 C 
ATOM      6  C   UNL     1      -1.141  11.590  19.975  0.00  0.00    +0.000 C 
ENDROOT
BRANCH   1   7
ATOM      7  C   UNL     1       0.911  10.950  18.837  0.00  0.00    +0.000 C 
BRANCH   7   9
ATOM      8  N   UNL     1       2.120   9.019  17.908  0.00  0.00    +0.000 N 
ATOM      9  C   UNL     1       1.440   9.521  19.009  0.00  0.00    +0.000 C 
ATOM     10  O   UNL     1       1.289   8.959  20.095  0.00  0.00    +0.000 OA
ATOM     11  H   UNL     1       2.168   9.638  17.106  0.00  0.00    +0.000 HD
BRANCH   8  15
ATOM     12  C   UNL     1       3.852   5.136  17.509  0.00  0.00    +0.000 A 
ATOM     13  C   UNL     1       4.602   6.293  17.306  0.00  0.00    +0.000 A 
ATOM     14  C   UNL     1       4.046   7.570  17.423  0.00  0.00    +0.000 A 
ATOM     15  C   UNL     1       2.719   7.744  17.797  0.00  0.00    +0.000 A 
ATOM     16  C   UNL     1       1.959   6.608  18.059  0.00  0.00    +0.000 A 
ATOM     17  C   UNL     1       2.517   5.322  17.912  0.00  0.00    +0.000 A 
BRANCH  12  18
ATOM     18  N   UNL     1       4.401   3.877  17.317  0.00  0.00    +0.000 N 
BRANCH  18  20
ATOM     19  C   UNL     1       4.123   2.258  19.212  0.00  0.00    +0.000 C 
ATOM     20  C   UNL     1       3.700   2.682  17.811  0.00  0.00    +0.000 C 
ENDBRANCH  18  20
BRANCH  18  21
ATOM     21  C   UNL     1       5.738   3.732  16.740  0.00  0.00    +0.000 C 
ATOM     22  C   UNL     1       5.722   3.902  15.223  0.00  0.00    +0.000 C 
ENDBRANCH  18  21
ENDBRANCH  12  18
ENDBRANCH   8  15
ENDBRANCH   7   9
ENDBRANCH   1   7
BRANCH   4  23
ATOM     23  C   UNL     1      -1.618  13.952  21.844  0.00  0.00    +0.000 C 
BRANCH  23  24
ATOM     24  C   UNL     1      -3.122  14.112  22.088  0.00  0.00    +0.000 C 
ATOM     25  O   UNL     1      -3.646  15.225  22.111  0.00  0.00    +0.000 OA
ATOM     26  N   UNL     1      -3.787  12.913  22.279  0.00  0.00    +0.000 N 
ATOM     27  H   UNL     1      -3.209  12.194  22.708  0.00  0.00    +0.000 HD
BRANCH  26  28
ATOM     28  C   UNL     1      -5.175  12.861  22.532  0.00  0.00    +0.000 A 
ATOM     29  C   UNL     1      -6.112  12.832  21.494  0.00  0.00    +0.000 A 
ATOM     30  C   UNL     1      -7.478  12.758  21.784  0.00  0.00    +0.000 A 
ATOM     31  C   UNL     1      -7.915  12.748  23.110  0.00  0.00    +0.000 A 
ATOM     32  C   UNL     1      -6.985  12.788  24.149  0.00  0.00    +0.000 A 
ATOM     33  C   UNL     1      -5.624  12.818  23.854  0.00  0.00    +0.000 A 
ATOM     34  F   UNL     1      -4.739  12.874  24.860  0.00  0.00    +0.000 F 
ENDBRANCH  26  28
ENDBRANCH  23  24
ENDBRANCH   4  23
TORSDOF 9
ENDMDL
MODEL 7
REMARK VINA RESULT:      -6.5      7.926     12.313
REMARK  Name = 
REMARK  11 active torsions:
REMARK  status: ('A' for Active; 'I' for Inactive)
REMARK    1  A    between atoms: C_1  and  C_2
REMARK    2  A    between atoms: C_2  and  N_3
REMARK    3  A    between atoms: N_3  and  C_4
REMARK    4  A    between atoms: N_3  and  C_6
REMARK    5  A    between atoms: C_4  and  C_5
REMARK    6  A    between atoms: C_9  and  N_10
REMARK    7  A    between atoms: C_11  and  C_13
REMARK    8  A    between atoms: C_13  and  N_14
REMARK    9  A    between atoms: N_17  and  C_18
REMARK   10  A    between atoms: C_18  and  C_19
REMARK   11  A    between atoms: N_21  and  C_22
REMARK                            x       y       z     vdW  Elec       q    Type
REMARK                         _______ _______ _______ _____ _____    ______ ____
ROOT
ATOM      1  N   UNL     1       6.891   7.070  17.457  0.00  0.00    +0.000 NA
ATOM      2  C   UNL     1       7.167   6.439  16.148  0.00  0.00    +0.000 C 
ATOM      3  C   UNL     1       7.184   4.887  16.035  0.00  0.00    +0.000 C 
ATOM      4  N   UNL     1       6.200   4.159  16.869  0.00  0.00    +0.000 NA
ATOM      5  C   UNL     1       6.344   4.684  18.241  0.00  0.00    +0.000 C 
ATOM      6  C   UNL     1       6.118   6.204  18.371  0.00  0.00    +0.000 C 
ENDROOT
BRANCH   1   7
ATOM      7  C   UNL     1       8.099   7.593  18.128  0.00  0.00    +0.000 C 
BRANCH   7   9
ATOM      8  N   UNL     1       9.329   9.653  18.672  0.00  0.00    +0.000 N 
ATOM      9  C   UNL     1       8.206   9.120  18.055  0.00  0.00    +0.000 C 
ATOM     10  O   UNL     1       7.354   9.745  17.420  0.00  0.00    +0.000 OA
ATOM     11  H   UNL     1       9.938   8.979  19.125  0.00  0.00    +0.000 HD
BRANCH   8  15
ATOM     12  C   UNL     1      10.434  13.765  18.990  0.00  0.00    +0.000 A 
ATOM     13  C   UNL     1      10.806  12.994  17.891  0.00  0.00    +0.000 A 
ATOM     14  C   UNL     1      10.461  11.644  17.778  0.00  0.00    +0.000 A 
ATOM     15  C   UNL     1       9.683  11.019  18.746  0.00  0.00    +0.000 A 
ATOM     16  C   UNL     1       9.251  11.777  19.829  0.00  0.00    +0.000 A 
ATOM     17  C   UNL     1       9.626  13.131  19.952  0.00  0.00    +0.000 A 
BRANCH  12  18
ATOM     18  N   UNL     1      10.848  15.083  19.121  0.00  0.00    +0.000 N 
BRANCH  18  20
ATOM     19  C   UNL     1       8.972  16.271  17.956  0.00  0.00    +0.000 C 
ATOM     20  C   UNL     1      10.476  16.078  18.105  0.00  0.00    +0.000 C 
ENDBRANCH  18  20
BRANCH  18  21
ATOM     21  C   UNL     1      11.763  15.468  20.196  0.00  0.00    +0.000 C 
ATOM     22  C   UNL     1      11.021  16.087  21.378  0.00  0.00    +0.000 C 
ENDBRANCH  18  21
ENDBRANCH  12  18
ENDBRANCH   8  15
ENDBRANCH   7   9
ENDBRANCH   1   7
BRANCH   4  23
ATOM     23  C   UNL     1       4.833   4.351  16.317  0.00  0.00    +0.000 C 
BRANCH  23  24
ATOM     24  C   UNL     1       3.736   3.800  17.234  0.00  0.00    +0.000 C 
ATOM     25  O   UNL     1       2.786   3.166  16.777  0.00  0.00    +0.000 OA
ATOM     26  N   UNL     1       3.928   4.096  18.573  0.00  0.00    +0.000 N 
ATOM     27  H   UNL     1       4.418   4.974  18.727  0.00  0.00    +0.000 HD
BRANCH  26  28
ATOM     28  C   UNL     1       3.013   3.685  19.567  0.00  0.00    +0.000 A 
ATOM     29  C   UNL     1       1.735   4.245  19.667  0.00  0.00    +0.000 A 
ATOM     30  C   UNL     1       0.848   3.796  20.651  0.00  0.00    +0.000 A 
ATOM     31  C   UNL     1       1.245   2.812  21.559  0.00  0.00    +0.000 A 
ATOM     32  C   UNL     1       2.522   2.259  21.470  0.00  0.00    +0.000 A 
ATOM     33  C   UNL     1       3.387   2.680  20.461  0.00  0.00    +0.000 A 
ATOM     34  F   UNL     1       4.619   2.154  20.396  0.00  0.00    +0.000 F 
ENDBRANCH  26  28
ENDBRANCH  23  24
ENDBRANCH   4  23
TORSDOF 9
ENDMDL
MODEL 8
REMARK VINA RESULT:      -6.5      3.491      5.471
REMARK  Name = 
REMARK  11 active torsions:
REMARK  status: ('A' for Active; 'I' for Inactive)
REMARK    1  A    between atoms: C_1  and  C_2
REMARK    2  A    between atoms: C_2  and  N_3
REMARK    3  A    between atoms: N_3  and  C_4
REMARK    4  A    between atoms: N_3  and  C_6
REMARK    5  A    between atoms: C_4  and  C_5
REMARK    6  A    between atoms: C_9  and  N_10
REMARK    7  A    between atoms: C_11  and  C_13
REMARK    8  A    between atoms: C_13  and  N_14
REMARK    9  A    between atoms: N_17  and  C_18
REMARK   10  A    between atoms: C_18  and  C_19
REMARK   11  A    between atoms: N_21  and  C_22
REMARK                            x       y       z     vdW  Elec       q    Type
REMARK                         _______ _______ _______ _____ _____    ______ ____
ROOT
ATOM      1  N   UNL     1      -0.266  11.591  19.967  0.00  0.00    +0.000 NA
ATOM      2  C   UNL     1       0.714  12.007  20.994  0.00  0.00    +0.000 C 
ATOM      3  C   UNL     1       0.683  13.467  21.532  0.00  0.00    +0.000 C 
ATOM      4  N   UNL     1      -0.656  14.083  21.680  0.00  0.00    +0.000 NA
ATOM      5  C   UNL     1      -1.354  13.879  20.394  0.00  0.00    +0.000 C 
ATOM      6  C   UNL     1      -1.500  12.403  19.973  0.00  0.00    +0.000 C 
ENDROOT
BRANCH   1   7
ATOM      7  C   UNL     1       0.302  11.510  18.606  0.00  0.00    +0.000 C 
BRANCH   7   9
ATOM      8  N   UNL     1       1.042   9.191  18.963  0.00  0.00    +0.000 N 
ATOM      9  C   UNL     1       1.395  10.443  18.480  0.00  0.00    +0.000 C 
ATOM     10  O   UNL     1       2.451  10.739  17.918  0.00  0.00    +0.000 OA
ATOM     11  H   UNL     1       0.114   9.127  19.370  0.00  0.00    +0.000 HD
BRANCH   8  15
ATOM     12  C   UNL     1       3.391   5.626  18.997  0.00  0.00    +0.000 A 
ATOM     13  C   UNL     1       3.291   6.421  17.857  0.00  0.00    +0.000 A 
ATOM     14  C   UNL     1       2.517   7.585  17.828  0.00  0.00    +0.000 A 
ATOM     15  C   UNL     1       1.845   8.029  18.961  0.00  0.00    +0.000 A 
ATOM     16  C   UNL     1       1.970   7.284  20.130  0.00  0.00    +0.000 A 
ATOM     17  C   UNL     1       2.729   6.096  20.146  0.00  0.00    +0.000 A 
BRANCH  12  18
ATOM     18  N   UNL     1       4.104   4.435  18.986  0.00  0.00    +0.000 N 
BRANCH  18  20
ATOM     19  C   UNL     1       4.602   2.201  20.010  0.00  0.00    +0.000 C 
ATOM     20  C   UNL     1       3.550   3.237  19.635  0.00  0.00    +0.000 C 
ENDBRANCH  18  20
BRANCH  18  21
ATOM     21  C   UNL     1       5.463   4.391  18.447  0.00  0.00    +0.000 C 
ATOM     22  C   UNL     1       6.380   5.397  19.138  0.00  0.00    +0.000 C 
ENDBRANCH  18  21
ENDBRANCH  12  18
ENDBRANCH   8  15
ENDBRANCH   7   9
ENDBRANCH   1   7
BRANCH   4  23
ATOM     23  C   UNL     1      -1.370  13.467  22.828  0.00  0.00    +0.000 C 
BRANCH  23  24
ATOM     24  C   UNL     1      -2.824  13.934  22.947  0.00  0.00    +0.000 C 
ATOM     25  O   UNL     1      -3.096  15.105  23.209  0.00  0.00    +0.000 OA
ATOM     26  N   UNL     1      -3.751  12.926  22.744  0.00  0.00    +0.000 N 
ATOM     27  H   UNL     1      -3.418  12.007  23.026  0.00  0.00    +0.000 HD
BRANCH  26  28
ATOM     28  C   UNL     1      -5.141  13.162  22.829  0.00  0.00    +0.000 A 
ATOM     29  C   UNL     1      -5.849  13.769  21.786  0.00  0.00    +0.000 A 
ATOM     30  C   UNL     1      -7.229  13.965  21.898  0.00  0.00    +0.000 A 
ATOM     31  C   UNL     1      -7.901  13.590  23.063  0.00  0.00    +0.000 A 
ATOM     32  C   UNL     1      -7.197  12.996  24.110  0.00  0.00    +0.000 A 
ATOM     33  C   UNL     1      -5.830  12.763  23.976  0.00  0.00    +0.000 A 
ATOM     34  F   UNL     1      -5.159  12.207  24.997  0.00  0.00    +0.000 F 
ENDBRANCH  26  28
ENDBRANCH  23  24
ENDBRANCH   4  23
TORSDOF 9
ENDMDL
MODEL 9
REMARK VINA RESULT:      -6.5      3.740      4.702
REMARK  Name = 
REMARK  11 active torsions:
REMARK  status: ('A' for Active; 'I' for Inactive)
REMARK    1  A    between atoms: C_1  and  C_2
REMARK    2  A    between atoms: C_2  and  N_3
REMARK    3  A    between atoms: N_3  and  C_4
REMARK    4  A    between atoms: N_3  and  C_6
REMARK    5  A    between atoms: C_4  and  C_5
REMARK    6  A    between atoms: C_9  and  N_10
REMARK    7  A    between atoms: C_11  and  C_13
REMARK    8  A    between atoms: C_13  and  N_14
REMARK    9  A    between atoms: N_17  and  C_18
REMARK   10  A    between atoms: C_18  and  C_19
REMARK   11  A    between atoms: N_21  and  C_22
REMARK                            x       y       z     vdW  Elec       q    Type
REMARK                         _______ _______ _______ _____ _____    ______ ____
ROOT
ATOM      1  N   UNL     1       0.684  13.205  19.742  0.00  0.00    +0.000 NA
ATOM      2  C   UNL     1       1.697  13.783  18.832  0.00  0.00    +0.000 C 
ATOM      3  C   UNL     1       1.700  15.317  18.568  0.00  0.00    +0.000 C 
ATOM      4  N   UNL     1       1.349  16.181  19.718  0.00  0.00    +0.000 NA
ATOM      5  C   UNL     1       0.087  15.648  20.271  0.00  0.00    +0.000 C 
ATOM      6  C   UNL     1       0.159  14.176  20.724  0.00  0.00    +0.000 C 
ENDROOT
BRANCH   1   7
ATOM      7  C   UNL     1      -0.420  12.521  19.039  0.00  0.00    +0.000 C 
BRANCH   7   9
ATOM      8  N   UNL     1       1.022  10.542  19.279  0.00  0.00    +0.000 N 
ATOM      9  C   UNL     1      -0.266  10.996  19.029  0.00  0.00    +0.000 C 
ATOM     10  O   UNL     1      -1.270  10.300  18.872  0.00  0.00    +0.000 OA
ATOM     11  H   UNL     1       1.720  11.266  19.411  0.00  0.00    +0.000 HD
BRANCH   8  15
ATOM     12  C   UNL     1       2.388   6.499  19.426  0.00  0.00    +0.000 A 
ATOM     13  C   UNL     1       1.799   7.110  20.532  0.00  0.00    +0.000 A 
ATOM     14  C   UNL     1       1.357   8.436  20.501  0.00  0.00    +0.000 A 
ATOM     15  C   UNL     1       1.443   9.195  19.340  0.00  0.00    +0.000 A 
ATOM     16  C   UNL     1       1.978   8.595  18.204  0.00  0.00    +0.000 A 
ATOM     17  C   UNL     1       2.448   7.267  18.249  0.00  0.00    +0.000 A 
BRANCH  12  18
ATOM     18  N   UNL     1       2.888   5.207  19.496  0.00  0.00    +0.000 N 
BRANCH  18  20
ATOM     19  C   UNL     1       2.116   3.565  21.228  0.00  0.00    +0.000 C 
ATOM     20  C   UNL     1       1.990   4.083  19.801  0.00  0.00    +0.000 C 
ENDBRANCH  18  20
BRANCH  18  21
ATOM     21  C   UNL     1       4.328   4.964  19.398  0.00  0.00    +0.000 C 
ATOM     22  C   UNL     1       4.697   4.267  18.092  0.00  0.00    +0.000 C 
ENDBRANCH  18  21
ENDBRANCH  12  18
ENDBRANCH   8  15
ENDBRANCH   7   9
ENDBRANCH   1   7
BRANCH   4  23
ATOM     23  C   UNL     1       2.459  16.179  20.706  0.00  0.00    +0.000 C 
BRANCH  23  24
ATOM     24  C   UNL     1       3.826  16.446  20.069  0.00  0.00    +0.000 C 
ATOM     25  O   UNL     1       4.075  17.523  19.528  0.00  0.00    +0.000 OA
ATOM     26  N   UNL     1       4.703  15.379  20.163  0.00  0.00    +0.000 N 
ATOM     27  H   UNL     1       4.239  14.474  20.169  0.00  0.00    +0.000 HD
BRANCH  26  28
ATOM     28  C   UNL     1       6.006  15.434  19.620  0.00  0.00    +0.000 A 
ATOM     29  C   UNL     1       7.102  15.855  20.380  0.00  0.00    +0.000 A 
ATOM     30  C   UNL     1       8.381  15.874  19.814  0.00  0.00    +0.000 A 
ATOM     31  C   UNL     1       8.564  15.506  18.479  0.00  0.00    +0.000 A 
ATOM     32  C   UNL     1       7.472  15.097  17.715  0.00  0.00    +0.000 A 
ATOM     33  C   UNL     1       6.207  15.038  18.296  0.00  0.00    +0.000 A 
ATOM     34  F   UNL     1       5.161  14.660  17.547  0.00  0.00    +0.000 F 
ENDBRANCH  26  28
ENDBRANCH  23  24
ENDBRANCH   4  23
TORSDOF 9
ENDMDL
