MODEL 1
REMARK VINA RESULT:      -8.7      0.000      0.000
REMARK  Name = 
REMARK  3 active torsions:
REMARK  status: ('A' for Active; 'I' for Inactive)
REMARK    1  A    between atoms: C_1  and  O_2
REMARK    2  A    between atoms: O_2  and  C_3
REMARK    3  A    between atoms: N_15  and  C_16
REMARK                            x       y       z     vdW  Elec       q    Type
REMARK                         _______ _______ _______ _____ _____    ______ ____
ROOT
ATOM      1  C   UNL     1      -0.351  10.389  22.474  0.00  0.00    +0.000 A 
ATOM      2  C   UNL     1       0.432   9.314  22.866  0.00  0.00    +0.000 A 
ATOM      3  C   UNL     1       1.166   8.597  21.919  0.00  0.00    +0.000 A 
ATOM      4  C   UNL     1       1.130   8.917  20.556  0.00  0.00    +0.000 A 
ATOM      5  C   UNL     1       0.370  10.037  20.162  0.00  0.00    +0.000 A 
ATOM      6  C   UNL     1      -0.366  10.757  21.128  0.00  0.00    +0.000 A 
ATOM      7  C   UNL     1       0.313  10.511  18.731  0.00  0.00    +0.000 C 
ATOM      8  C   UNL     1       0.887   9.502  17.745  0.00  0.00    +0.000 C 
ATOM      9  C   UNL     1       2.139   8.873  18.327  0.00  0.00    +0.000 C 
ATOM     10  N   UNL     1       1.828   8.137  19.562  0.00  0.00    +0.000 N 
ATOM     11  C   UNL     1       2.166   6.804  19.796  0.00  0.00    +0.000 C 
ATOM     12  O   UNL     1       2.051   6.218  20.873  0.00  0.00    +0.000 OA
ATOM     13  N   UNL     1       2.627   6.087  18.721  0.00  0.00    +0.000 N 
ATOM     14  H   UNL     1       2.411   6.379  17.781  0.00  0.00    +0.000 HD
ENDROOT
BRANCH  13  15
ATOM     15  C   UNL     1       2.949   4.667  18.879  0.00  0.00    +0.000 C 
ATOM     16  C   UNL     1       2.452   3.840  17.679  0.00  0.00    +0.000 C 
ATOM     17  C   UNL     1       2.192   2.377  18.037  0.00  0.00    +0.000 C 
ATOM     18  C   UNL     1       3.458   1.577  18.329  0.00  0.00    +0.000 C 
ATOM     19  C   UNL     1       4.227   2.076  19.546  0.00  0.00    +0.000 C 
ATOM     20  N   UNL     1       4.978   3.285  19.282  0.00  0.00    +0.000 N 
ATOM     21  C   UNL     1       4.469   4.528  19.030  0.00  0.00    +0.000 C 
ATOM     22  O   UNL     1       5.241   5.481  18.910  0.00  0.00    +0.000 OA
ATOM     23  H   UNL     1       5.986   3.270  19.394  0.00  0.00    +0.000 HD
ENDBRANCH  13  15
BRANCH   1  25
ATOM     24  C   UNL     1      -1.390  12.481  22.878  0.00  0.00    +0.000 C 
ATOM     25  O   UNL     1      -1.131  11.146  23.304  0.00  0.00    +0.000 OA
ENDBRANCH   1  25
TORSDOF 2
ENDMDL
MODEL 2
REMARK VINA RESULT:      -7.8      2.449      8.010
REMARK  Name = 
REMARK  3 active torsions:
REMARK  status: ('A' for Active; 'I' for Inactive)
REMARK    1  A    between atoms: C_1  and  O_2
REMARK    2  A    between atoms: O_2  and  C_3
REMARK    3  A    between atoms: N_15  and  C_16
REMARK                            x       y       z     vdW  Elec       q    Type
REMARK                         _______ _______ _______ _____ _____    ______ ____
ROOT
ATOM      1  C   UNL     1       4.870   4.656  16.433  0.00  0.00    +0.000 A 
ATOM      2  C   UNL     1       4.932   6.040  16.449  0.00  0.00    +0.000 A 
ATOM      3  C   UNL     1       4.180   6.767  17.374  0.00  0.00    +0.000 A 
ATOM      4  C   UNL     1       3.334   6.140  18.298  0.00  0.00    +0.000 A 
ATOM      5  C   UNL     1       3.304   4.731  18.312  0.00  0.00    +0.000 A 
ATOM      6  C   UNL     1       4.071   4.006  17.375  0.00  0.00    +0.000 A 
ATOM      7  C   UNL     1       2.480   3.952  19.308  0.00  0.00    +0.000 C 
ATOM      8  C   UNL     1       1.478   4.817  20.059  0.00  0.00    +0.000 C 
ATOM      9  C   UNL     1       2.116   6.145  20.420  0.00  0.00    +0.000 C 
ATOM     10  N   UNL     1       2.500   6.886  19.209  0.00  0.00    +0.000 N 
ATOM     11  C   UNL     1       2.117   8.199  18.930  0.00  0.00    +0.000 C 
ATOM     12  O   UNL     1       2.548   8.884  18.002  0.00  0.00    +0.000 OA
ATOM     13  N   UNL     1       1.154   8.745  19.738  0.00  0.00    +0.000 N 
ATOM     14  H   UNL     1       0.524   8.153  20.257  0.00  0.00    +0.000 HD
ENDROOT
BRANCH  13  15
ATOM     15  C   UNL     1       0.663  10.099  19.470  0.00  0.00    +0.000 C 
ATOM     16  C   UNL     1      -0.812  10.087  19.031  0.00  0.00    +0.000 C 
ATOM     17  C   UNL     1      -1.185  11.298  18.176  0.00  0.00    +0.000 C 
ATOM     18  C   UNL     1      -1.209  12.616  18.945  0.00  0.00    +0.000 C 
ATOM     19  C   UNL     1       0.150  13.019  19.505  0.00  0.00    +0.000 C 
ATOM     20  N   UNL     1       0.521  12.267  20.684  0.00  0.00    +0.000 N 
ATOM     21  C   UNL     1       0.835  10.938  20.744  0.00  0.00    +0.000 C 
ATOM     22  O   UNL     1       1.217  10.457  21.812  0.00  0.00    +0.000 OA
ATOM     23  H   UNL     1       0.680  12.764  21.553  0.00  0.00    +0.000 HD
ENDBRANCH  13  15
BRANCH   1  25
ATOM     24  C   UNL     1       6.632   4.431  14.863  0.00  0.00    +0.000 C 
ATOM     25  O   UNL     1       5.538   3.842  15.560  0.00  0.00    +0.000 OA
ENDBRANCH   1  25
TORSDOF 2
ENDMDL
MODEL 3
REMARK VINA RESULT:      -7.2      1.214      1.311
REMARK  Name = 
REMARK  3 active torsions:
REMARK  status: ('A' for Active; 'I' for Inactive)
REMARK    1  A    between atoms: C_1  and  O_2
REMARK    2  A    between atoms: O_2  and  C_3
REMARK    3  A    between atoms: N_15  and  C_16
REMARK                            x       y       z     vdW  Elec       q    Type
REMARK                         _______ _______ _______ _____ _____    ______ ____
ROOT
ATOM      1  C   UNL     1      -1.201  11.089  22.635  0.00  0.00    +0.000 A 
ATOM      2  C   UNL     1      -0.283  10.153  23.083  0.00  0.00    +0.000 A 
ATOM      3  C   UNL     1       0.524   9.467  22.172  0.00  0.00    +0.000 A 
ATOM      4  C   UNL     1       0.431   9.682  20.791  0.00  0.00    +0.000 A 
ATOM      5  C   UNL     1      -0.471  10.667  20.337  0.00  0.00    +0.000 A 
ATOM      6  C   UNL     1      -1.279  11.356  21.267  0.00  0.00    +0.000 A 
ATOM      7  C   UNL     1      -0.605  11.026  18.878  0.00  0.00    +0.000 C 
ATOM      8  C   UNL     1       0.080  10.030  17.953  0.00  0.00    +0.000 C 
ATOM      9  C   UNL     1       1.409   9.606  18.549  0.00  0.00    +0.000 C 
ATOM     10  N   UNL     1       1.210   8.927  19.839  0.00  0.00    +0.000 N 
ATOM     11  C   UNL     1       1.717   7.667  20.156  0.00  0.00    +0.000 C 
ATOM     12  O   UNL     1       1.691   7.150  21.274  0.00  0.00    +0.000 OA
ATOM     13  N   UNL     1       2.252   6.940  19.125  0.00  0.00    +0.000 N 
ATOM     14  H   UNL     1       1.989   7.134  18.171  0.00  0.00    +0.000 HD
ENDROOT
BRANCH  13  15
ATOM     15  C   UNL     1       2.753   5.585  19.373  0.00  0.00    +0.000 C 
ATOM     16  C   UNL     1       1.610   4.555  19.386  0.00  0.00    +0.000 C 
ATOM     17  C   UNL     1       1.942   3.315  20.216  0.00  0.00    +0.000 C 
ATOM     18  C   UNL     1       3.016   2.425  19.597  0.00  0.00    +0.000 C 
ATOM     19  C   UNL     1       4.374   3.105  19.473  0.00  0.00    +0.000 C 
ATOM     20  N   UNL     1       4.435   4.047  18.376  0.00  0.00    +0.000 N 
ATOM     21  C   UNL     1       3.773   5.239  18.280  0.00  0.00    +0.000 C 
ATOM     22  O   UNL     1       3.996   5.975  17.318  0.00  0.00    +0.000 OA
ATOM     23  H   UNL     1       5.110   3.893  17.635  0.00  0.00    +0.000 HD
ENDBRANCH  13  15
BRANCH   1  25
ATOM     24  C   UNL     1      -2.310  13.146  23.032  0.00  0.00    +0.000 C 
ATOM     25  O   UNL     1      -2.060  11.800  23.427  0.00  0.00    +0.000 OA
ENDBRANCH   1  25
TORSDOF 2
ENDMDL
MODEL 4
REMARK VINA RESULT:      -6.8      2.590      8.117
REMARK  Name = 
REMARK  3 active torsions:
REMARK  status: ('A' for Active; 'I' for Inactive)
REMARK    1  A    between atoms: C_1  and  O_2
REMARK    2  A    between atoms: O_2  and  C_3
REMARK    3  A    between atoms: N_15  and  C_16
REMARK                            x       y       z     vdW  Elec       q    Type
REMARK                         _______ _______ _______ _____ _____    ______ ____
ROOT
ATOM      1  C   UNL     1       5.628   4.488  15.443  0.00  0.00    +0.000 A 
ATOM      2  C   UNL     1       5.792   5.782  15.911  0.00  0.00    +0.000 A 
ATOM      3  C   UNL     1       4.948   6.282  16.906  0.00  0.00    +0.000 A 
ATOM      4  C   UNL     1       3.909   5.516  17.450  0.00  0.00    +0.000 A 
ATOM      5  C   UNL     1       3.770   4.186  17.007  0.00  0.00    +0.000 A 
ATOM      6  C   UNL     1       4.630   3.689  16.004  0.00  0.00    +0.000 A 
ATOM      7  C   UNL     1       2.728   3.252  17.573  0.00  0.00    +0.000 C 
ATOM      8  C   UNL     1       1.680   3.967  18.414  0.00  0.00    +0.000 C 
ATOM      9  C   UNL     1       2.345   5.029  19.268  0.00  0.00    +0.000 C 
ATOM     10  N   UNL     1       2.989   6.049  18.426  0.00  0.00    +0.000 N 
ATOM     11  C   UNL     1       2.762   7.422  18.533  0.00  0.00    +0.000 C 
ATOM     12  O   UNL     1       3.399   8.297  17.945  0.00  0.00    +0.000 OA
ATOM     13  N   UNL     1       1.718   7.814  19.330  0.00  0.00    +0.000 N 
ATOM     14  H   UNL     1       0.964   7.177  19.537  0.00  0.00    +0.000 HD
ENDROOT
BRANCH  13  15
ATOM     15  C   UNL     1       1.385   9.237  19.445  0.00  0.00    +0.000 C 
ATOM     16  C   UNL     1       0.338   9.657  18.399  0.00  0.00    +0.000 C 
ATOM     17  C   UNL     1       0.411  11.145  18.054  0.00  0.00    +0.000 C 
ATOM     18  C   UNL     1      -0.044  12.065  19.184  0.00  0.00    +0.000 C 
ATOM     19  C   UNL     1       0.829  11.977  20.429  0.00  0.00    +0.000 C 
ATOM     20  N   UNL     1       0.576  10.788  21.214  0.00  0.00    +0.000 N 
ATOM     21  C   UNL     1       0.860   9.498  20.863  0.00  0.00    +0.000 C 
ATOM     22  O   UNL     1       0.663   8.595  21.678  0.00  0.00    +0.000 OA
ATOM     23  H   UNL     1       0.256  10.890  22.170  0.00  0.00    +0.000 HD
ENDBRANCH  13  15
BRANCH   1  25
ATOM     24  C   UNL     1       7.285   4.751  13.768  0.00  0.00    +0.000 C 
ATOM     25  O   UNL     1       6.373   3.901  14.458  0.00  0.00    +0.000 OA
ENDBRANCH   1  25
TORSDOF 2
ENDMDL
MODEL 5
REMARK VINA RESULT:      -6.7      1.215      1.658
REMARK  Name = 
REMARK  3 active torsions:
REMARK  status: ('A' for Active; 'I' for Inactive)
REMARK    1  A    between atoms: C_1  and  O_2
REMARK    2  A    between atoms: O_2  and  C_3
REMARK    3  A    between atoms: N_15  and  C_16
REMARK                            x       y       z     vdW  Elec       q    Type
REMARK                         _______ _______ _______ _____ _____    ______ ____
ROOT
ATOM      1  C   UNL     1      -0.204  10.187  22.459  0.00  0.00    +0.000 A 
ATOM      2  C   UNL     1       0.702   9.169  22.714  0.00  0.00    +0.000 A 
ATOM      3  C   UNL     1       1.382   8.553  21.660  0.00  0.00    +0.000 A 
ATOM      4  C   UNL     1       1.169   8.921  20.325  0.00  0.00    +0.000 A 
ATOM      5  C   UNL     1       0.282   9.986  20.069  0.00  0.00    +0.000 A 
ATOM      6  C   UNL     1      -0.397  10.603  21.141  0.00  0.00    +0.000 A 
ATOM      7  C   UNL     1       0.029  10.507  18.676  0.00  0.00    +0.000 C 
ATOM      8  C   UNL     1       0.569   9.589  17.588  0.00  0.00    +0.000 C 
ATOM      9  C   UNL     1       1.924   9.047  18.002  0.00  0.00    +0.000 C 
ATOM     10  N   UNL     1       1.813   8.241  19.227  0.00  0.00    +0.000 N 
ATOM     11  C   UNL     1       2.281   6.934  19.360  0.00  0.00    +0.000 C 
ATOM     12  O   UNL     1       2.334   6.300  20.414  0.00  0.00    +0.000 OA
ATOM     13  N   UNL     1       2.677   6.300  18.210  0.00  0.00    +0.000 N 
ATOM     14  H   UNL     1       2.334   6.607  17.313  0.00  0.00    +0.000 HD
ENDROOT
BRANCH  13  15
ATOM     15  C   UNL     1       3.127   4.907  18.265  0.00  0.00    +0.000 C 
ATOM     16  C   UNL     1       3.451   4.476  19.706  0.00  0.00    +0.000 C 
ATOM     17  C   UNL     1       4.465   3.333  19.768  0.00  0.00    +0.000 C 
ATOM     18  C   UNL     1       3.922   1.997  19.269  0.00  0.00    +0.000 C 
ATOM     19  C   UNL     1       3.534   2.008  17.796  0.00  0.00    +0.000 C 
ATOM     20  N   UNL     1       2.278   2.681  17.547  0.00  0.00    +0.000 N 
ATOM     21  C   UNL     1       2.024   4.018  17.676  0.00  0.00    +0.000 C 
ATOM     22  O   UNL     1       0.921   4.456  17.343  0.00  0.00    +0.000 OA
ATOM     23  H   UNL     1       1.516   2.158  17.130  0.00  0.00    +0.000 HD
ENDBRANCH  13  15
BRANCH   1  25
ATOM     24  C   UNL     1      -1.812  11.867  22.921  0.00  0.00    +0.000 C 
ATOM     25  O   UNL     1      -0.945  10.843  23.403  0.00  0.00    +0.000 OA
ENDBRANCH   1  25
TORSDOF 2
ENDMDL
MODEL 6
REMARK VINA RESULT:      -6.6      7.743     10.957
REMARK  Name = 
REMARK  3 active torsions:
REMARK  status: ('A' for Active; 'I' for Inactive)
REMARK    1  A    between atoms: C_1  and  O_2
REMARK    2  A    between atoms: O_2  and  C_3
REMARK    3  A    between atoms: N_15  and  C_16
REMARK                            x       y       z     vdW  Elec       q    Type
REMARK                         _______ _______ _______ _____ _____    ______ ____
ROOT
ATOM      1  C   UNL     1      -3.079  11.020  16.288  0.00  0.00    +0.000 A 
ATOM      2  C   UNL     1      -2.313  11.215  17.427  0.00  0.00    +0.000 A 
ATOM      3  C   UNL     1      -2.924  11.568  18.633  0.00  0.00    +0.000 A 
ATOM      4  C   UNL     1      -4.309  11.752  18.736  0.00  0.00    +0.000 A 
ATOM      5  C   UNL     1      -5.092  11.511  17.590  0.00  0.00    +0.000 A 
ATOM      6  C   UNL     1      -4.465  11.151  16.377  0.00  0.00    +0.000 A 
ATOM      7  C   UNL     1      -6.597  11.615  17.605  0.00  0.00    +0.000 C 
ATOM      8  C   UNL     1      -7.136  12.291  18.858  0.00  0.00    +0.000 C 
ATOM      9  C   UNL     1      -6.358  11.817  20.071  0.00  0.00    +0.000 C 
ATOM     10  N   UNL     1      -4.939  12.187  19.959  0.00  0.00    +0.000 N 
ATOM     11  C   UNL     1      -4.226  12.891  20.930  0.00  0.00    +0.000 C 
ATOM     12  O   UNL     1      -3.008  13.078  20.925  0.00  0.00    +0.000 OA
ATOM     13  N   UNL     1      -4.955  13.448  21.949  0.00  0.00    +0.000 N 
ATOM     14  H   UNL     1      -5.938  13.641  21.829  0.00  0.00    +0.000 HD
ENDROOT
BRANCH  13  15
ATOM     15  C   UNL     1      -4.280  14.248  22.974  0.00  0.00    +0.000 C 
ATOM     16  C   UNL     1      -4.994  15.593  23.199  0.00  0.00    +0.000 C 
ATOM     17  C   UNL     1      -4.059  16.675  23.741  0.00  0.00    +0.000 C 
ATOM     18  C   UNL     1      -3.606  16.438  25.179  0.00  0.00    +0.000 C 
ATOM     19  C   UNL     1      -2.774  15.173  25.355  0.00  0.00    +0.000 C 
ATOM     20  N   UNL     1      -3.573  13.966  25.342  0.00  0.00    +0.000 N 
ATOM     21  C   UNL     1      -4.244  13.437  24.276  0.00  0.00    +0.000 C 
ATOM     22  O   UNL     1      -4.813  12.351  24.400  0.00  0.00    +0.000 OA
ATOM     23  H   UNL     1      -3.569  13.368  26.161  0.00  0.00    +0.000 HD
ENDBRANCH  13  15
BRANCH   1  25
ATOM     24  C   UNL     1      -3.521  10.114  14.143  0.00  0.00    +0.000 C 
ATOM     25  O   UNL     1      -2.592  10.699  15.051  0.00  0.00    +0.000 OA
ENDBRANCH   1  25
TORSDOF 2
ENDMDL
MODEL 7
REMARK VINA RESULT:      -6.5      6.613     10.884
REMARK  Name = 
REMARK  3 active torsions:
REMARK  status: ('A' for Active; 'I' for Inactive)
REMARK    1  A    between atoms: C_1  and  O_2
REMARK    2  A    between atoms: O_2  and  C_3
REMARK    3  A    between atoms: N_15  and  C_16
REMARK                            x       y       z     vdW  Elec       q    Type
REMARK                         _______ _______ _______ _____ _____    ______ ____
ROOT
ATOM      1  C   UNL     1      -3.004  10.227  15.976  0.00  0.00    +0.000 A 
ATOM      2  C   UNL     1      -4.055  11.080  16.273  0.00  0.00    +0.000 A 
ATOM      3  C   UNL     1      -4.075  11.775  17.484  0.00  0.00    +0.000 A 
ATOM      4  C   UNL     1      -3.061  11.629  18.439  0.00  0.00    +0.000 A 
ATOM      5  C   UNL     1      -1.970  10.796  18.119  0.00  0.00    +0.000 A 
ATOM      6  C   UNL     1      -1.958  10.101  16.890  0.00  0.00    +0.000 A 
ATOM      7  C   UNL     1      -0.792  10.618  19.045  0.00  0.00    +0.000 C 
ATOM      8  C   UNL     1      -1.045  11.163  20.444  0.00  0.00    +0.000 C 
ATOM      9  C   UNL     1      -1.795  12.479  20.353  0.00  0.00    +0.000 C 
ATOM     10  N   UNL     1      -3.110  12.288  19.722  0.00  0.00    +0.000 N 
ATOM     11  C   UNL     1      -4.322  12.698  20.279  0.00  0.00    +0.000 C 
ATOM     12  O   UNL     1      -5.411  12.685  19.704  0.00  0.00    +0.000 OA
ATOM     13  N   UNL     1      -4.292  13.112  21.586  0.00  0.00    +0.000 N 
ATOM     14  H   UNL     1      -3.548  12.817  22.199  0.00  0.00    +0.000 HD
ENDROOT
BRANCH  13  15
ATOM     15  C   UNL     1      -5.536  13.504  22.254  0.00  0.00    +0.000 C 
ATOM     16  C   UNL     1      -5.736  12.731  23.570  0.00  0.00    +0.000 C 
ATOM     17  C   UNL     1      -7.207  12.617  23.969  0.00  0.00    +0.000 C 
ATOM     18  C   UNL     1      -7.835  13.937  24.407  0.00  0.00    +0.000 C 
ATOM     19  C   UNL     1      -7.879  14.986  23.302  0.00  0.00    +0.000 C 
ATOM     20  N   UNL     1      -6.595  15.606  23.060  0.00  0.00    +0.000 N 
ATOM     21  C   UNL     1      -5.486  15.014  22.522  0.00  0.00    +0.000 C 
ATOM     22  O   UNL     1      -4.487  15.698  22.296  0.00  0.00    +0.000 OA
ATOM     23  H   UNL     1      -6.501  16.607  23.188  0.00  0.00    +0.000 HD
ENDBRANCH  13  15
BRANCH   1  25
ATOM     24  C   UNL     1      -3.625   9.934  13.706  0.00  0.00    +0.000 C 
ATOM     25  O   UNL     1      -2.890   9.476  14.838  0.00  0.00    +0.000 OA
ENDBRANCH   1  25
TORSDOF 2
ENDMDL
MODEL 8
REMARK VINA RESULT:      -6.5      2.303      7.668
REMARK  Name = 
REMARK  3 active torsions:
REMARK  status: ('A' for Active; 'I' for Inactive)
REMARK    1  A    between atoms: C_1  and  O_2
REMARK    2  A    between atoms: O_2  and  C_3
REMARK    3  A    between atoms: N_15  and  C_16
REMARK                            x       y       z     vdW  Elec       q    Type
REMARK                         _______ _______ _______ _____ _____    ______ ____
ROOT
ATOM      1  C   UNL     1       2.999   3.783  20.471  0.00  0.00    +0.000 A 
ATOM      2  C   UNL     1       1.983   4.505  21.077  0.00  0.00    +0.000 A 
ATOM      3  C   UNL     1       1.638   5.772  20.599  0.00  0.00    +0.000 A 
ATOM      4  C   UNL     1       2.304   6.361  19.517  0.00  0.00    +0.000 A 
ATOM      5  C   UNL     1       3.307   5.610  18.872  0.00  0.00    +0.000 A 
ATOM      6  C   UNL     1       3.644   4.329  19.361  0.00  0.00    +0.000 A 
ATOM      7  C   UNL     1       4.041   6.120  17.657  0.00  0.00    +0.000 C 
ATOM      8  C   UNL     1       3.816   7.604  17.403  0.00  0.00    +0.000 C 
ATOM      9  C   UNL     1       2.362   7.953  17.660  0.00  0.00    +0.000 C 
ATOM     10  N   UNL     1       2.003   7.698  19.063  0.00  0.00    +0.000 N 
ATOM     11  C   UNL     1       1.416   8.636  19.913  0.00  0.00    +0.000 C 
ATOM     12  O   UNL     1       0.972   8.399  21.037  0.00  0.00    +0.000 OA
ATOM     13  N   UNL     1       1.370   9.931  19.464  0.00  0.00    +0.000 N 
ATOM     14  H   UNL     1       2.009  10.249  18.753  0.00  0.00    +0.000 HD
ENDROOT
BRANCH  13  15
ATOM     15  C   UNL     1       0.818  10.980  20.326  0.00  0.00    +0.000 C 
ATOM     16  C   UNL     1       1.470  12.344  20.041  0.00  0.00    +0.000 C 
ATOM     17  C   UNL     1       1.421  13.286  21.244  0.00  0.00    +0.000 C 
ATOM     18  C   UNL     1       0.020  13.791  21.577  0.00  0.00    +0.000 C 
ATOM     19  C   UNL     1      -0.945  12.687  21.990  0.00  0.00    +0.000 C 
ATOM     20  N   UNL     1      -1.425  11.909  20.868  0.00  0.00    +0.000 N 
ATOM     21  C   UNL     1      -0.696  11.051  20.092  0.00  0.00    +0.000 C 
ATOM     22  O   UNL     1      -1.269  10.392  19.223  0.00  0.00    +0.000 OA
ATOM     23  H   UNL     1      -2.421  11.888  20.677  0.00  0.00    +0.000 HD
ENDBRANCH  13  15
BRANCH   1  25
ATOM     24  C   UNL     1       4.520   1.999  20.117  0.00  0.00    +0.000 C 
ATOM     25  O   UNL     1       3.440   2.550  20.866  0.00  0.00    +0.000 OA
ENDBRANCH   1  25
TORSDOF 2
ENDMDL
MODEL 9
REMARK VINA RESULT:      -6.3      2.116      3.291
REMARK  Name = 
REMARK  3 active torsions:
REMARK  status: ('A' for Active; 'I' for Inactive)
REMARK    1  A    between atoms: C_1  and  O_2
REMARK    2  A    between atoms: O_2  and  C_3
REMARK    3  A    between atoms: N_15  and  C_16
REMARK                            x       y       z     vdW  Elec       q    Type
REMARK                         _______ _______ _______ _____ _____    ______ ____
ROOT
ATOM      1  C   UNL     1      -0.472  12.202  19.193  0.00  0.00    +0.000 A 
ATOM      2  C   UNL     1      -0.167  11.331  18.160  0.00  0.00    +0.000 A 
ATOM      3  C   UNL     1       0.399  10.084  18.435  0.00  0.00    +0.000 A 
ATOM      4  C   UNL     1       0.692   9.676  19.743  0.00  0.00    +0.000 A 
ATOM      5  C   UNL     1       0.342  10.542  20.797  0.00  0.00    +0.000 A 
ATOM      6  C   UNL     1      -0.233  11.799  20.508  0.00  0.00    +0.000 A 
ATOM      7  C   UNL     1       0.551  10.176  22.246  0.00  0.00    +0.000 C 
ATOM      8  C   UNL     1       1.438   8.952  22.430  0.00  0.00    +0.000 C 
ATOM      9  C   UNL     1       1.092   7.907  21.386  0.00  0.00    +0.000 C 
ATOM     10  N   UNL     1       1.343   8.420  20.030  0.00  0.00    +0.000 N 
ATOM     11  C   UNL     1       2.129   7.776  19.074  0.00  0.00    +0.000 C 
ATOM     12  O   UNL     1       2.228   8.109  17.892  0.00  0.00    +0.000 OA
ATOM     13  N   UNL     1       2.877   6.711  19.506  0.00  0.00    +0.000 N 
ATOM     14  H   UNL     1       3.118   6.616  20.480  0.00  0.00    +0.000 HD
ENDROOT
BRANCH  13  15
ATOM     15  C   UNL     1       3.769   6.022  18.570  0.00  0.00    +0.000 C 
ATOM     16  C   UNL     1       5.082   5.598  19.251  0.00  0.00    +0.000 C 
ATOM     17  C   UNL     1       6.242   5.462  18.265  0.00  0.00    +0.000 C 
ATOM     18  C   UNL     1       6.110   4.276  17.314  0.00  0.00    +0.000 C 
ATOM     19  C   UNL     1       4.905   4.370  16.386  0.00  0.00    +0.000 C 
ATOM     20  N   UNL     1       3.657   4.057  17.048  0.00  0.00    +0.000 N 
ATOM     21  C   UNL     1       3.034   4.795  18.015  0.00  0.00    +0.000 C 
ATOM     22  O   UNL     1       1.927   4.441  18.422  0.00  0.00    +0.000 OA
ATOM     23  H   UNL     1       3.106   3.276  16.710  0.00  0.00    +0.000 HD
ENDBRANCH  13  15
BRANCH   1  25
ATOM     24  C   UNL     1      -1.420  14.106  20.241  0.00  0.00    +0.000 C 
ATOM     25  O   UNL     1      -1.002  13.454  19.045  0.00  0.00    +0.000 OA
ENDBRANCH   1  25
TORSDOF 2
ENDMDL
