MODEL 1
REMARK VINA RESULT:      -8.6      0.000      0.000
REMARK  Name = 
REMARK  8 active torsions:
REMARK  status: ('A' for Active; 'I' for Inactive)
REMARK    1  A    between atoms: C_1  and  C_2
REMARK    2  A    between atoms: C_5  and  C_6
REMARK    3  A    between atoms: C_6  and  C_7
REMARK    4  A    between atoms: N_9  and  C_10
REMARK    5  A    between atoms: C_14  and  O_15
REMARK    6  A    between atoms: O_15  and  C_16
REMARK    7  A    between atoms: C_20  and  C_21
REMARK    8  A    between atoms: C_22  and  C_23
REMARK                            x       y       z     vdW  Elec       q    Type
REMARK                         _______ _______ _______ _____ _____    ______ ____
ROOT
ATOM      1  C   UNL     1       3.039   5.065  18.607  0.00  0.00    +0.000 A 
ATOM      2  C   UNL     1       2.180   3.976  18.432  0.00  0.00    +0.000 A 
ATOM      3  C   UNL     1       1.101   3.780  19.293  0.00  0.00    +0.000 A 
ATOM      4  C   UNL     1       0.844   4.697  20.309  0.00  0.00    +0.000 A 
ATOM      5  C   UNL     1       1.681   5.800  20.480  0.00  0.00    +0.000 A 
ATOM      6  C   UNL     1       2.819   5.942  19.677  0.00  0.00    +0.000 A 
ENDROOT
BRANCH   1   9
ATOM      7  C   UNL     1       5.413   4.826  17.905  0.00  0.00    +0.000 C 
ATOM      8  O   UNL     1       5.804   4.017  18.732  0.00  0.00    +0.000 OA
ATOM      9  N   UNL     1       4.129   5.318  17.753  0.00  0.00    +0.000 N 
ATOM     10  H   UNL     1       3.943   5.849  16.914  0.00  0.00    +0.000 HD
BRANCH   7  11
ATOM     11  C   UNL     1       6.394   5.385  16.895  0.00  0.00    +0.000 C 
ATOM     12  C   UNL     1       6.027   5.282  15.419  0.00  0.00    +0.000 C 
ATOM     13  C   UNL     1       7.105   4.403  15.963  0.00  0.00    +0.000 C 
BRANCH  11  18
ATOM     14  C   UNL     1       9.141   9.954  19.306  0.00  0.00    +0.000 C 
ATOM     15  C   UNL     1       8.529   8.759  18.636  0.00  0.00    +0.000 A 
ATOM     16  C   UNL     1       8.629   7.489  19.203  0.00  0.00    +0.000 A 
ATOM     17  C   UNL     1       7.985   6.402  18.604  0.00  0.00    +0.000 A 
ATOM     18  C   UNL     1       7.231   6.545  17.424  0.00  0.00    +0.000 A 
ATOM     19  C   UNL     1       7.194   7.818  16.837  0.00  0.00    +0.000 A 
ATOM     20  C   UNL     1       7.831   8.911  17.433  0.00  0.00    +0.000 A 
ENDBRANCH  11  18
ENDBRANCH   7  11
ENDBRANCH   1   9
BRANCH   5  21
ATOM     21  O   UNL     1       1.331   6.652  21.504  0.00  0.00    +0.000 OA
BRANCH  21  22
ATOM     22  C   UNL     1       0.906   7.937  21.233  0.00  0.00    +0.000 A 
ATOM     23  C   UNL     1      -0.005   8.464  22.152  0.00  0.00    +0.000 A 
ATOM     24  C   UNL     1      -0.486   9.776  22.030  0.00  0.00    +0.000 A 
ATOM     25  C   UNL     1      -0.026  10.574  20.963  0.00  0.00    +0.000 A 
ATOM     26  C   UNL     1      -0.181  11.930  20.537  0.00  0.00    +0.000 A 
ATOM     27  N   UNL     1       0.498  12.155  19.401  0.00  0.00    +0.000 NA
ATOM     28  N   UNL     1       1.082  10.985  19.120  0.00  0.00    +0.000 N 
ATOM     29  C   UNL     1       0.827   9.997  20.028  0.00  0.00    +0.000 A 
ATOM     30  C   UNL     1       1.285   8.674  20.106  0.00  0.00    +0.000 A 
ATOM     31  H   UNL     1       1.679  10.932  18.302  0.00  0.00    +0.000 HD
BRANCH  26  32
ATOM     32  C   UNL     1      -0.897  12.957  21.249  0.00  0.00    +0.000 C 
ATOM     33  C   UNL     1      -0.911  13.044  22.592  0.00  0.00    +0.000 C 
BRANCH  33  34
ATOM     34  C   UNL     1      -1.703  13.955  23.429  0.00  0.00    +0.000 A 
ATOM     35  C   UNL     1      -3.099  13.809  23.390  0.00  0.00    +0.000 A 
ATOM     36  C   UNL     1      -3.932  14.617  24.165  0.00  0.00    +0.000 A 
ATOM     37  C   UNL     1      -3.377  15.581  24.999  0.00  0.00    +0.000 A 
ATOM     38  C   UNL     1      -1.992  15.733  25.058  0.00  0.00    +0.000 A 
ATOM     39  C   UNL     1      -1.155  14.922  24.279  0.00  0.00    +0.000 A 
ENDBRANCH  33  34
ENDBRANCH  26  32
ENDBRANCH  21  22
ENDBRANCH   5  21
TORSDOF 7
ENDMDL
MODEL 2
REMARK VINA RESULT:      -8.5      3.894      9.523
REMARK  Name = 
REMARK  8 active torsions:
REMARK  status: ('A' for Active; 'I' for Inactive)
REMARK    1  A    between atoms: C_1  and  C_2
REMARK    2  A    between atoms: C_5  and  C_6
REMARK    3  A    between atoms: C_6  and  C_7
REMARK    4  A    between atoms: N_9  and  C_10
REMARK    5  A    between atoms: C_14  and  O_15
REMARK    6  A    between atoms: O_15  and  C_16
REMARK    7  A    between atoms: C_20  and  C_21
REMARK    8  A    between atoms: C_22  and  C_23
REMARK                            x       y       z     vdW  Elec       q    Type
REMARK                         _______ _______ _______ _____ _____    ______ ____
ROOT
ATOM      1  C   UNL     1       3.318  14.418  20.251  0.00  0.00    +0.000 A 
ATOM      2  C   UNL     1       2.910  15.444  19.395  0.00  0.00    +0.000 A 
ATOM      3  C   UNL     1       1.713  15.343  18.687  0.00  0.00    +0.000 A 
ATOM      4  C   UNL     1       0.891  14.233  18.864  0.00  0.00    +0.000 A 
ATOM      5  C   UNL     1       1.276  13.211  19.732  0.00  0.00    +0.000 A 
ATOM      6  C   UNL     1       2.523  13.270  20.367  0.00  0.00    +0.000 A 
ENDROOT
BRANCH   1   9
ATOM      7  C   UNL     1       5.765  14.785  20.512  0.00  0.00    +0.000 C 
ATOM      8  O   UNL     1       6.052  15.145  19.381  0.00  0.00    +0.000 OA
ATOM      9  N   UNL     1       4.507  14.482  21.002  0.00  0.00    +0.000 N 
ATOM     10  H   UNL     1       4.426  14.367  22.003  0.00  0.00    +0.000 HD
BRANCH   7  11
ATOM     11  C   UNL     1       6.863  14.645  21.546  0.00  0.00    +0.000 C 
ATOM     12  C   UNL     1       6.451  14.589  23.013  0.00  0.00    +0.000 C 
ATOM     13  C   UNL     1       7.116  15.820  22.490  0.00  0.00    +0.000 C 
BRANCH  11  18
ATOM     14  C   UNL     1      11.891  12.034  20.086  0.00  0.00    +0.000 C 
ATOM     15  C   UNL     1      10.553  12.645  20.382  0.00  0.00    +0.000 A 
ATOM     16  C   UNL     1       9.672  12.041  21.280  0.00  0.00    +0.000 A 
ATOM     17  C   UNL     1       8.465  12.666  21.603  0.00  0.00    +0.000 A 
ATOM     18  C   UNL     1       8.095  13.902  21.040  0.00  0.00    +0.000 A 
ATOM     19  C   UNL     1       8.967  14.462  20.095  0.00  0.00    +0.000 A 
ATOM     20  C   UNL     1      10.179  13.846  19.770  0.00  0.00    +0.000 A 
ENDBRANCH  11  18
ENDBRANCH   7  11
ENDBRANCH   1   9
BRANCH   5  21
ATOM     21  O   UNL     1       0.387  12.166  19.846  0.00  0.00    +0.000 OA
BRANCH  21  22
ATOM     22  C   UNL     1       0.811  10.863  19.689  0.00  0.00    +0.000 A 
ATOM     23  C   UNL     1       1.325  10.556  18.427  0.00  0.00    +0.000 A 
ATOM     24  C   UNL     1       1.838   9.282  18.139  0.00  0.00    +0.000 A 
ATOM     25  C   UNL     1       1.843   8.304  19.153  0.00  0.00    +0.000 A 
ATOM     26  C   UNL     1       2.331   6.969  19.309  0.00  0.00    +0.000 A 
ATOM     27  N   UNL     1       2.036   6.491  20.528  0.00  0.00    +0.000 NA
ATOM     28  N   UNL     1       1.394   7.493  21.138  0.00  0.00    +0.000 N 
ATOM     29  C   UNL     1       1.262   8.621  20.377  0.00  0.00    +0.000 A 
ATOM     30  C   UNL     1       0.703   9.872  20.672  0.00  0.00    +0.000 A 
ATOM     31  H   UNL     1       1.098   7.358  22.098  0.00  0.00    +0.000 HD
BRANCH  26  32
ATOM     32  C   UNL     1       3.105   6.240  18.337  0.00  0.00    +0.000 C 
ATOM     33  C   UNL     1       4.423   6.439  18.153  0.00  0.00    +0.000 C 
BRANCH  33  34
ATOM     34  C   UNL     1       5.286   5.860  17.113  0.00  0.00    +0.000 A 
ATOM     35  C   UNL     1       6.339   5.037  17.543  0.00  0.00    +0.000 A 
ATOM     36  C   UNL     1       7.200   4.429  16.628  0.00  0.00    +0.000 A 
ATOM     37  C   UNL     1       7.012   4.630  15.265  0.00  0.00    +0.000 A 
ATOM     38  C   UNL     1       5.964   5.437  14.821  0.00  0.00    +0.000 A 
ATOM     39  C   UNL     1       5.101   6.049  15.739  0.00  0.00    +0.000 A 
ENDBRANCH  33  34
ENDBRANCH  26  32
ENDBRANCH  21  22
ENDBRANCH   5  21
TORSDOF 7
ENDMDL
MODEL 3
REMARK VINA RESULT:      -8.4      3.762     10.086
REMARK  Name = 
REMARK  8 active torsions:
REMARK  status: ('A' for Active; 'I' for Inactive)
REMARK    1  A    between atoms: C_1  and  C_2
REMARK    2  A    between atoms: C_5  and  C_6
REMARK    3  A    between atoms: C_6  and  C_7
REMARK    4  A    between atoms: N_9  and  C_10
REMARK    5  A    between atoms: C_14  and  O_15
REMARK    6  A    between atoms: O_15  and  C_16
REMARK    7  A    between atoms: C_20  and  C_21
REMARK    8  A    between atoms: C_22  and  C_23
REMARK                            x       y       z     vdW  Elec       q    Type
REMARK                         _______ _______ _______ _____ _____    ______ ____
ROOT
ATOM      1  C   UNL     1       0.700  11.906  19.223  0.00  0.00    +0.000 A 
ATOM      2  C   UNL     1      -0.555  11.739  18.632  0.00  0.00    +0.000 A 
ATOM      3  C   UNL     1      -1.207  10.507  18.690  0.00  0.00    +0.000 A 
ATOM      4  C   UNL     1      -0.629   9.445  19.379  0.00  0.00    +0.000 A 
ATOM      5  C   UNL     1       0.613   9.605  19.992  0.00  0.00    +0.000 A 
ATOM      6  C   UNL     1       1.310  10.812  19.851  0.00  0.00    +0.000 A 
ENDROOT
BRANCH   1   9
ATOM      7  C   UNL     1       2.526  13.422  18.477  0.00  0.00    +0.000 C 
ATOM      8  O   UNL     1       3.070  12.712  17.646  0.00  0.00    +0.000 OA
ATOM      9  N   UNL     1       1.389  13.134  19.210  0.00  0.00    +0.000 N 
ATOM     10  H   UNL     1       0.977  13.898  19.728  0.00  0.00    +0.000 HD
BRANCH   7  11
ATOM     11  C   UNL     1       3.106  14.788  18.778  0.00  0.00    +0.000 C 
ATOM     12  C   UNL     1       2.219  15.788  19.511  0.00  0.00    +0.000 C 
ATOM     13  C   UNL     1       2.506  15.998  18.061  0.00  0.00    +0.000 C 
BRANCH  11  18
ATOM     14  C   UNL     1       8.882  15.405  19.469  0.00  0.00    +0.000 C 
ATOM     15  C   UNL     1       7.414  15.141  19.311  0.00  0.00    +0.000 A 
ATOM     16  C   UNL     1       6.559  15.159  20.414  0.00  0.00    +0.000 A 
ATOM     17  C   UNL     1       5.184  14.988  20.236  0.00  0.00    +0.000 A 
ATOM     18  C   UNL     1       4.620  14.790  18.962  0.00  0.00    +0.000 A 
ATOM     19  C   UNL     1       5.502  14.714  17.874  0.00  0.00    +0.000 A 
ATOM     20  C   UNL     1       6.879  14.888  18.044  0.00  0.00    +0.000 A 
ENDBRANCH  11  18
ENDBRANCH   7  11
ENDBRANCH   1   9
BRANCH   5  21
ATOM     21  O   UNL     1       1.090   8.498  20.659  0.00  0.00    +0.000 OA
BRANCH  21  22
ATOM     22  C   UNL     1       1.845   7.551  19.997  0.00  0.00    +0.000 A 
ATOM     23  C   UNL     1       2.388   7.972  18.781  0.00  0.00    +0.000 A 
ATOM     24  C   UNL     1       3.216   7.132  18.023  0.00  0.00    +0.000 A 
ATOM     25  C   UNL     1       3.511   5.843  18.512  0.00  0.00    +0.000 A 
ATOM     26  C   UNL     1       4.343   4.748  18.122  0.00  0.00    +0.000 A 
ATOM     27  N   UNL     1       4.221   3.725  18.983  0.00  0.00    +0.000 NA
ATOM     28  N   UNL     1       3.350   4.158  19.901  0.00  0.00    +0.000 N 
ATOM     29  C   UNL     1       2.899   5.431  19.691  0.00  0.00    +0.000 A 
ATOM     30  C   UNL     1       2.033   6.238  20.442  0.00  0.00    +0.000 A 
ATOM     31  H   UNL     1       3.127   3.544  20.676  0.00  0.00    +0.000 HD
BRANCH  26  32
ATOM     32  C   UNL     1       5.259   4.744  17.010  0.00  0.00    +0.000 C 
ATOM     33  C   UNL     1       4.856   4.626  15.732  0.00  0.00    +0.000 C 
BRANCH  33  34
ATOM     34  C   UNL     1       5.693   4.475  14.532  0.00  0.00    +0.000 A 
ATOM     35  C   UNL     1       5.196   3.659  13.504  0.00  0.00    +0.000 A 
ATOM     36  C   UNL     1       5.912   3.472  12.321  0.00  0.00    +0.000 A 
ATOM     37  C   UNL     1       7.136   4.107  12.147  0.00  0.00    +0.000 A 
ATOM     38  C   UNL     1       7.640   4.929  13.155  0.00  0.00    +0.000 A 
ATOM     39  C   UNL     1       6.922   5.117  14.343  0.00  0.00    +0.000 A 
ENDBRANCH  33  34
ENDBRANCH  26  32
ENDBRANCH  21  22
ENDBRANCH   5  21
TORSDOF 7
ENDMDL
MODEL 4
REMARK VINA RESULT:      -8.4      2.603      3.997
REMARK  Name = 
REMARK  8 active torsions:
REMARK  status: ('A' for Active; 'I' for Inactive)
REMARK    1  A    between atoms: C_1  and  C_2
REMARK    2  A    between atoms: C_5  and  C_6
REMARK    3  A    between atoms: C_6  and  C_7
REMARK    4  A    between atoms: N_9  and  C_10
REMARK    5  A    between atoms: C_14  and  O_15
REMARK    6  A    between atoms: O_15  and  C_16
REMARK    7  A    between atoms: C_20  and  C_21
REMARK    8  A    between atoms: C_22  and  C_23
REMARK                            x       y       z     vdW  Elec       q    Type
REMARK                         _______ _______ _______ _____ _____    ______ ____
ROOT
ATOM      1  C   UNL     1       3.472   4.935  19.349  0.00  0.00    +0.000 A 
ATOM      2  C   UNL     1       2.719   3.760  19.281  0.00  0.00    +0.000 A 
ATOM      3  C   UNL     1       1.468   3.683  19.894  0.00  0.00    +0.000 A 
ATOM      4  C   UNL     1       0.941   4.797  20.541  0.00  0.00    +0.000 A 
ATOM      5  C   UNL     1       1.673   5.983  20.597  0.00  0.00    +0.000 A 
ATOM      6  C   UNL     1       2.968   6.028  20.066  0.00  0.00    +0.000 A 
ENDROOT
BRANCH   1   9
ATOM      7  C   UNL     1       5.073   6.013  17.780  0.00  0.00    +0.000 C 
ATOM      8  O   UNL     1       4.394   6.950  17.387  0.00  0.00    +0.000 OA
ATOM      9  N   UNL     1       4.730   5.069  18.730  0.00  0.00    +0.000 N 
ATOM     10  H   UNL     1       5.471   4.466  19.059  0.00  0.00    +0.000 HD
BRANCH   7  11
ATOM     11  C   UNL     1       6.461   5.816  17.209  0.00  0.00    +0.000 C 
ATOM     12  C   UNL     1       7.625   5.736  18.190  0.00  0.00    +0.000 C 
ATOM     13  C   UNL     1       7.467   6.959  17.348  0.00  0.00    +0.000 C 
BRANCH  11  18
ATOM     14  C   UNL     1       6.246   3.351  11.907  0.00  0.00    +0.000 C 
ATOM     15  C   UNL     1       6.368   3.903  13.296  0.00  0.00    +0.000 A 
ATOM     16  C   UNL     1       7.400   4.779  13.633  0.00  0.00    +0.000 A 
ATOM     17  C   UNL     1       7.451   5.344  14.910  0.00  0.00    +0.000 A 
ATOM     18  C   UNL     1       6.484   5.050  15.890  0.00  0.00    +0.000 A 
ATOM     19  C   UNL     1       5.490   4.121  15.552  0.00  0.00    +0.000 A 
ATOM     20  C   UNL     1       5.430   3.555  14.274  0.00  0.00    +0.000 A 
ENDBRANCH  11  18
ENDBRANCH   7  11
ENDBRANCH   1   9
BRANCH   5  21
ATOM     21  O   UNL     1       1.055   7.027  21.248  0.00  0.00    +0.000 OA
BRANCH  21  22
ATOM     22  C   UNL     1       1.047   8.292  20.696  0.00  0.00    +0.000 A 
ATOM     23  C   UNL     1       0.441   9.276  21.482  0.00  0.00    +0.000 A 
ATOM     24  C   UNL     1       0.402  10.616  21.068  0.00  0.00    +0.000 A 
ATOM     25  C   UNL     1       1.000  10.969  19.842  0.00  0.00    +0.000 A 
ATOM     26  C   UNL     1       1.256  12.175  19.118  0.00  0.00    +0.000 A 
ATOM     27  N   UNL     1       1.869  11.913  17.954  0.00  0.00    +0.000 NA
ATOM     28  N   UNL     1       2.015  10.584  17.940  0.00  0.00    +0.000 N 
ATOM     29  C   UNL     1       1.534   9.954  19.053  0.00  0.00    +0.000 A 
ATOM     30  C   UNL     1       1.543   8.603  19.426  0.00  0.00    +0.000 A 
ATOM     31  H   UNL     1       2.488  10.163  17.149  0.00  0.00    +0.000 HD
BRANCH  26  32
ATOM     32  C   UNL     1       0.977  13.509  19.586  0.00  0.00    +0.000 C 
ATOM     33  C   UNL     1       0.299  14.413  18.856  0.00  0.00    +0.000 C 
BRANCH  33  34
ATOM     34  C   UNL     1       0.069  15.833  19.164  0.00  0.00    +0.000 A 
ATOM     35  C   UNL     1       0.535  16.301  20.403  0.00  0.00    +0.000 A 
ATOM     36  C   UNL     1       0.380  17.637  20.775  0.00  0.00    +0.000 A 
ATOM     37  C   UNL     1      -0.241  18.527  19.906  0.00  0.00    +0.000 A 
ATOM     38  C   UNL     1      -0.702  18.080  18.667  0.00  0.00    +0.000 A 
ATOM     39  C   UNL     1      -0.545  16.739  18.294  0.00  0.00    +0.000 A 
ENDBRANCH  33  34
ENDBRANCH  26  32
ENDBRANCH  21  22
ENDBRANCH   5  21
TORSDOF 7
ENDMDL
MODEL 5
REMARK VINA RESULT:      -8.2      1.270      3.039
REMARK  Name = 
REMARK  8 active torsions:
REMARK  status: ('A' for Active; 'I' for Inactive)
REMARK    1  A    between atoms: C_1  and  C_2
REMARK    2  A    between atoms: C_5  and  C_6
REMARK    3  A    between atoms: C_6  and  C_7
REMARK    4  A    between atoms: N_9  and  C_10
REMARK    5  A    between atoms: C_14  and  O_15
REMARK    6  A    between atoms: O_15  and  C_16
REMARK    7  A    between atoms: C_20  and  C_21
REMARK    8  A    between atoms: C_22  and  C_23
REMARK                            x       y       z     vdW  Elec       q    Type
REMARK                         _______ _______ _______ _____ _____    ______ ____
ROOT
ATOM      1  C   UNL     1       3.157   5.343  18.821  0.00  0.00    +0.000 A 
ATOM      2  C   UNL     1       2.468   4.131  18.735  0.00  0.00    +0.000 A 
ATOM      3  C   UNL     1       1.388   3.868  19.578  0.00  0.00    +0.000 A 
ATOM      4  C   UNL     1       0.960   4.835  20.484  0.00  0.00    +0.000 A 
ATOM      5  C   UNL     1       1.626   6.058  20.565  0.00  0.00    +0.000 A 
ATOM      6  C   UNL     1       2.769   6.282  19.786  0.00  0.00    +0.000 A 
ENDROOT
BRANCH   1   9
ATOM      7  C   UNL     1       5.539   5.211  18.116  0.00  0.00    +0.000 C 
ATOM      8  O   UNL     1       5.956   4.385  18.913  0.00  0.00    +0.000 OA
ATOM      9  N   UNL     1       4.239   5.664  17.980  0.00  0.00    +0.000 N 
ATOM     10  H   UNL     1       4.036   6.219  17.160  0.00  0.00    +0.000 HD
BRANCH   7  11
ATOM     11  C   UNL     1       6.502   5.839  17.130  0.00  0.00    +0.000 C 
ATOM     12  C   UNL     1       7.821   6.375  17.673  0.00  0.00    +0.000 C 
ATOM     13  C   UNL     1       6.767   7.340  17.240  0.00  0.00    +0.000 C 
BRANCH  11  18
ATOM     14  C   UNL     1       6.277   3.119  11.955  0.00  0.00    +0.000 C 
ATOM     15  C   UNL     1       6.289   3.903  13.233  0.00  0.00    +0.000 A 
ATOM     16  C   UNL     1       5.187   3.897  14.089  0.00  0.00    +0.000 A 
ATOM     17  C   UNL     1       5.247   4.569  15.313  0.00  0.00    +0.000 A 
ATOM     18  C   UNL     1       6.399   5.270  15.718  0.00  0.00    +0.000 A 
ATOM     19  C   UNL     1       7.473   5.315  14.818  0.00  0.00    +0.000 A 
ATOM     20  C   UNL     1       7.422   4.641  13.594  0.00  0.00    +0.000 A 
ENDBRANCH  11  18
ENDBRANCH   7  11
ENDBRANCH   1   9
BRANCH   5  21
ATOM     21  O   UNL     1       1.115   6.948  21.483  0.00  0.00    +0.000 OA
BRANCH  21  22
ATOM     22  C   UNL     1       0.799   8.238  21.108  0.00  0.00    +0.000 A 
ATOM     23  C   UNL     1       0.048   8.958  22.041  0.00  0.00    +0.000 A 
ATOM     24  C   UNL     1      -0.306  10.296  21.816  0.00  0.00    +0.000 A 
ATOM     25  C   UNL     1       0.120  10.923  20.627  0.00  0.00    +0.000 A 
ATOM     26  C   UNL     1       0.062  12.236  20.065  0.00  0.00    +0.000 A 
ATOM     27  N   UNL     1       0.639  12.264  18.854  0.00  0.00    +0.000 NA
ATOM     28  N   UNL     1       1.067  11.012  18.654  0.00  0.00    +0.000 N 
ATOM     29  C   UNL     1       0.807  10.158  19.689  0.00  0.00    +0.000 A 
ATOM     30  C   UNL     1       1.132   8.807  19.874  0.00  0.00    +0.000 A 
ATOM     31  H   UNL     1       1.567  10.808  17.796  0.00  0.00    +0.000 HD
BRANCH  26  32
ATOM     32  C   UNL     1      -0.467  13.406  20.719  0.00  0.00    +0.000 C 
ATOM     33  C   UNL     1      -0.116  13.768  21.966  0.00  0.00    +0.000 C 
BRANCH  33  34
ATOM     34  C   UNL     1      -0.680  14.853  22.783  0.00  0.00    +0.000 A 
ATOM     35  C   UNL     1      -1.266  14.493  24.006  0.00  0.00    +0.000 A 
ATOM     36  C   UNL     1      -1.811  15.456  24.857  0.00  0.00    +0.000 A 
ATOM     37  C   UNL     1      -1.770  16.798  24.496  0.00  0.00    +0.000 A 
ATOM     38  C   UNL     1      -1.183  17.174  23.288  0.00  0.00    +0.000 A 
ATOM     39  C   UNL     1      -0.636  16.207  22.434  0.00  0.00    +0.000 A 
ENDBRANCH  33  34
ENDBRANCH  26  32
ENDBRANCH  21  22
ENDBRANCH   5  21
TORSDOF 7
ENDMDL
MODEL 6
REMARK VINA RESULT:      -8.1      4.209      8.425
REMARK  Name = 
REMARK  8 active torsions:
REMARK  status: ('A' for Active; 'I' for Inactive)
REMARK    1  A    between atoms: C_1  and  C_2
REMARK    2  A    between atoms: C_5  and  C_6
REMARK    3  A    between atoms: C_6  and  C_7
REMARK    4  A    between atoms: N_9  and  C_10
REMARK    5  A    between atoms: C_14  and  O_15
REMARK    6  A    between atoms: O_15  and  C_16
REMARK    7  A    between atoms: C_20  and  C_21
REMARK    8  A    between atoms: C_22  and  C_23
REMARK                            x       y       z     vdW  Elec       q    Type
REMARK                         _______ _______ _______ _____ _____    ______ ____
ROOT
ATOM      1  C   UNL     1       6.611  15.131  18.549  0.00  0.00    +0.000 A 
ATOM      2  C   UNL     1       6.670  16.472  18.937  0.00  0.00    +0.000 A 
ATOM      3  C   UNL     1       5.532  17.277  18.881  0.00  0.00    +0.000 A 
ATOM      4  C   UNL     1       4.314  16.734  18.480  0.00  0.00    +0.000 A 
ATOM      5  C   UNL     1       4.237  15.391  18.111  0.00  0.00    +0.000 A 
ATOM      6  C   UNL     1       5.400  14.610  18.075  0.00  0.00    +0.000 A 
ENDROOT
BRANCH   1   9
ATOM      7  C   UNL     1       8.421  13.919  19.749  0.00  0.00    +0.000 C 
ATOM      8  O   UNL     1       8.140  14.196  20.904  0.00  0.00    +0.000 OA
ATOM      9  N   UNL     1       7.726  14.273  18.607  0.00  0.00    +0.000 N 
ATOM     10  H   UNL     1       8.002  13.818  17.748  0.00  0.00    +0.000 HD
BRANCH   7  11
ATOM     11  C   UNL     1       9.654  13.085  19.468  0.00  0.00    +0.000 C 
ATOM     12  C   UNL     1      10.913  13.389  20.272  0.00  0.00    +0.000 C 
ATOM     13  C   UNL     1      10.860  13.776  18.830  0.00  0.00    +0.000 C 
BRANCH  11  18
ATOM     14  C   UNL     1       7.909   7.748  17.824  0.00  0.00    +0.000 C 
ATOM     15  C   UNL     1       8.449   9.099  18.190  0.00  0.00    +0.000 A 
ATOM     16  C   UNL     1       8.252  10.200  17.357  0.00  0.00    +0.000 A 
ATOM     17  C   UNL     1       8.693  11.466  17.753  0.00  0.00    +0.000 A 
ATOM     18  C   UNL     1       9.347  11.672  18.983  0.00  0.00    +0.000 A 
ATOM     19  C   UNL     1       9.588  10.543  19.778  0.00  0.00    +0.000 A 
ATOM     20  C   UNL     1       9.146   9.274  19.391  0.00  0.00    +0.000 A 
ENDBRANCH  11  18
ENDBRANCH   7  11
ENDBRANCH   1   9
BRANCH   5  21
ATOM     21  O   UNL     1       2.985  14.951  17.743  0.00  0.00    +0.000 OA
BRANCH  21  22
ATOM     22  C   UNL     1       2.375  13.919  18.427  0.00  0.00    +0.000 A 
ATOM     23  C   UNL     1       2.420  12.678  17.786  0.00  0.00    +0.000 A 
ATOM     24  C   UNL     1       1.883  11.529  18.385  0.00  0.00    +0.000 A 
ATOM     25  C   UNL     1       1.300  11.636  19.664  0.00  0.00    +0.000 A 
ATOM     26  C   UNL     1       0.742  10.742  20.631  0.00  0.00    +0.000 A 
ATOM     27  N   UNL     1       0.309  11.415  21.709  0.00  0.00    +0.000 NA
ATOM     28  N   UNL     1       0.595  12.695  21.447  0.00  0.00    +0.000 N 
ATOM     29  C   UNL     1       1.211  12.898  20.244  0.00  0.00    +0.000 A 
ATOM     30  C   UNL     1       1.700  14.066  19.643  0.00  0.00    +0.000 A 
ATOM     31  H   UNL     1       0.374  13.388  22.152  0.00  0.00    +0.000 HD
BRANCH  26  32
ATOM     32  C   UNL     1       0.708   9.306  20.526  0.00  0.00    +0.000 C 
ATOM     33  C   UNL     1       1.784   8.571  20.190  0.00  0.00    +0.000 C 
BRANCH  33  34
ATOM     34  C   UNL     1       1.842   7.127  19.922  0.00  0.00    +0.000 A 
ATOM     35  C   UNL     1       2.305   6.730  18.657  0.00  0.00    +0.000 A 
ATOM     36  C   UNL     1       2.412   5.381  18.318  0.00  0.00    +0.000 A 
ATOM     37  C   UNL     1       2.064   4.406  19.247  0.00  0.00    +0.000 A 
ATOM     38  C   UNL     1       1.611   4.783  20.511  0.00  0.00    +0.000 A 
ATOM     39  C   UNL     1       1.503   6.138  20.851  0.00  0.00    +0.000 A 
ENDBRANCH  33  34
ENDBRANCH  26  32
ENDBRANCH  21  22
ENDBRANCH   5  21
TORSDOF 7
ENDMDL
MODEL 7
REMARK VINA RESULT:      -8.1      3.371     11.148
REMARK  Name = 
REMARK  8 active torsions:
REMARK  status: ('A' for Active; 'I' for Inactive)
REMARK    1  A    between atoms: C_1  and  C_2
REMARK    2  A    between atoms: C_5  and  C_6
REMARK    3  A    between atoms: C_6  and  C_7
REMARK    4  A    between atoms: N_9  and  C_10
REMARK    5  A    between atoms: C_14  and  O_15
REMARK    6  A    between atoms: O_15  and  C_16
REMARK    7  A    between atoms: C_20  and  C_21
REMARK    8  A    between atoms: C_22  and  C_23
REMARK                            x       y       z     vdW  Elec       q    Type
REMARK                         _______ _______ _______ _____ _____    ______ ____
ROOT
ATOM      1  C   UNL     1      -0.653  10.133  20.046  0.00  0.00    +0.000 A 
ATOM      2  C   UNL     1      -0.001  11.235  20.606  0.00  0.00    +0.000 A 
ATOM      3  C   UNL     1       1.056  11.054  21.498  0.00  0.00    +0.000 A 
ATOM      4  C   UNL     1       1.500   9.770  21.802  0.00  0.00    +0.000 A 
ATOM      5  C   UNL     1       0.871   8.662  21.232  0.00  0.00    +0.000 A 
ATOM      6  C   UNL     1      -0.251   8.842  20.414  0.00  0.00    +0.000 A 
ENDROOT
BRANCH   1   9
ATOM      7  C   UNL     1      -1.621  10.106  17.755  0.00  0.00    +0.000 C 
ATOM      8  O   UNL     1      -0.651   9.732  17.114  0.00  0.00    +0.000 OA
ATOM      9  N   UNL     1      -1.711  10.263  19.126  0.00  0.00    +0.000 N 
ATOM     10  H   UNL     1      -2.635  10.416  19.505  0.00  0.00    +0.000 HD
BRANCH   7  11
ATOM     11  C   UNL     1      -2.905  10.440  17.025  0.00  0.00    +0.000 C 
ATOM     12  C   UNL     1      -3.240   9.634  15.776  0.00  0.00    +0.000 C 
ATOM     13  C   UNL     1      -2.801  11.053  15.628  0.00  0.00    +0.000 C 
BRANCH  11  18
ATOM     14  C   UNL     1      -6.886  12.205  20.932  0.00  0.00    +0.000 C 
ATOM     15  C   UNL     1      -5.903  11.830  19.864  0.00  0.00    +0.000 A 
ATOM     16  C   UNL     1      -4.661  12.460  19.778  0.00  0.00    +0.000 A 
ATOM     17  C   UNL     1      -3.727  12.043  18.825  0.00  0.00    +0.000 A 
ATOM     18  C   UNL     1      -4.002  10.993  17.928  0.00  0.00    +0.000 A 
ATOM     19  C   UNL     1      -5.278  10.414  17.990  0.00  0.00    +0.000 A 
ATOM     20  C   UNL     1      -6.215  10.823  18.944  0.00  0.00    +0.000 A 
ENDBRANCH  11  18
ENDBRANCH   7  11
ENDBRANCH   1   9
BRANCH   5  21
ATOM     21  O   UNL     1       1.395   7.439  21.587  0.00  0.00    +0.000 OA
BRANCH  21  22
ATOM     22  C   UNL     1       1.708   6.503  20.623  0.00  0.00    +0.000 A 
ATOM     23  C   UNL     1       2.317   7.017  19.475  0.00  0.00    +0.000 A 
ATOM     24  C   UNL     1       2.733   6.176  18.433  0.00  0.00    +0.000 A 
ATOM     25  C   UNL     1       2.540   4.785  18.560  0.00  0.00    +0.000 A 
ATOM     26  C   UNL     1       2.881   3.615  17.812  0.00  0.00    +0.000 A 
ATOM     27  N   UNL     1       2.418   2.510  18.417  0.00  0.00    +0.000 NA
ATOM     28  N   UNL     1       1.816   2.957  19.524  0.00  0.00    +0.000 N 
ATOM     29  C   UNL     1       1.870   4.313  19.684  0.00  0.00    +0.000 A 
ATOM     30  C   UNL     1       1.405   5.140  20.717  0.00  0.00    +0.000 A 
ATOM     31  H   UNL     1       1.411   2.277  20.157  0.00  0.00    +0.000 HD
BRANCH  26  32
ATOM     32  C   UNL     1       3.678   3.589  16.612  0.00  0.00    +0.000 C 
ATOM     33  C   UNL     1       4.902   4.141  16.535  0.00  0.00    +0.000 C 
BRANCH  33  34
ATOM     34  C   UNL     1       5.749   4.294  15.343  0.00  0.00    +0.000 A 
ATOM     35  C   UNL     1       5.313   3.668  14.164  0.00  0.00    +0.000 A 
ATOM     36  C   UNL     1       6.041   3.774  12.979  0.00  0.00    +0.000 A 
ATOM     37  C   UNL     1       7.216   4.516  12.954  0.00  0.00    +0.000 A 
ATOM     38  C   UNL     1       7.659   5.152  14.114  0.00  0.00    +0.000 A 
ATOM     39  C   UNL     1       6.928   5.046  15.304  0.00  0.00    +0.000 A 
ENDBRANCH  33  34
ENDBRANCH  26  32
ENDBRANCH  21  22
ENDBRANCH   5  21
TORSDOF 7
ENDMDL
MODEL 8
REMARK VINA RESULT:      -8.1      3.774     10.405
REMARK  Name = 
REMARK  8 active torsions:
REMARK  status: ('A' for Active; 'I' for Inactive)
REMARK    1  A    between atoms: C_1  and  C_2
REMARK    2  A    between atoms: C_5  and  C_6
REMARK    3  A    between atoms: C_6  and  C_7
REMARK    4  A    between atoms: N_9  and  C_10
REMARK    5  A    between atoms: C_14  and  O_15
REMARK    6  A    between atoms: O_15  and  C_16
REMARK    7  A    between atoms: C_20  and  C_21
REMARK    8  A    between atoms: C_22  and  C_23
REMARK                            x       y       z     vdW  Elec       q    Type
REMARK                         _______ _______ _______ _____ _____    ______ ____
ROOT
ATOM      1  C   UNL     1       1.175  12.348  18.920  0.00  0.00    +0.000 A 
ATOM      2  C   UNL     1      -0.121  12.440  18.407  0.00  0.00    +0.000 A 
ATOM      3  C   UNL     1      -0.987  11.348  18.467  0.00  0.00    +0.000 A 
ATOM      4  C   UNL     1      -0.578  10.169  19.084  0.00  0.00    +0.000 A 
ATOM      5  C   UNL     1       0.706  10.071  19.621  0.00  0.00    +0.000 A 
ATOM      6  C   UNL     1       1.606  11.134  19.472  0.00  0.00    +0.000 A 
ENDROOT
BRANCH   1   9
ATOM      7  C   UNL     1       1.944  14.614  19.598  0.00  0.00    +0.000 C 
ATOM      8  O   UNL     1       1.086  14.897  20.420  0.00  0.00    +0.000 OA
ATOM      9  N   UNL     1       2.079  13.427  18.901  0.00  0.00    +0.000 N 
ATOM     10  H   UNL     1       2.940  13.298  18.389  0.00  0.00    +0.000 HD
BRANCH   7  11
ATOM     11  C   UNL     1       3.015  15.632  19.267  0.00  0.00    +0.000 C 
ATOM     12  C   UNL     1       2.603  17.097  19.196  0.00  0.00    +0.000 C 
ATOM     13  C   UNL     1       2.920  16.369  17.931  0.00  0.00    +0.000 C 
BRANCH  11  18
ATOM     14  C   UNL     1       8.432  14.631  21.238  0.00  0.00    +0.000 C 
ATOM     15  C   UNL     1       7.037  14.782  20.708  0.00  0.00    +0.000 A 
ATOM     16  C   UNL     1       5.930  14.573  21.531  0.00  0.00    +0.000 A 
ATOM     17  C   UNL     1       4.641  14.795  21.041  0.00  0.00    +0.000 A 
ATOM     18  C   UNL     1       4.414  15.224  19.719  0.00  0.00    +0.000 A 
ATOM     19  C   UNL     1       5.536  15.370  18.890  0.00  0.00    +0.000 A 
ATOM     20  C   UNL     1       6.830  15.154  19.376  0.00  0.00    +0.000 A 
ENDBRANCH  11  18
ENDBRANCH   7  11
ENDBRANCH   1   9
BRANCH   5  21
ATOM     21  O   UNL     1       1.005   8.868  20.220  0.00  0.00    +0.000 OA
BRANCH  21  22
ATOM     22  C   UNL     1       1.835   7.959  19.595  0.00  0.00    +0.000 A 
ATOM     23  C   UNL     1       2.258   8.329  18.315  0.00  0.00    +0.000 A 
ATOM     24  C   UNL     1       3.143   7.525  17.581  0.00  0.00    +0.000 A 
ATOM     25  C   UNL     1       3.618   6.330  18.158  0.00  0.00    +0.000 A 
ATOM     26  C   UNL     1       4.557   5.309  17.811  0.00  0.00    +0.000 A 
ATOM     27  N   UNL     1       4.606   4.362  18.761  0.00  0.00    +0.000 NA
ATOM     28  N   UNL     1       3.738   4.772  19.692  0.00  0.00    +0.000 N 
ATOM     29  C   UNL     1       3.124   5.958  19.404  0.00  0.00    +0.000 A 
ATOM     30  C   UNL     1       2.205   6.723  20.136  0.00  0.00    +0.000 A 
ATOM     31  H   UNL     1       3.632   4.210  20.529  0.00  0.00    +0.000 HD
BRANCH  26  32
ATOM     32  C   UNL     1       5.407   5.311  16.648  0.00  0.00    +0.000 C 
ATOM     33  C   UNL     1       5.083   4.682  15.504  0.00  0.00    +0.000 C 
BRANCH  33  34
ATOM     34  C   UNL     1       5.916   4.500  14.306  0.00  0.00    +0.000 A 
ATOM     35  C   UNL     1       5.427   3.639  13.312  0.00  0.00    +0.000 A 
ATOM     36  C   UNL     1       6.139   3.418  12.132  0.00  0.00    +0.000 A 
ATOM     37  C   UNL     1       7.352   4.066  11.928  0.00  0.00    +0.000 A 
ATOM     38  C   UNL     1       7.848   4.933  12.902  0.00  0.00    +0.000 A 
ATOM     39  C   UNL     1       7.133   5.153  14.086  0.00  0.00    +0.000 A 
ENDBRANCH  33  34
ENDBRANCH  26  32
ENDBRANCH  21  22
ENDBRANCH   5  21
TORSDOF 7
ENDMDL
MODEL 9
REMARK VINA RESULT:      -8.1      3.511     10.287
REMARK  Name = 
REMARK  8 active torsions:
REMARK  status: ('A' for Active; 'I' for Inactive)
REMARK    1  A    between atoms: C_1  and  C_2
REMARK    2  A    between atoms: C_5  and  C_6
REMARK    3  A    between atoms: C_6  and  C_7
REMARK    4  A    between atoms: N_9  and  C_10
REMARK    5  A    between atoms: C_14  and  O_15
REMARK    6  A    between atoms: O_15  and  C_16
REMARK    7  A    between atoms: C_20  and  C_21
REMARK    8  A    between atoms: C_22  and  C_23
REMARK                            x       y       z     vdW  Elec       q    Type
REMARK                         _______ _______ _______ _____ _____    ______ ____
ROOT
ATOM      1  C   UNL     1       1.054  12.104  19.905  0.00  0.00    +0.000 A 
ATOM      2  C   UNL     1       0.052  12.145  18.932  0.00  0.00    +0.000 A 
ATOM      3  C   UNL     1      -0.578  10.973  18.513  0.00  0.00    +0.000 A 
ATOM      4  C   UNL     1      -0.243   9.755  19.099  0.00  0.00    +0.000 A 
ATOM      5  C   UNL     1       0.740   9.703  20.087  0.00  0.00    +0.000 A 
ATOM      6  C   UNL     1       1.439  10.866  20.436  0.00  0.00    +0.000 A 
ENDROOT
BRANCH   1   9
ATOM      7  C   UNL     1       2.753  13.915  19.753  0.00  0.00    +0.000 C 
ATOM      8  O   UNL     1       3.228  13.674  18.654  0.00  0.00    +0.000 OA
ATOM      9  N   UNL     1       1.705  13.260  20.375  0.00  0.00    +0.000 N 
ATOM     10  H   UNL     1       1.328  13.695  21.206  0.00  0.00    +0.000 HD
BRANCH   7  11
ATOM     11  C   UNL     1       3.324  15.052  20.574  0.00  0.00    +0.000 C 
ATOM     12  C   UNL     1       2.350  15.898  21.386  0.00  0.00    +0.000 C 
ATOM     13  C   UNL     1       2.975  16.483  20.162  0.00  0.00    +0.000 C 
BRANCH  11  18
ATOM     14  C   UNL     1       8.792  13.616  22.081  0.00  0.00    +0.000 C 
ATOM     15  C   UNL     1       7.407  14.081  21.741  0.00  0.00    +0.000 A 
ATOM     16  C   UNL     1       7.154  14.785  20.563  0.00  0.00    +0.000 A 
ATOM     17  C   UNL     1       5.845  15.140  20.226  0.00  0.00    +0.000 A 
ATOM     18  C   UNL     1       4.752  14.813  21.051  0.00  0.00    +0.000 A 
ATOM     19  C   UNL     1       5.034  14.159  22.260  0.00  0.00    +0.000 A 
ATOM     20  C   UNL     1       6.341  13.796  22.601  0.00  0.00    +0.000 A 
ENDBRANCH  11  18
ENDBRANCH   7  11
ENDBRANCH   1   9
BRANCH   5  21
ATOM     21  O   UNL     1       0.987   8.453  20.609  0.00  0.00    +0.000 OA
BRANCH  21  22
ATOM     22  C   UNL     1       1.788   7.555  19.934  0.00  0.00    +0.000 A 
ATOM     23  C   UNL     1       2.266   8.002  18.700  0.00  0.00    +0.000 A 
ATOM     24  C   UNL     1       3.130   7.214  17.925  0.00  0.00    +0.000 A 
ATOM     25  C   UNL     1       3.528   5.954  18.415  0.00  0.00    +0.000 A 
ATOM     26  C   UNL     1       4.424   4.916  18.010  0.00  0.00    +0.000 A 
ATOM     27  N   UNL     1       4.397   3.895  18.881  0.00  0.00    +0.000 NA
ATOM     28  N   UNL     1       3.524   4.275  19.820  0.00  0.00    +0.000 N 
ATOM     29  C   UNL     1       2.979   5.511  19.614  0.00  0.00    +0.000 A 
ATOM     30  C   UNL     1       2.079   6.262  20.383  0.00  0.00    +0.000 A 
ATOM     31  H   UNL     1       3.366   3.654  20.606  0.00  0.00    +0.000 HD
BRANCH  26  32
ATOM     32  C   UNL     1       5.306   4.966  16.872  0.00  0.00    +0.000 C 
ATOM     33  C   UNL     1       4.942   4.551  15.645  0.00  0.00    +0.000 C 
BRANCH  33  34
ATOM     34  C   UNL     1       5.786   4.427  14.448  0.00  0.00    +0.000 A 
ATOM     35  C   UNL     1       5.332   3.570  13.433  0.00  0.00    +0.000 A 
ATOM     36  C   UNL     1       6.056   3.403  12.251  0.00  0.00    +0.000 A 
ATOM     37  C   UNL     1       7.244   4.101  12.066  0.00  0.00    +0.000 A 
ATOM     38  C   UNL     1       7.704   4.964  13.060  0.00  0.00    +0.000 A 
ATOM     39  C   UNL     1       6.978   5.131  14.246  0.00  0.00    +0.000 A 
ENDBRANCH  33  34
ENDBRANCH  26  32
ENDBRANCH  21  22
ENDBRANCH   5  21
TORSDOF 7
ENDMDL
