MODEL 1
REMARK VINA RESULT:      -7.6      0.000      0.000
REMARK  Name = 
REMARK  5 active torsions:
REMARK  status: ('A' for Active; 'I' for Inactive)
REMARK    1  A    between atoms: C_2  and  C_3
REMARK    2  A    between atoms: N_8  and  C_9
REMARK    3  A    between atoms: C_12  and  O_13
REMARK    4  A    between atoms: O_13  and  C_14
REMARK    5  A    between atoms: C_14  and  C_15
REMARK                            x       y       z     vdW  Elec       q    Type
REMARK                         _______ _______ _______ _____ _____    ______ ____
ROOT
ATOM      1  C   UNL     1       5.971   6.099  17.436  0.00  0.00    +0.000 A 
ATOM      2  C   UNL     1       6.312   4.907  16.805  0.00  0.00    +0.000 A 
ATOM      3  C   UNL     1       5.346   3.945  16.531  0.00  0.00    +0.000 A 
ATOM      4  C   UNL     1       4.025   4.145  16.920  0.00  0.00    +0.000 A 
ATOM      5  C   UNL     1       3.661   5.352  17.516  0.00  0.00    +0.000 A 
ATOM      6  C   UNL     1       4.635   6.323  17.788  0.00  0.00    +0.000 A 
ENDROOT
BRANCH   1  12
ATOM      7  O   UNL     1       7.623   9.662  17.628  0.00  0.00    +0.000 OA
ATOM      8  C   UNL     1       8.526   9.353  18.406  0.00  0.00    +0.000 C 
ATOM      9  N   UNL     1       8.691   8.076  18.903  0.00  0.00    +0.000 N 
ATOM     10  C   UNL     1       7.963   6.939  18.651  0.00  0.00    +0.000 C 
ATOM     11  O   UNL     1       8.299   5.918  19.244  0.00  0.00    +0.000 OA
ATOM     12  N   UNL     1       6.931   7.075  17.759  0.00  0.00    +0.000 N 
ATOM     13  H   UNL     1       9.462   7.903  19.538  0.00  0.00    +0.000 HD
ATOM     14  H   UNL     1       6.891   7.958  17.251  0.00  0.00    +0.000 HD
BRANCH   8  15
ATOM     15  C   UNL     1       9.482  10.384  18.968  0.00  0.00    +0.000 C 
ATOM     16 CL   UNL     1      10.348  11.244  17.675  0.00  0.00    +0.000 Cl
ENDBRANCH   8  15
ENDBRANCH   1  12
BRANCH   4  17
ATOM     17  O   UNL     1       3.036   3.210  16.768  0.00  0.00    +0.000 OA
BRANCH  17  18
ATOM     18  C   UNL     1       3.157   2.095  17.659  0.00  0.00    +0.000 C 
BRANCH  18  19
ATOM     19  C   UNL     1       2.529   2.428  18.985  0.00  0.00    +0.000 A 
ATOM     20  C   UNL     1       3.297   2.413  20.157  0.00  0.00    +0.000 A 
ATOM     21  C   UNL     1       2.722   2.772  21.374  0.00  0.00    +0.000 A 
ATOM     22  C   UNL     1       1.383   3.158  21.426  0.00  0.00    +0.000 A 
ATOM     23  C   UNL     1       0.618   3.190  20.264  0.00  0.00    +0.000 A 
ATOM     24  C   UNL     1       1.187   2.828  19.047  0.00  0.00    +0.000 A 
ENDBRANCH  18  19
ENDBRANCH  17  18
ENDBRANCH   4  17
TORSDOF 5
ENDMDL
MODEL 2
REMARK VINA RESULT:      -7.5      0.220      1.049
REMARK  Name = 
REMARK  5 active torsions:
REMARK  status: ('A' for Active; 'I' for Inactive)
REMARK    1  A    between atoms: C_2  and  C_3
REMARK    2  A    between atoms: N_8  and  C_9
REMARK    3  A    between atoms: C_12  and  O_13
REMARK    4  A    between atoms: O_13  and  C_14
REMARK    5  A    between atoms: C_14  and  C_15
REMARK                            x       y       z     vdW  Elec       q    Type
REMARK                         _______ _______ _______ _____ _____    ______ ____
ROOT
ATOM      1  C   UNL     1       5.887   6.083  17.430  0.00  0.00    +0.000 A 
ATOM      2  C   UNL     1       6.197   4.894  16.777  0.00  0.00    +0.000 A 
ATOM      3  C   UNL     1       5.210   3.951  16.508  0.00  0.00    +0.000 A 
ATOM      4  C   UNL     1       3.900   4.167  16.924  0.00  0.00    +0.000 A 
ATOM      5  C   UNL     1       3.567   5.371  17.543  0.00  0.00    +0.000 A 
ATOM      6  C   UNL     1       4.561   6.323  17.810  0.00  0.00    +0.000 A 
ENDROOT
BRANCH   1  12
ATOM      7  O   UNL     1       7.629   9.604  17.583  0.00  0.00    +0.000 OA
ATOM      8  C   UNL     1       8.515   9.284  18.376  0.00  0.00    +0.000 C 
ATOM      9  N   UNL     1       8.641   8.012  18.895  0.00  0.00    +0.000 N 
ATOM     10  C   UNL     1       7.887   6.891  18.653  0.00  0.00    +0.000 C 
ATOM     11  O   UNL     1       8.190   5.871  19.266  0.00  0.00    +0.000 OA
ATOM     12  N   UNL     1       6.868   7.039  17.747  0.00  0.00    +0.000 N 
ATOM     13  H   UNL     1       9.401   7.830  19.541  0.00  0.00    +0.000 HD
ATOM     14  H   UNL     1       6.856   7.914  17.225  0.00  0.00    +0.000 HD
BRANCH   8  15
ATOM     15  C   UNL     1       9.491  10.300  18.932  0.00  0.00    +0.000 C 
ATOM     16 CL   UNL     1       9.683  11.688  17.837  0.00  0.00    +0.000 Cl
ENDBRANCH   8  15
ENDBRANCH   1  12
BRANCH   4  17
ATOM     17  O   UNL     1       2.894   3.250  16.779  0.00  0.00    +0.000 OA
BRANCH  17  18
ATOM     18  C   UNL     1       2.992   2.140  17.678  0.00  0.00    +0.000 C 
BRANCH  18  19
ATOM     19  C   UNL     1       2.465   2.530  19.032  0.00  0.00    +0.000 A 
ATOM     20  C   UNL     1       1.173   3.055  19.167  0.00  0.00    +0.000 A 
ATOM     21  C   UNL     1       0.672   3.365  20.430  0.00  0.00    +0.000 A 
ATOM     22  C   UNL     1       1.453   3.144  21.564  0.00  0.00    +0.000 A 
ATOM     23  C   UNL     1       2.731   2.609  21.440  0.00  0.00    +0.000 A 
ATOM     24  C   UNL     1       3.237   2.300  20.181  0.00  0.00    +0.000 A 
ENDBRANCH  18  19
ENDBRANCH  17  18
ENDBRANCH   4  17
TORSDOF 5
ENDMDL
MODEL 3
REMARK VINA RESULT:      -7.2      4.835      7.122
REMARK  Name = 
REMARK  5 active torsions:
REMARK  status: ('A' for Active; 'I' for Inactive)
REMARK    1  A    between atoms: C_2  and  C_3
REMARK    2  A    between atoms: N_8  and  C_9
REMARK    3  A    between atoms: C_12  and  O_13
REMARK    4  A    between atoms: O_13  and  C_14
REMARK    5  A    between atoms: C_14  and  C_15
REMARK                            x       y       z     vdW  Elec       q    Type
REMARK                         _______ _______ _______ _____ _____    ______ ____
ROOT
ATOM      1  C   UNL     1       2.813   6.798  18.233  0.00  0.00    +0.000 A 
ATOM      2  C   UNL     1       3.994   7.190  17.612  0.00  0.00    +0.000 A 
ATOM      3  C   UNL     1       4.783   6.265  16.936  0.00  0.00    +0.000 A 
ATOM      4  C   UNL     1       4.421   4.922  16.904  0.00  0.00    +0.000 A 
ATOM      5  C   UNL     1       3.220   4.523  17.487  0.00  0.00    +0.000 A 
ATOM      6  C   UNL     1       2.422   5.455  18.164  0.00  0.00    +0.000 A 
ENDROOT
BRANCH   1  12
ATOM      7  O   UNL     1       0.891   8.310  21.312  0.00  0.00    +0.000 OA
ATOM      8  C   UNL     1       0.620   9.391  20.787  0.00  0.00    +0.000 C 
ATOM      9  N   UNL     1       0.988   9.718  19.498  0.00  0.00    +0.000 N 
ATOM     10  C   UNL     1       1.664   8.971  18.566  0.00  0.00    +0.000 C 
ATOM     11  O   UNL     1       1.894   9.503  17.483  0.00  0.00    +0.000 OA
ATOM     12  N   UNL     1       2.012   7.702  18.954  0.00  0.00    +0.000 N 
ATOM     13  H   UNL     1       0.724  10.628  19.139  0.00  0.00    +0.000 HD
ATOM     14  H   UNL     1       1.610   7.376  19.831  0.00  0.00    +0.000 HD
BRANCH   8  15
ATOM     15  C   UNL     1      -0.059  10.503  21.559  0.00  0.00    +0.000 C 
ATOM     16 CL   UNL     1      -0.489   9.986  23.205  0.00  0.00    +0.000 Cl
ENDBRANCH   8  15
ENDBRANCH   1  12
BRANCH   4  17
ATOM     17  O   UNL     1       5.190   3.939  16.339  0.00  0.00    +0.000 OA
BRANCH  17  18
ATOM     18  C   UNL     1       6.518   4.363  16.013  0.00  0.00    +0.000 C 
BRANCH  18  19
ATOM     19  C   UNL     1       6.696   4.391  14.520  0.00  0.00    +0.000 A 
ATOM     20  C   UNL     1       7.623   5.261  13.931  0.00  0.00    +0.000 A 
ATOM     21  C   UNL     1       7.819   5.245  12.551  0.00  0.00    +0.000 A 
ATOM     22  C   UNL     1       7.099   4.354  11.755  0.00  0.00    +0.000 A 
ATOM     23  C   UNL     1       6.188   3.477  12.334  0.00  0.00    +0.000 A 
ATOM     24  C   UNL     1       5.986   3.492  13.710  0.00  0.00    +0.000 A 
ENDBRANCH  18  19
ENDBRANCH  17  18
ENDBRANCH   4  17
TORSDOF 5
ENDMDL
MODEL 4
REMARK VINA RESULT:      -7.0      3.514      8.802
REMARK  Name = 
REMARK  5 active torsions:
REMARK  status: ('A' for Active; 'I' for Inactive)
REMARK    1  A    between atoms: C_2  and  C_3
REMARK    2  A    between atoms: N_8  and  C_9
REMARK    3  A    between atoms: C_12  and  O_13
REMARK    4  A    between atoms: O_13  and  C_14
REMARK    5  A    between atoms: C_14  and  C_15
REMARK                            x       y       z     vdW  Elec       q    Type
REMARK                         _______ _______ _______ _____ _____    ______ ____
ROOT
ATOM      1  C   UNL     1       5.991   5.671  18.286  0.00  0.00    +0.000 A 
ATOM      2  C   UNL     1       7.234   5.680  18.911  0.00  0.00    +0.000 A 
ATOM      3  C   UNL     1       8.120   6.735  18.719  0.00  0.00    +0.000 A 
ATOM      4  C   UNL     1       7.791   7.782  17.863  0.00  0.00    +0.000 A 
ATOM      5  C   UNL     1       6.533   7.806  17.262  0.00  0.00    +0.000 A 
ATOM      6  C   UNL     1       5.639   6.744  17.460  0.00  0.00    +0.000 A 
ENDROOT
BRANCH   1  12
ATOM      7  O   UNL     1       3.239   3.433  19.981  0.00  0.00    +0.000 OA
ATOM      8  C   UNL     1       3.018   2.720  19.001  0.00  0.00    +0.000 C 
ATOM      9  N   UNL     1       3.679   2.866  17.798  0.00  0.00    +0.000 N 
ATOM     10  C   UNL     1       4.669   3.748  17.446  0.00  0.00    +0.000 C 
ATOM     11  O   UNL     1       5.082   3.692  16.290  0.00  0.00    +0.000 OA
ATOM     12  N   UNL     1       5.089   4.602  18.433  0.00  0.00    +0.000 N 
ATOM     13  H   UNL     1       3.440   2.236  17.040  0.00  0.00    +0.000 HD
ATOM     14  H   UNL     1       4.742   4.407  19.371  0.00  0.00    +0.000 HD
BRANCH   8  15
ATOM     15  C   UNL     1       1.919   1.679  19.003  0.00  0.00    +0.000 C 
ATOM     16 CL   UNL     1       0.313   2.427  18.843  0.00  0.00    +0.000 Cl
ENDBRANCH   8  15
ENDBRANCH   1  12
BRANCH   4  17
ATOM     17  O   UNL     1       8.643   8.807  17.551  0.00  0.00    +0.000 OA
BRANCH  17  18
ATOM     18  C   UNL     1       8.247  10.071  18.096  0.00  0.00    +0.000 C 
BRANCH  18  19
ATOM     19  C   UNL     1       9.439  10.769  18.691  0.00  0.00    +0.000 A 
ATOM     20  C   UNL     1      10.461  11.257  17.865  0.00  0.00    +0.000 A 
ATOM     21  C   UNL     1      11.537  11.948  18.419  0.00  0.00    +0.000 A 
ATOM     22  C   UNL     1      11.594  12.164  19.796  0.00  0.00    +0.000 A 
ATOM     23  C   UNL     1      10.576  11.695  20.620  0.00  0.00    +0.000 A 
ATOM     24  C   UNL     1       9.501  11.002  20.073  0.00  0.00    +0.000 A 
ENDBRANCH  18  19
ENDBRANCH  17  18
ENDBRANCH   4  17
TORSDOF 5
ENDMDL
MODEL 5
REMARK VINA RESULT:      -6.9      3.581      8.888
REMARK  Name = 
REMARK  5 active torsions:
REMARK  status: ('A' for Active; 'I' for Inactive)
REMARK    1  A    between atoms: C_2  and  C_3
REMARK    2  A    between atoms: N_8  and  C_9
REMARK    3  A    between atoms: C_12  and  O_13
REMARK    4  A    between atoms: O_13  and  C_14
REMARK    5  A    between atoms: C_14  and  C_15
REMARK                            x       y       z     vdW  Elec       q    Type
REMARK                         _______ _______ _______ _____ _____    ______ ____
ROOT
ATOM      1  C   UNL     1       5.750   5.767  18.098  0.00  0.00    +0.000 A 
ATOM      2  C   UNL     1       5.689   6.874  17.257  0.00  0.00    +0.000 A 
ATOM      3  C   UNL     1       6.732   7.794  17.216  0.00  0.00    +0.000 A 
ATOM      4  C   UNL     1       7.838   7.641  18.047  0.00  0.00    +0.000 A 
ATOM      5  C   UNL     1       7.930   6.515  18.864  0.00  0.00    +0.000 A 
ATOM      6  C   UNL     1       6.881   5.586  18.902  0.00  0.00    +0.000 A 
ENDROOT
BRANCH   1  12
ATOM      7  O   UNL     1       3.895   2.317  17.760  0.00  0.00    +0.000 OA
ATOM      8  C   UNL     1       2.892   2.638  18.400  0.00  0.00    +0.000 C 
ATOM      9  N   UNL     1       2.717   3.890  18.952  0.00  0.00    +0.000 N 
ATOM     10  C   UNL     1       3.538   4.989  18.905  0.00  0.00    +0.000 C 
ATOM     11  O   UNL     1       3.164   5.992  19.506  0.00  0.00    +0.000 OA
ATOM     12  N   UNL     1       4.697   4.839  18.187  0.00  0.00    +0.000 N 
ATOM     13  H   UNL     1       1.861   4.074  19.462  0.00  0.00    +0.000 HD
ATOM     14  H   UNL     1       4.773   3.988  17.632  0.00  0.00    +0.000 HD
BRANCH   8  15
ATOM     15  C   UNL     1       1.800   1.639  18.722  0.00  0.00    +0.000 C 
ATOM     16 CL   UNL     1       0.272   2.454  19.130  0.00  0.00    +0.000 Cl
ENDBRANCH   8  15
ENDBRANCH   1  12
BRANCH   4  17
ATOM     17  O   UNL     1       8.859   8.549  18.131  0.00  0.00    +0.000 OA
BRANCH  17  18
ATOM     18  C   UNL     1       8.415   9.907  18.235  0.00  0.00    +0.000 C 
BRANCH  18  19
ATOM     19  C   UNL     1       9.528  10.772  18.759  0.00  0.00    +0.000 A 
ATOM     20  C   UNL     1       9.621  11.057  20.128  0.00  0.00    +0.000 A 
ATOM     21  C   UNL     1      10.684  11.816  20.614  0.00  0.00    +0.000 A 
ATOM     22  C   UNL     1      11.664  12.285  19.739  0.00  0.00    +0.000 A 
ATOM     23  C   UNL     1      11.586  11.994  18.380  0.00  0.00    +0.000 A 
ATOM     24  C   UNL     1      10.525  11.239  17.890  0.00  0.00    +0.000 A 
ENDBRANCH  18  19
ENDBRANCH  17  18
ENDBRANCH   4  17
TORSDOF 5
ENDMDL
MODEL 6
REMARK VINA RESULT:      -6.8      3.524      8.813
REMARK  Name = 
REMARK  5 active torsions:
REMARK  status: ('A' for Active; 'I' for Inactive)
REMARK    1  A    between atoms: C_2  and  C_3
REMARK    2  A    between atoms: N_8  and  C_9
REMARK    3  A    between atoms: C_12  and  O_13
REMARK    4  A    between atoms: O_13  and  C_14
REMARK    5  A    between atoms: C_14  and  C_15
REMARK                            x       y       z     vdW  Elec       q    Type
REMARK                         _______ _______ _______ _____ _____    ______ ____
ROOT
ATOM      1  C   UNL     1       6.014   5.555  18.345  0.00  0.00    +0.000 A 
ATOM      2  C   UNL     1       5.807   6.603  17.454  0.00  0.00    +0.000 A 
ATOM      3  C   UNL     1       6.759   7.607  17.303  0.00  0.00    +0.000 A 
ATOM      4  C   UNL     1       7.918   7.598  18.073  0.00  0.00    +0.000 A 
ATOM      5  C   UNL     1       8.156   6.533  18.940  0.00  0.00    +0.000 A 
ATOM      6  C   UNL     1       7.199   5.520  19.089  0.00  0.00    +0.000 A 
ENDROOT
BRANCH   1  12
ATOM      7  O   UNL     1       3.346   3.392  20.259  0.00  0.00    +0.000 OA
ATOM      8  C   UNL     1       2.934   2.779  19.273  0.00  0.00    +0.000 C 
ATOM      9  N   UNL     1       3.432   2.973  18.001  0.00  0.00    +0.000 N 
ATOM     10  C   UNL     1       4.434   3.807  17.572  0.00  0.00    +0.000 C 
ATOM     11  O   UNL     1       4.677   3.815  16.368  0.00  0.00    +0.000 OA
ATOM     12  N   UNL     1       5.055   4.546  18.546  0.00  0.00    +0.000 N 
ATOM     13  H   UNL     1       3.040   2.425  17.243  0.00  0.00    +0.000 HD
ATOM     14  H   UNL     1       4.826   4.302  19.508  0.00  0.00    +0.000 HD
BRANCH   8  15
ATOM     15  C   UNL     1       1.763   1.823  19.361  0.00  0.00    +0.000 C 
ATOM     16 CL   UNL     1       0.262   2.574  18.771  0.00  0.00    +0.000 Cl
ENDBRANCH   8  15
ENDBRANCH   1  12
BRANCH   4  17
ATOM     17  O   UNL     1       8.856   8.595  18.049  0.00  0.00    +0.000 OA
BRANCH  17  18
ATOM     18  C   UNL     1       8.296   9.913  18.079  0.00  0.00    +0.000 C 
BRANCH  18  19
ATOM     19  C   UNL     1       9.268  10.869  18.715  0.00  0.00    +0.000 A 
ATOM     20  C   UNL     1       9.441  10.885  20.105  0.00  0.00    +0.000 A 
ATOM     21  C   UNL     1      10.381  11.736  20.683  0.00  0.00    +0.000 A 
ATOM     22  C   UNL     1      11.158  12.567  19.877  0.00  0.00    +0.000 A 
ATOM     23  C   UNL     1      11.003  12.547  18.495  0.00  0.00    +0.000 A 
ATOM     24  C   UNL     1      10.063  11.701  17.913  0.00  0.00    +0.000 A 
ENDBRANCH  18  19
ENDBRANCH  17  18
ENDBRANCH   4  17
TORSDOF 5
ENDMDL
MODEL 7
REMARK VINA RESULT:      -6.8      4.164      5.417
REMARK  Name = 
REMARK  5 active torsions:
REMARK  status: ('A' for Active; 'I' for Inactive)
REMARK    1  A    between atoms: C_2  and  C_3
REMARK    2  A    between atoms: N_8  and  C_9
REMARK    3  A    between atoms: C_12  and  O_13
REMARK    4  A    between atoms: O_13  and  C_14
REMARK    5  A    between atoms: C_14  and  C_15
REMARK                            x       y       z     vdW  Elec       q    Type
REMARK                         _______ _______ _______ _____ _____    ______ ____
ROOT
ATOM      1  C   UNL     1       5.336   5.020  16.243  0.00  0.00    +0.000 A 
ATOM      2  C   UNL     1       4.738   6.275  16.304  0.00  0.00    +0.000 A 
ATOM      3  C   UNL     1       4.212   6.756  17.498  0.00  0.00    +0.000 A 
ATOM      4  C   UNL     1       4.240   5.970  18.646  0.00  0.00    +0.000 A 
ATOM      5  C   UNL     1       4.871   4.727  18.610  0.00  0.00    +0.000 A 
ATOM      6  C   UNL     1       5.406   4.245  17.407  0.00  0.00    +0.000 A 
ENDROOT
BRANCH   1  12
ATOM      7  O   UNL     1       5.355   3.004  12.868  0.00  0.00    +0.000 OA
ATOM      8  C   UNL     1       6.440   3.424  12.463  0.00  0.00    +0.000 C 
ATOM      9  N   UNL     1       7.217   4.316  13.174  0.00  0.00    +0.000 N 
ATOM     10  C   UNL     1       6.994   4.881  14.405  0.00  0.00    +0.000 C 
ATOM     11  O   UNL     1       7.836   5.675  14.815  0.00  0.00    +0.000 OA
ATOM     12  N   UNL     1       5.845   4.492  15.043  0.00  0.00    +0.000 N 
ATOM     13  H   UNL     1       8.099   4.611  12.772  0.00  0.00    +0.000 HD
ATOM     14  H   UNL     1       5.340   3.714  14.622  0.00  0.00    +0.000 HD
BRANCH   8  15
ATOM     15  C   UNL     1       6.969   3.070  11.090  0.00  0.00    +0.000 C 
ATOM     16 CL   UNL     1       6.929   1.314  10.808  0.00  0.00    +0.000 Cl
ENDBRANCH   8  15
ENDBRANCH   1  12
BRANCH   4  17
ATOM     17  O   UNL     1       3.663   6.333  19.833  0.00  0.00    +0.000 OA
BRANCH  17  18
ATOM     18  C   UNL     1       2.232   6.260  19.824  0.00  0.00    +0.000 C 
BRANCH  18  19
ATOM     19  C   UNL     1       1.793   4.822  19.846  0.00  0.00    +0.000 A 
ATOM     20  C   UNL     1       1.382   4.187  18.667  0.00  0.00    +0.000 A 
ATOM     21  C   UNL     1       1.025   2.840  18.685  0.00  0.00    +0.000 A 
ATOM     22  C   UNL     1       1.087   2.118  19.877  0.00  0.00    +0.000 A 
ATOM     23  C   UNL     1       1.508   2.737  21.050  0.00  0.00    +0.000 A 
ATOM     24  C   UNL     1       1.862   4.083  21.037  0.00  0.00    +0.000 A 
ENDBRANCH  18  19
ENDBRANCH  17  18
ENDBRANCH   4  17
TORSDOF 5
ENDMDL
MODEL 8
REMARK VINA RESULT:      -6.8      4.736      7.004
REMARK  Name = 
REMARK  5 active torsions:
REMARK  status: ('A' for Active; 'I' for Inactive)
REMARK    1  A    between atoms: C_2  and  C_3
REMARK    2  A    between atoms: N_8  and  C_9
REMARK    3  A    between atoms: C_12  and  O_13
REMARK    4  A    between atoms: O_13  and  C_14
REMARK    5  A    between atoms: C_14  and  C_15
REMARK                            x       y       z     vdW  Elec       q    Type
REMARK                         _______ _______ _______ _____ _____    ______ ____
ROOT
ATOM      1  C   UNL     1       2.784   6.788  18.381  0.00  0.00    +0.000 A 
ATOM      2  C   UNL     1       2.366   5.461  18.370  0.00  0.00    +0.000 A 
ATOM      3  C   UNL     1       3.092   4.493  17.685  0.00  0.00    +0.000 A 
ATOM      4  C   UNL     1       4.230   4.844  16.967  0.00  0.00    +0.000 A 
ATOM      5  C   UNL     1       4.683   6.162  17.002  0.00  0.00    +0.000 A 
ATOM      6  C   UNL     1       3.954   7.138  17.696  0.00  0.00    +0.000 A 
ENDROOT
BRANCH   1  12
ATOM      7  O   UNL     1       1.087   8.708  21.363  0.00  0.00    +0.000 OA
ATOM      8  C   UNL     1       0.816   9.731  20.732  0.00  0.00    +0.000 C 
ATOM      9  N   UNL     1       1.118   9.895  19.395  0.00  0.00    +0.000 N 
ATOM     10  C   UNL     1       1.718   9.023  18.521  0.00  0.00    +0.000 C 
ATOM     11  O   UNL     1       1.900   9.420  17.373  0.00  0.00    +0.000 OA
ATOM     12  N   UNL     1       2.052   7.796  19.034  0.00  0.00    +0.000 N 
ATOM     13  H   UNL     1       0.859  10.767  18.948  0.00  0.00    +0.000 HD
ATOM     14  H   UNL     1       1.693   7.587  19.964  0.00  0.00    +0.000 HD
BRANCH   8  15
ATOM     15  C   UNL     1       0.215  10.947  21.404  0.00  0.00    +0.000 C 
ATOM     16 CL   UNL     1      -0.494  12.065  20.216  0.00  0.00    +0.000 Cl
ENDBRANCH   8  15
ENDBRANCH   1  12
BRANCH   4  17
ATOM     17  O   UNL     1       4.945   3.967  16.195  0.00  0.00    +0.000 OA
BRANCH  17  18
ATOM     18  C   UNL     1       6.294   4.382  15.952  0.00  0.00    +0.000 C 
BRANCH  18  19
ATOM     19  C   UNL     1       6.570   4.391  14.473  0.00  0.00    +0.000 A 
ATOM     20  C   UNL     1       7.549   5.238  13.939  0.00  0.00    +0.000 A 
ATOM     21  C   UNL     1       7.836   5.205  12.576  0.00  0.00    +0.000 A 
ATOM     22  C   UNL     1       7.153   4.319  11.741  0.00  0.00    +0.000 A 
ATOM     23  C   UNL     1       6.190   3.464  12.267  0.00  0.00    +0.000 A 
ATOM     24  C   UNL     1       5.898   3.497  13.627  0.00  0.00    +0.000 A 
ENDBRANCH  18  19
ENDBRANCH  17  18
ENDBRANCH   4  17
TORSDOF 5
ENDMDL
MODEL 9
REMARK VINA RESULT:      -6.8      5.221      6.440
REMARK  Name = 
REMARK  5 active torsions:
REMARK  status: ('A' for Active; 'I' for Inactive)
REMARK    1  A    between atoms: C_2  and  C_3
REMARK    2  A    between atoms: N_8  and  C_9
REMARK    3  A    between atoms: C_12  and  O_13
REMARK    4  A    between atoms: O_13  and  C_14
REMARK    5  A    between atoms: C_14  and  C_15
REMARK                            x       y       z     vdW  Elec       q    Type
REMARK                         _______ _______ _______ _____ _____    ______ ____
ROOT
ATOM      1  C   UNL     1       3.882   6.358  17.935  0.00  0.00    +0.000 A 
ATOM      2  C   UNL     1       3.187   7.555  17.786  0.00  0.00    +0.000 A 
ATOM      3  C   UNL     1       2.286   7.979  18.757  0.00  0.00    +0.000 A 
ATOM      4  C   UNL     1       2.035   7.191  19.876  0.00  0.00    +0.000 A 
ATOM      5  C   UNL     1       2.753   6.010  20.057  0.00  0.00    +0.000 A 
ATOM      6  C   UNL     1       3.665   5.585  19.081  0.00  0.00    +0.000 A 
ENDROOT
BRANCH   1  12
ATOM      7  O   UNL     1       5.080   4.420  14.731  0.00  0.00    +0.000 OA
ATOM      8  C   UNL     1       6.211   4.908  14.690  0.00  0.00    +0.000 C 
ATOM      9  N   UNL     1       6.671   5.826  15.612  0.00  0.00    +0.000 N 
ATOM     10  C   UNL     1       6.039   6.351  16.712  0.00  0.00    +0.000 C 
ATOM     11  O   UNL     1       6.661   7.181  17.370  0.00  0.00    +0.000 OA
ATOM     12  N   UNL     1       4.773   5.885  16.954  0.00  0.00    +0.000 N 
ATOM     13  H   UNL     1       7.615   6.177  15.509  0.00  0.00    +0.000 HD
ATOM     14  H   UNL     1       4.473   5.089  16.393  0.00  0.00    +0.000 HD
BRANCH   8  15
ATOM     15  C   UNL     1       7.165   4.613  13.552  0.00  0.00    +0.000 C 
ATOM     16 CL   UNL     1       6.416   3.562  12.328  0.00  0.00    +0.000 Cl
ENDBRANCH   8  15
ENDBRANCH   1  12
BRANCH   4  17
ATOM     17  O   UNL     1       1.097   7.495  20.827  0.00  0.00    +0.000 OA
BRANCH  17  18
ATOM     18  C   UNL     1       1.512   8.520  21.737  0.00  0.00    +0.000 C 
BRANCH  18  19
ATOM     19  C   UNL     1       0.443   9.573  21.844  0.00  0.00    +0.000 A 
ATOM     20  C   UNL     1      -0.239   9.771  23.052  0.00  0.00    +0.000 A 
ATOM     21  C   UNL     1      -1.192  10.783  23.159  0.00  0.00    +0.000 A 
ATOM     22  C   UNL     1      -1.460  11.607  22.066  0.00  0.00    +0.000 A 
ATOM     23  C   UNL     1      -0.775  11.426  20.868  0.00  0.00    +0.000 A 
ATOM     24  C   UNL     1       0.174  10.415  20.756  0.00  0.00    +0.000 A 
ENDBRANCH  18  19
ENDBRANCH  17  18
ENDBRANCH   4  17
TORSDOF 5
ENDMDL
