MODEL 1
REMARK VINA RESULT:      -7.1      0.000      0.000
REMARK  Name = 
REMARK  5 active torsions:
REMARK  status: ('A' for Active; 'I' for Inactive)
REMARK    1  A    between atoms: C_1  and  N_2
REMARK    2  A    between atoms: N_2  and  C_3
REMARK    3  A    between atoms: C_3  and  C_4
REMARK    4  A    between atoms: C_10  and  O_11
REMARK    5  A    between atoms: O_11  and  C_12
REMARK                            x       y       z     vdW  Elec       q    Type
REMARK                         _______ _______ _______ _____ _____    ______ ____
ROOT
ATOM      1  C   UNL     1       6.269   5.161  16.438  0.00  0.00    +0.000 A 
ATOM      2  C   UNL     1       7.182   6.142  16.871  0.00  0.00    +0.000 A 
ATOM      3  C   UNL     1       7.439   6.318  18.224  0.00  0.00    +0.000 A 
ATOM      4  F   UNL     1       8.337   7.231  18.614  0.00  0.00    +0.000 F 
ATOM      5  C   UNL     1       6.772   5.565  19.178  0.00  0.00    +0.000 A 
ATOM      6  C   UNL     1       5.851   4.604  18.771  0.00  0.00    +0.000 A 
ATOM      7  C   UNL     1       5.637   4.354  17.403  0.00  0.00    +0.000 A 
ENDROOT
BRANCH   1   8
ATOM      8  C   UNL     1       6.002   5.032  14.954  0.00  0.00    +0.000 C 
BRANCH   8  10
ATOM      9  C   UNL     1       6.195   3.662  12.966  0.00  0.00    +0.000 C 
ATOM     10  N   UNL     1       6.277   3.691  14.421  0.00  0.00    +0.000 NA
ATOM     11  H   UNL     1       7.222   3.426  14.700  0.00  0.00    +0.000 HD
ENDBRANCH   8  10
ENDBRANCH   1   8
BRANCH   7  12
ATOM     12  O   UNL     1       4.786   3.354  16.976  0.00  0.00    +0.000 OA
BRANCH  12  13
ATOM     13  C   UNL     1       3.580   3.174  17.631  0.00  0.00    +0.000 A 
ATOM     14  C   UNL     1       2.609   4.158  17.443  0.00  0.00    +0.000 A 
ATOM     15  C   UNL     1       1.371   4.047  18.080  0.00  0.00    +0.000 A 
ATOM     16  C   UNL     1       1.098   2.955  18.904  0.00  0.00    +0.000 A 
ATOM     17  C   UNL     1       2.058   1.957  19.071  0.00  0.00    +0.000 A 
ATOM     18  C   UNL     1       3.288   2.053  18.417  0.00  0.00    +0.000 A 
ENDBRANCH  12  13
ENDBRANCH   7  12
TORSDOF 4
ENDMDL
MODEL 2
REMARK VINA RESULT:      -7.1      0.121      1.174
REMARK  Name = 
REMARK  5 active torsions:
REMARK  status: ('A' for Active; 'I' for Inactive)
REMARK    1  A    between atoms: C_1  and  N_2
REMARK    2  A    between atoms: N_2  and  C_3
REMARK    3  A    between atoms: C_3  and  C_4
REMARK    4  A    between atoms: C_10  and  O_11
REMARK    5  A    between atoms: O_11  and  C_12
REMARK                            x       y       z     vdW  Elec       q    Type
REMARK                         _______ _______ _______ _____ _____    ______ ____
ROOT
ATOM      1  C   UNL     1       6.340   5.192  16.420  0.00  0.00    +0.000 A 
ATOM      2  C   UNL     1       7.256   6.157  16.880  0.00  0.00    +0.000 A 
ATOM      3  C   UNL     1       7.479   6.327  18.240  0.00  0.00    +0.000 A 
ATOM      4  F   UNL     1       8.381   7.225  18.656  0.00  0.00    +0.000 F 
ATOM      5  C   UNL     1       6.774   5.584  19.174  0.00  0.00    +0.000 A 
ATOM      6  C   UNL     1       5.849   4.638  18.739  0.00  0.00    +0.000 A 
ATOM      7  C   UNL     1       5.669   4.394  17.366  0.00  0.00    +0.000 A 
ENDROOT
BRANCH   1   8
ATOM      8  C   UNL     1       6.113   5.070  14.929  0.00  0.00    +0.000 C 
BRANCH   8  10
ATOM      9  C   UNL     1       6.074   3.636  12.977  0.00  0.00    +0.000 C 
ATOM     10  N   UNL     1       6.348   3.718  14.406  0.00  0.00    +0.000 NA
ATOM     11  H   UNL     1       7.328   3.483  14.564  0.00  0.00    +0.000 HD
ENDBRANCH   8  10
ENDBRANCH   1   8
BRANCH   7  12
ATOM     12  O   UNL     1       4.814   3.409  16.913  0.00  0.00    +0.000 OA
BRANCH  12  13
ATOM     13  C   UNL     1       3.574   3.270  17.513  0.00  0.00    +0.000 A 
ATOM     14  C   UNL     1       3.342   2.084  18.211  0.00  0.00    +0.000 A 
ATOM     15  C   UNL     1       2.111   1.871  18.835  0.00  0.00    +0.000 A 
ATOM     16  C   UNL     1       1.109   2.838  18.766  0.00  0.00    +0.000 A 
ATOM     17  C   UNL     1       1.349   4.036  18.091  0.00  0.00    +0.000 A 
ATOM     18  C   UNL     1       2.587   4.262  17.486  0.00  0.00    +0.000 A 
ENDBRANCH  12  13
ENDBRANCH   7  12
TORSDOF 4
ENDMDL
MODEL 3
REMARK VINA RESULT:      -6.8      3.748      6.196
REMARK  Name = 
REMARK  5 active torsions:
REMARK  status: ('A' for Active; 'I' for Inactive)
REMARK    1  A    between atoms: C_1  and  N_2
REMARK    2  A    between atoms: N_2  and  C_3
REMARK    3  A    between atoms: C_3  and  C_4
REMARK    4  A    between atoms: C_10  and  O_11
REMARK    5  A    between atoms: O_11  and  C_12
REMARK                            x       y       z     vdW  Elec       q    Type
REMARK                         _______ _______ _______ _____ _____    ______ ____
ROOT
ATOM      1  C   UNL     1       2.165   5.346  19.670  0.00  0.00    +0.000 A 
ATOM      2  C   UNL     1       1.540   4.660  20.730  0.00  0.00    +0.000 A 
ATOM      3  C   UNL     1       1.334   3.289  20.658  0.00  0.00    +0.000 A 
ATOM      4  F   UNL     1       0.770   2.649  21.691  0.00  0.00    +0.000 F 
ATOM      5  C   UNL     1       1.695   2.574  19.527  0.00  0.00    +0.000 A 
ATOM      6  C   UNL     1       2.297   3.237  18.461  0.00  0.00    +0.000 A 
ATOM      7  C   UNL     1       2.589   4.610  18.547  0.00  0.00    +0.000 A 
ENDROOT
BRANCH   1   8
ATOM      8  C   UNL     1       2.338   6.845  19.787  0.00  0.00    +0.000 C 
BRANCH   8  10
ATOM      9  C   UNL     1       1.101   8.620  20.876  0.00  0.00    +0.000 C 
ATOM     10  N   UNL     1       1.865   7.393  21.065  0.00  0.00    +0.000 NA
ATOM     11  H   UNL     1       1.262   6.698  21.505  0.00  0.00    +0.000 HD
ENDBRANCH   8  10
ENDBRANCH   1   8
BRANCH   7  12
ATOM     12  O   UNL     1       3.254   5.273  17.534  0.00  0.00    +0.000 OA
BRANCH  12  13
ATOM     13  C   UNL     1       4.613   5.066  17.377  0.00  0.00    +0.000 A 
ATOM     14  C   UNL     1       5.023   4.449  16.194  0.00  0.00    +0.000 A 
ATOM     15  C   UNL     1       6.379   4.200  15.970  0.00  0.00    +0.000 A 
ATOM     16  C   UNL     1       7.329   4.567  16.922  0.00  0.00    +0.000 A 
ATOM     17  C   UNL     1       6.923   5.209  18.093  0.00  0.00    +0.000 A 
ATOM     18  C   UNL     1       5.571   5.480  18.309  0.00  0.00    +0.000 A 
ENDBRANCH  12  13
ENDBRANCH   7  12
TORSDOF 4
ENDMDL
MODEL 4
REMARK VINA RESULT:      -6.7      3.740      6.184
REMARK  Name = 
REMARK  5 active torsions:
REMARK  status: ('A' for Active; 'I' for Inactive)
REMARK    1  A    between atoms: C_1  and  N_2
REMARK    2  A    between atoms: N_2  and  C_3
REMARK    3  A    between atoms: C_3  and  C_4
REMARK    4  A    between atoms: C_10  and  O_11
REMARK    5  A    between atoms: O_11  and  C_12
REMARK                            x       y       z     vdW  Elec       q    Type
REMARK                         _______ _______ _______ _____ _____    ______ ____
ROOT
ATOM      1  C   UNL     1       2.144   5.305  19.674  0.00  0.00    +0.000 A 
ATOM      2  C   UNL     1       1.552   4.621  20.753  0.00  0.00    +0.000 A 
ATOM      3  C   UNL     1       1.400   3.241  20.716  0.00  0.00    +0.000 A 
ATOM      4  F   UNL     1       0.867   2.604  21.766  0.00  0.00    +0.000 F 
ATOM      5  C   UNL     1       1.785   2.514  19.600  0.00  0.00    +0.000 A 
ATOM      6  C   UNL     1       2.355   3.175  18.515  0.00  0.00    +0.000 A 
ATOM      7  C   UNL     1       2.592   4.560  18.567  0.00  0.00    +0.000 A 
ENDROOT
BRANCH   1   8
ATOM      8  C   UNL     1       2.257   6.812  19.755  0.00  0.00    +0.000 C 
BRANCH   8  10
ATOM      9  C   UNL     1       1.153   8.635  20.905  0.00  0.00    +0.000 C 
ATOM     10  N   UNL     1       1.849   7.364  21.054  0.00  0.00    +0.000 NA
ATOM     11  H   UNL     1       1.218   6.697  21.498  0.00  0.00    +0.000 HD
ENDBRANCH   8  10
ENDBRANCH   1   8
BRANCH   7  12
ATOM     12  O   UNL     1       3.224   5.225  17.535  0.00  0.00    +0.000 OA
BRANCH  12  13
ATOM     13  C   UNL     1       4.568   4.982  17.305  0.00  0.00    +0.000 A 
ATOM     14  C   UNL     1       5.450   5.299  18.339  0.00  0.00    +0.000 A 
ATOM     15  C   UNL     1       6.821   5.090  18.175  0.00  0.00    +0.000 A 
ATOM     16  C   UNL     1       7.315   4.561  16.983  0.00  0.00    +0.000 A 
ATOM     17  C   UNL     1       6.432   4.217  15.959  0.00  0.00    +0.000 A 
ATOM     18  C   UNL     1       5.059   4.405  16.128  0.00  0.00    +0.000 A 
ENDBRANCH  12  13
ENDBRANCH   7  12
TORSDOF 4
ENDMDL
MODEL 5
REMARK VINA RESULT:      -6.7      3.632      6.399
REMARK  Name = 
REMARK  5 active torsions:
REMARK  status: ('A' for Active; 'I' for Inactive)
REMARK    1  A    between atoms: C_1  and  N_2
REMARK    2  A    between atoms: N_2  and  C_3
REMARK    3  A    between atoms: C_3  and  C_4
REMARK    4  A    between atoms: C_10  and  O_11
REMARK    5  A    between atoms: O_11  and  C_12
REMARK                            x       y       z     vdW  Elec       q    Type
REMARK                         _______ _______ _______ _____ _____    ______ ____
ROOT
ATOM      1  C   UNL     1       2.006   4.566  19.924  0.00  0.00    +0.000 A 
ATOM      2  C   UNL     1       0.984   3.663  19.574  0.00  0.00    +0.000 A 
ATOM      3  C   UNL     1       1.252   2.580  18.748  0.00  0.00    +0.000 A 
ATOM      4  F   UNL     1       0.274   1.712  18.455  0.00  0.00    +0.000 F 
ATOM      5  C   UNL     1       2.516   2.389  18.214  0.00  0.00    +0.000 A 
ATOM      6  C   UNL     1       3.536   3.282  18.532  0.00  0.00    +0.000 A 
ATOM      7  C   UNL     1       3.305   4.338  19.432  0.00  0.00    +0.000 A 
ENDROOT
BRANCH   1   8
ATOM      8  C   UNL     1       1.652   5.746  20.802  0.00  0.00    +0.000 C 
BRANCH   8  10
ATOM      9  C   UNL     1       1.422   8.157  20.825  0.00  0.00    +0.000 C 
ATOM     10  N   UNL     1       2.181   7.025  20.311  0.00  0.00    +0.000 NA
ATOM     11  H   UNL     1       3.148   7.111  20.626  0.00  0.00    +0.000 HD
ENDBRANCH   8  10
ENDBRANCH   1   8
BRANCH   7  12
ATOM     12  O   UNL     1       4.320   5.190  19.822  0.00  0.00    +0.000 OA
BRANCH  12  13
ATOM     13  C   UNL     1       5.228   5.629  18.874  0.00  0.00    +0.000 A 
ATOM     14  C   UNL     1       6.576   5.370  19.127  0.00  0.00    +0.000 A 
ATOM     15  C   UNL     1       7.549   5.790  18.218  0.00  0.00    +0.000 A 
ATOM     16  C   UNL     1       7.183   6.467  17.056  0.00  0.00    +0.000 A 
ATOM     17  C   UNL     1       5.834   6.702  16.788  0.00  0.00    +0.000 A 
ATOM     18  C   UNL     1       4.856   6.263  17.683  0.00  0.00    +0.000 A 
ENDBRANCH  12  13
ENDBRANCH   7  12
TORSDOF 4
ENDMDL
MODEL 6
REMARK VINA RESULT:      -6.6      4.192      5.822
REMARK  Name = 
REMARK  5 active torsions:
REMARK  status: ('A' for Active; 'I' for Inactive)
REMARK    1  A    between atoms: C_1  and  N_2
REMARK    2  A    between atoms: N_2  and  C_3
REMARK    3  A    between atoms: C_3  and  C_4
REMARK    4  A    between atoms: C_10  and  O_11
REMARK    5  A    between atoms: O_11  and  C_12
REMARK                            x       y       z     vdW  Elec       q    Type
REMARK                         _______ _______ _______ _____ _____    ______ ____
ROOT
ATOM      1  C   UNL     1       2.703   4.481  18.340  0.00  0.00    +0.000 A 
ATOM      2  C   UNL     1       2.053   3.262  18.067  0.00  0.00    +0.000 A 
ATOM      3  C   UNL     1       1.079   2.774  18.928  0.00  0.00    +0.000 A 
ATOM      4  F   UNL     1       0.447   1.631  18.634  0.00  0.00    +0.000 F 
ATOM      5  C   UNL     1       0.758   3.451  20.094  0.00  0.00    +0.000 A 
ATOM      6  C   UNL     1       1.404   4.649  20.392  0.00  0.00    +0.000 A 
ATOM      7  C   UNL     1       2.333   5.200  19.492  0.00  0.00    +0.000 A 
ENDROOT
BRANCH   1   8
ATOM      8  C   UNL     1       3.779   4.950  17.384  0.00  0.00    +0.000 C 
BRANCH   8  10
ATOM      9  C   UNL     1       6.181   4.645  17.342  0.00  0.00    +0.000 C 
ATOM     10  N   UNL     1       5.057   5.254  18.041  0.00  0.00    +0.000 NA
ATOM     11  H   UNL     1       5.182   6.267  18.039  0.00  0.00    +0.000 HD
ENDBRANCH   8  10
ENDBRANCH   1   8
BRANCH   7  12
ATOM     12  O   UNL     1       2.930   6.423  19.729  0.00  0.00    +0.000 OA
BRANCH  12  13
ATOM     13  C   UNL     1       2.223   7.579  19.445  0.00  0.00    +0.000 A 
ATOM     14  C   UNL     1       1.571   8.196  20.513  0.00  0.00    +0.000 A 
ATOM     15  C   UNL     1       0.832   9.362  20.301  0.00  0.00    +0.000 A 
ATOM     16  C   UNL     1       0.742   9.916  19.024  0.00  0.00    +0.000 A 
ATOM     17  C   UNL     1       1.417   9.316  17.960  0.00  0.00    +0.000 A 
ATOM     18  C   UNL     1       2.175   8.163  18.174  0.00  0.00    +0.000 A 
ENDBRANCH  12  13
ENDBRANCH   7  12
TORSDOF 4
ENDMDL
MODEL 7
REMARK VINA RESULT:      -6.6      4.187      5.777
REMARK  Name = 
REMARK  5 active torsions:
REMARK  status: ('A' for Active; 'I' for Inactive)
REMARK    1  A    between atoms: C_1  and  N_2
REMARK    2  A    between atoms: N_2  and  C_3
REMARK    3  A    between atoms: C_3  and  C_4
REMARK    4  A    between atoms: C_10  and  O_11
REMARK    5  A    between atoms: O_11  and  C_12
REMARK                            x       y       z     vdW  Elec       q    Type
REMARK                         _______ _______ _______ _____ _____    ______ ____
ROOT
ATOM      1  C   UNL     1       2.712   4.486  18.282  0.00  0.00    +0.000 A 
ATOM      2  C   UNL     1       2.048   3.273  18.019  0.00  0.00    +0.000 A 
ATOM      3  C   UNL     1       1.075   2.798  18.888  0.00  0.00    +0.000 A 
ATOM      4  F   UNL     1       0.430   1.660  18.603  0.00  0.00    +0.000 F 
ATOM      5  C   UNL     1       0.768   3.482  20.054  0.00  0.00    +0.000 A 
ATOM      6  C   UNL     1       1.428   4.674  20.342  0.00  0.00    +0.000 A 
ATOM      7  C   UNL     1       2.357   5.213  19.434  0.00  0.00    +0.000 A 
ENDROOT
BRANCH   1   8
ATOM      8  C   UNL     1       3.785   4.942  17.318  0.00  0.00    +0.000 C 
BRANCH   8  10
ATOM      9  C   UNL     1       6.180   4.580  17.379  0.00  0.00    +0.000 C 
ATOM     10  N   UNL     1       5.054   5.291  17.971  0.00  0.00    +0.000 NA
ATOM     11  H   UNL     1       5.205   6.293  17.856  0.00  0.00    +0.000 HD
ENDBRANCH   8  10
ENDBRANCH   1   8
BRANCH   7  12
ATOM     12  O   UNL     1       2.967   6.432  19.662  0.00  0.00    +0.000 OA
BRANCH  12  13
ATOM     13  C   UNL     1       2.230   7.592  19.497  0.00  0.00    +0.000 A 
ATOM     14  C   UNL     1       2.183   8.130  18.210  0.00  0.00    +0.000 A 
ATOM     15  C   UNL     1       1.465   9.303  17.970  0.00  0.00    +0.000 A 
ATOM     16  C   UNL     1       0.791   9.942  19.010  0.00  0.00    +0.000 A 
ATOM     17  C   UNL     1       0.813   9.390  20.292  0.00  0.00    +0.000 A 
ATOM     18  C   UNL     1       1.512   8.204  20.530  0.00  0.00    +0.000 A 
ENDBRANCH  12  13
ENDBRANCH   7  12
TORSDOF 4
ENDMDL
MODEL 8
REMARK VINA RESULT:      -6.6      3.538      5.758
REMARK  Name = 
REMARK  5 active torsions:
REMARK  status: ('A' for Active; 'I' for Inactive)
REMARK    1  A    between atoms: C_1  and  N_2
REMARK    2  A    between atoms: N_2  and  C_3
REMARK    3  A    between atoms: C_3  and  C_4
REMARK    4  A    between atoms: C_10  and  O_11
REMARK    5  A    between atoms: O_11  and  C_12
REMARK                            x       y       z     vdW  Elec       q    Type
REMARK                         _______ _______ _______ _____ _____    ______ ____
ROOT
ATOM      1  C   UNL     1       2.555   5.590  19.932  0.00  0.00    +0.000 A 
ATOM      2  C   UNL     1       1.538   4.823  20.532  0.00  0.00    +0.000 A 
ATOM      3  C   UNL     1       1.720   3.466  20.763  0.00  0.00    +0.000 A 
ATOM      4  F   UNL     1       0.754   2.761  21.366  0.00  0.00    +0.000 F 
ATOM      5  C   UNL     1       2.885   2.828  20.368  0.00  0.00    +0.000 A 
ATOM      6  C   UNL     1       3.896   3.565  19.755  0.00  0.00    +0.000 A 
ATOM      7  C   UNL     1       3.764   4.955  19.587  0.00  0.00    +0.000 A 
ENDROOT
BRANCH   1   8
ATOM      8  C   UNL     1       2.292   7.058  19.676  0.00  0.00    +0.000 C 
BRANCH   8  10
ATOM      9  C   UNL     1       2.039   8.830  18.044  0.00  0.00    +0.000 C 
ATOM     10  N   UNL     1       2.420   7.441  18.263  0.00  0.00    +0.000 NA
ATOM     11  H   UNL     1       3.396   7.323  17.990  0.00  0.00    +0.000 HD
ENDBRANCH   8  10
ENDBRANCH   1   8
BRANCH   7  12
ATOM     12  O   UNL     1       4.783   5.719  19.052  0.00  0.00    +0.000 OA
BRANCH  12  13
ATOM     13  C   UNL     1       5.392   5.298  17.883  0.00  0.00    +0.000 A 
ATOM     14  C   UNL     1       6.738   4.939  17.968  0.00  0.00    +0.000 A 
ATOM     15  C   UNL     1       7.420   4.513  16.827  0.00  0.00    +0.000 A 
ATOM     16  C   UNL     1       6.763   4.441  15.599  0.00  0.00    +0.000 A 
ATOM     17  C   UNL     1       5.411   4.774  15.517  0.00  0.00    +0.000 A 
ATOM     18  C   UNL     1       4.720   5.179  16.661  0.00  0.00    +0.000 A 
ENDBRANCH  12  13
ENDBRANCH   7  12
TORSDOF 4
ENDMDL
MODEL 9
REMARK VINA RESULT:      -6.6      3.373      5.881
REMARK  Name = 
REMARK  5 active torsions:
REMARK  status: ('A' for Active; 'I' for Inactive)
REMARK    1  A    between atoms: C_1  and  N_2
REMARK    2  A    between atoms: N_2  and  C_3
REMARK    3  A    between atoms: C_3  and  C_4
REMARK    4  A    between atoms: C_10  and  O_11
REMARK    5  A    between atoms: O_11  and  C_12
REMARK                            x       y       z     vdW  Elec       q    Type
REMARK                         _______ _______ _______ _____ _____    ______ ____
ROOT
ATOM      1  C   UNL     1       2.481   5.591  19.428  0.00  0.00    +0.000 A 
ATOM      2  C   UNL     1       1.709   4.951  20.416  0.00  0.00    +0.000 A 
ATOM      3  C   UNL     1       1.675   3.565  20.497  0.00  0.00    +0.000 A 
ATOM      4  F   UNL     1       0.963   2.975  21.466  0.00  0.00    +0.000 F 
ATOM      5  C   UNL     1       2.361   2.782  19.582  0.00  0.00    +0.000 A 
ATOM      6  C   UNL     1       3.115   3.397  18.584  0.00  0.00    +0.000 A 
ATOM      7  C   UNL     1       3.228   4.797  18.536  0.00  0.00    +0.000 A 
ENDROOT
BRANCH   1   8
ATOM      8  C   UNL     1       2.458   7.103  19.365  0.00  0.00    +0.000 C 
BRANCH   8  10
ATOM      9  C   UNL     1       1.924   9.051  18.029  0.00  0.00    +0.000 C 
ATOM     10  N   UNL     1       2.258   7.633  18.010  0.00  0.00    +0.000 NA
ATOM     11  H   UNL     1       3.127   7.509  17.490  0.00  0.00    +0.000 HD
ENDBRANCH   8  10
ENDBRANCH   1   8
BRANCH   7  12
ATOM     12  O   UNL     1       4.030   5.426  17.604  0.00  0.00    +0.000 OA
BRANCH  12  13
ATOM     13  C   UNL     1       5.322   5.776  17.959  0.00  0.00    +0.000 A 
ATOM     14  C   UNL     1       5.948   6.749  17.178  0.00  0.00    +0.000 A 
ATOM     15  C   UNL     1       7.254   7.145  17.471  0.00  0.00    +0.000 A 
ATOM     16  C   UNL     1       7.939   6.575  18.544  0.00  0.00    +0.000 A 
ATOM     17  C   UNL     1       7.305   5.622  19.342  0.00  0.00    +0.000 A 
ATOM     18  C   UNL     1       5.991   5.240  19.065  0.00  0.00    +0.000 A 
ENDBRANCH  12  13
ENDBRANCH   7  12
TORSDOF 4
ENDMDL
