MODEL 1
REMARK VINA RESULT:      -8.8      0.000      0.000
REMARK  Name = 
REMARK  5 active torsions:
REMARK  status: ('A' for Active; 'I' for Inactive)
REMARK    1  A    between atoms: C_1  and  N_2
REMARK    2  A    between atoms: N_2  and  C_3
REMARK    3  A    between atoms: C_8  and  N_9
REMARK    4  A    between atoms: C_14  and  C_15
REMARK    5  A    between atoms: N_29  and  C_30
REMARK                            x       y       z     vdW  Elec       q    Type
REMARK                         _______ _______ _______ _____ _____    ______ ____
ROOT
ATOM      1  N   UNL     1       0.167  10.074  20.732  0.00  0.00    +0.000 N 
ATOM      2  C   UNL     1       0.381   9.038  21.637  0.00  0.00    +0.000 A 
ATOM      3  N   UNL     1       1.043   7.935  21.434  0.00  0.00    +0.000 NA
ATOM      4  C   UNL     1       1.613   7.852  20.158  0.00  0.00    +0.000 A 
ATOM      5  C   UNL     1       2.406   6.774  19.702  0.00  0.00    +0.000 A 
ATOM      6  C   UNL     1       2.888   6.998  18.412  0.00  0.00    +0.000 A 
ATOM      7  S   UNL     1       2.317   8.518  17.811  0.00  0.00    +0.000 S 
ATOM      8  C   UNL     1       1.459   8.832  19.224  0.00  0.00    +0.000 A 
ATOM      9  C   UNL     1       0.687  10.018  19.434  0.00  0.00    +0.000 A 
ATOM     10  O   UNL     1       0.529  10.890  18.580  0.00  0.00    +0.000 OA
ENDROOT
BRANCH   1  18
ATOM     11  C   UNL     1      -3.565  16.256  24.751  0.00  0.00    +0.000 C 
ATOM     12  N   UNL     1      -2.235  15.708  24.531  0.00  0.00    +0.000 N 
ATOM     13  C   UNL     1      -1.339  15.754  25.689  0.00  0.00    +0.000 C 
ATOM     14  C   UNL     1      -2.018  14.675  23.659  0.00  0.00    +0.000 A 
ATOM     15  N   UNL     1      -1.126  13.715  23.825  0.00  0.00    +0.000 NA
ATOM     16  C   UNL     1      -1.179  12.927  22.705  0.00  0.00    +0.000 A 
ATOM     17  C   UNL     1      -0.436  11.778  22.384  0.00  0.00    +0.000 A 
ATOM     18  C   UNL     1      -0.614  11.197  21.118  0.00  0.00    +0.000 A 
ATOM     19  C   UNL     1      -1.539  11.736  20.215  0.00  0.00    +0.000 A 
ATOM     20  C   UNL     1      -2.326  12.841  20.548  0.00  0.00    +0.000 A 
ATOM     21  C   UNL     1      -2.112  13.419  21.803  0.00  0.00    +0.000 A 
ATOM     22  N   UNL     1      -2.661  14.511  22.443  0.00  0.00    +0.000 N 
ATOM     23  C   UNL     1      -3.686  15.346  21.868  0.00  0.00    +0.000 C 
ENDBRANCH   1  18
BRANCH   6  24
ATOM     24  C   UNL     1       3.803   6.203  17.578  0.00  0.00    +0.000 A 
ATOM     25  C   UNL     1       3.728   4.797  17.548  0.00  0.00    +0.000 A 
ATOM     26  C   UNL     1       4.494   4.044  16.653  0.00  0.00    +0.000 A 
ATOM     27  C   UNL     1       5.372   4.689  15.790  0.00  0.00    +0.000 A 
ATOM     28 CL   UNL     1       6.273   3.771  14.651  0.00  0.00    +0.000 Cl
ATOM     29  C   UNL     1       5.509   6.075  15.836  0.00  0.00    +0.000 A 
ATOM     30  C   UNL     1       4.731   6.828  16.728  0.00  0.00    +0.000 A 
ENDBRANCH   6  24
TORSDOF 2
ENDMDL
MODEL 2
REMARK VINA RESULT:      -8.7      1.880      2.953
REMARK  Name = 
REMARK  5 active torsions:
REMARK  status: ('A' for Active; 'I' for Inactive)
REMARK    1  A    between atoms: C_1  and  N_2
REMARK    2  A    between atoms: N_2  and  C_3
REMARK    3  A    between atoms: C_8  and  N_9
REMARK    4  A    between atoms: C_14  and  C_15
REMARK    5  A    between atoms: N_29  and  C_30
REMARK                            x       y       z     vdW  Elec       q    Type
REMARK                         _______ _______ _______ _____ _____    ______ ____
ROOT
ATOM      1  N   UNL     1      -0.862  11.250  22.208  0.00  0.00    +0.000 N 
ATOM      2  C   UNL     1      -0.587  10.242  23.128  0.00  0.00    +0.000 A 
ATOM      3  N   UNL     1       0.038   9.121  22.909  0.00  0.00    +0.000 NA
ATOM      4  C   UNL     1       0.497   8.984  21.593  0.00  0.00    +0.000 A 
ATOM      5  C   UNL     1       1.232   7.878  21.111  0.00  0.00    +0.000 A 
ATOM      6  C   UNL     1       1.607   8.050  19.778  0.00  0.00    +0.000 A 
ATOM      7  S   UNL     1       1.011   9.558  19.173  0.00  0.00    +0.000 S 
ATOM      8  C   UNL     1       0.279   9.935  20.642  0.00  0.00    +0.000 A 
ATOM      9  C   UNL     1      -0.454  11.142  20.873  0.00  0.00    +0.000 A 
ATOM     10  O   UNL     1      -0.671  11.987  20.005  0.00  0.00    +0.000 OA
ENDROOT
BRANCH   1  18
ATOM     11  C   UNL     1      -6.624  16.964  23.774  0.00  0.00    +0.000 C 
ATOM     12  N   UNL     1      -6.385  15.540  23.951  0.00  0.00    +0.000 N 
ATOM     13  C   UNL     1      -7.560  14.681  23.779  0.00  0.00    +0.000 C 
ATOM     14  C   UNL     1      -5.184  14.966  23.631  0.00  0.00    +0.000 A 
ATOM     15  N   UNL     1      -5.031  13.753  23.131  0.00  0.00    +0.000 NA
ATOM     16  C   UNL     1      -3.682  13.538  23.018  0.00  0.00    +0.000 A 
ATOM     17  C   UNL     1      -2.992  12.409  22.543  0.00  0.00    +0.000 A 
ATOM     18  C   UNL     1      -1.590  12.400  22.618  0.00  0.00    +0.000 A 
ATOM     19  C   UNL     1      -0.900  13.510  23.122  0.00  0.00    +0.000 A 
ATOM     20  C   UNL     1      -1.573  14.660  23.539  0.00  0.00    +0.000 A 
ATOM     21  C   UNL     1      -2.971  14.636  23.482  0.00  0.00    +0.000 A 
ATOM     22  N   UNL     1      -3.944  15.548  23.834  0.00  0.00    +0.000 N 
ATOM     23  C   UNL     1      -3.661  16.853  24.379  0.00  0.00    +0.000 C 
ENDBRANCH   1  18
BRANCH   6  24
ATOM     24  C   UNL     1       2.437   7.210  18.898  0.00  0.00    +0.000 A 
ATOM     25  C   UNL     1       3.256   7.781  17.905  0.00  0.00    +0.000 A 
ATOM     26  C   UNL     1       4.153   7.005  17.165  0.00  0.00    +0.000 A 
ATOM     27  C   UNL     1       4.223   5.636  17.389  0.00  0.00    +0.000 A 
ATOM     28 CL   UNL     1       5.364   4.688  16.520  0.00  0.00    +0.000 Cl
ATOM     29  C   UNL     1       3.385   5.034  18.325  0.00  0.00    +0.000 A 
ATOM     30  C   UNL     1       2.493   5.818  19.074  0.00  0.00    +0.000 A 
ENDBRANCH   6  24
TORSDOF 2
ENDMDL
MODEL 3
REMARK VINA RESULT:      -8.6      1.318      1.993
REMARK  Name = 
REMARK  5 active torsions:
REMARK  status: ('A' for Active; 'I' for Inactive)
REMARK    1  A    between atoms: C_1  and  N_2
REMARK    2  A    between atoms: N_2  and  C_3
REMARK    3  A    between atoms: C_8  and  N_9
REMARK    4  A    between atoms: C_14  and  C_15
REMARK    5  A    between atoms: N_29  and  C_30
REMARK                            x       y       z     vdW  Elec       q    Type
REMARK                         _______ _______ _______ _____ _____    ______ ____
ROOT
ATOM      1  N   UNL     1       0.152  10.675  21.143  0.00  0.00    +0.000 N 
ATOM      2  C   UNL     1       0.448   9.700  22.091  0.00  0.00    +0.000 A 
ATOM      3  N   UNL     1       1.049   8.562  21.894  0.00  0.00    +0.000 NA
ATOM      4  C   UNL     1       1.456   8.367  20.569  0.00  0.00    +0.000 A 
ATOM      5  C   UNL     1       2.157   7.232  20.103  0.00  0.00    +0.000 A 
ATOM      6  C   UNL     1       2.482   7.344  18.751  0.00  0.00    +0.000 A 
ATOM      7  S   UNL     1       1.883   8.836  18.109  0.00  0.00    +0.000 S 
ATOM      8  C   UNL     1       1.214   9.282  19.588  0.00  0.00    +0.000 A 
ATOM      9  C   UNL     1       0.507  10.508  19.799  0.00  0.00    +0.000 A 
ATOM     10  O   UNL     1       0.268  11.321  18.906  0.00  0.00    +0.000 OA
ENDROOT
BRANCH   1  18
ATOM     11  C   UNL     1      -5.498  16.384  23.088  0.00  0.00    +0.000 C 
ATOM     12  N   UNL     1      -5.141  15.010  23.409  0.00  0.00    +0.000 N 
ATOM     13  C   UNL     1      -6.271  14.100  23.615  0.00  0.00    +0.000 C 
ATOM     14  C   UNL     1      -4.000  14.431  22.922  0.00  0.00    +0.000 A 
ATOM     15  N   UNL     1      -3.880  13.162  22.576  0.00  0.00    +0.000 NA
ATOM     16  C   UNL     1      -2.573  12.974  22.209  0.00  0.00    +0.000 A 
ATOM     17  C   UNL     1      -1.929  11.807  21.760  0.00  0.00    +0.000 A 
ATOM     18  C   UNL     1      -0.544  11.851  21.533  0.00  0.00    +0.000 A 
ATOM     19  C   UNL     1       0.166  13.045  21.716  0.00  0.00    +0.000 A 
ATOM     20  C   UNL     1      -0.475  14.224  22.102  0.00  0.00    +0.000 A 
ATOM     21  C   UNL     1      -1.850  14.149  22.350  0.00  0.00    +0.000 A 
ATOM     22  N   UNL     1      -2.783  15.074  22.770  0.00  0.00    +0.000 N 
ATOM     23  C   UNL     1      -2.474  16.454  23.053  0.00  0.00    +0.000 C 
ENDBRANCH   1  18
BRANCH   6  24
ATOM     24  C   UNL     1       3.266   6.458  17.875  0.00  0.00    +0.000 A 
ATOM     25  C   UNL     1       4.346   6.950  17.117  0.00  0.00    +0.000 A 
ATOM     26  C   UNL     1       5.183   6.093  16.398  0.00  0.00    +0.000 A 
ATOM     27  C   UNL     1       4.933   4.726  16.403  0.00  0.00    +0.000 A 
ATOM     28 CL   UNL     1       5.993   3.664  15.564  0.00  0.00    +0.000 Cl
ATOM     29  C   UNL     1       3.839   4.216  17.097  0.00  0.00    +0.000 A 
ATOM     30  C   UNL     1       3.007   5.079  17.828  0.00  0.00    +0.000 A 
ENDBRANCH   6  24
TORSDOF 2
ENDMDL
MODEL 4
REMARK VINA RESULT:      -8.6      1.205      1.651
REMARK  Name = 
REMARK  5 active torsions:
REMARK  status: ('A' for Active; 'I' for Inactive)
REMARK    1  A    between atoms: C_1  and  N_2
REMARK    2  A    between atoms: N_2  and  C_3
REMARK    3  A    between atoms: C_8  and  N_9
REMARK    4  A    between atoms: C_14  and  C_15
REMARK    5  A    between atoms: N_29  and  C_30
REMARK                            x       y       z     vdW  Elec       q    Type
REMARK                         _______ _______ _______ _____ _____    ______ ____
ROOT
ATOM      1  N   UNL     1       0.436  10.149  20.860  0.00  0.00    +0.000 N 
ATOM      2  C   UNL     1       0.663   9.104  21.751  0.00  0.00    +0.000 A 
ATOM      3  N   UNL     1       1.285   7.984  21.515  0.00  0.00    +0.000 NA
ATOM      4  C   UNL     1       1.796   7.892  20.215  0.00  0.00    +0.000 A 
ATOM      5  C   UNL     1       2.539   6.796  19.720  0.00  0.00    +0.000 A 
ATOM      6  C   UNL     1       2.969   7.013  18.411  0.00  0.00    +0.000 A 
ATOM      7  S   UNL     1       2.413   8.549  17.840  0.00  0.00    +0.000 S 
ATOM      8  C   UNL     1       1.626   8.880  19.292  0.00  0.00    +0.000 A 
ATOM      9  C   UNL     1       0.897  10.085  19.539  0.00  0.00    +0.000 A 
ATOM     10  O   UNL     1       0.724  10.965  18.696  0.00  0.00    +0.000 OA
ENDROOT
BRANCH   1  18
ATOM     11  C   UNL     1      -5.371  15.554  23.175  0.00  0.00    +0.000 C 
ATOM     12  N   UNL     1      -4.899  14.216  23.496  0.00  0.00    +0.000 N 
ATOM     13  C   UNL     1      -5.944  13.244  23.828  0.00  0.00    +0.000 C 
ATOM     14  C   UNL     1      -3.771  13.694  22.920  0.00  0.00    +0.000 A 
ATOM     15  N   UNL     1      -3.601  12.424  22.597  0.00  0.00    +0.000 NA
ATOM     16  C   UNL     1      -2.324  12.306  22.115  0.00  0.00    +0.000 A 
ATOM     17  C   UNL     1      -1.649  11.168  21.639  0.00  0.00    +0.000 A 
ATOM     18  C   UNL     1      -0.297  11.291  21.283  0.00  0.00    +0.000 A 
ATOM     19  C   UNL     1       0.349  12.531  21.370  0.00  0.00    +0.000 A 
ATOM     20  C   UNL     1      -0.329  13.680  21.783  0.00  0.00    +0.000 A 
ATOM     21  C   UNL     1      -1.668  13.528  22.159  0.00  0.00    +0.000 A 
ATOM     22  N   UNL     1      -2.617  14.406  22.640  0.00  0.00    +0.000 N 
ATOM     23  C   UNL     1      -2.373  15.810  22.858  0.00  0.00    +0.000 C 
ENDBRANCH   1  18
BRANCH   6  24
ATOM     24  C   UNL     1       3.825   6.197  17.534  0.00  0.00    +0.000 A 
ATOM     25  C   UNL     1       3.719   4.793  17.512  0.00  0.00    +0.000 A 
ATOM     26  C   UNL     1       4.424   4.024  16.582  0.00  0.00    +0.000 A 
ATOM     27  C   UNL     1       5.271   4.649  15.675  0.00  0.00    +0.000 A 
ATOM     28 CL   UNL     1       6.096   3.710  14.495  0.00  0.00    +0.000 Cl
ATOM     29  C   UNL     1       5.439   6.031  15.710  0.00  0.00    +0.000 A 
ATOM     30  C   UNL     1       4.722   6.802  16.638  0.00  0.00    +0.000 A 
ENDBRANCH   6  24
TORSDOF 2
ENDMDL
MODEL 5
REMARK VINA RESULT:      -8.5      1.249      2.257
REMARK  Name = 
REMARK  5 active torsions:
REMARK  status: ('A' for Active; 'I' for Inactive)
REMARK    1  A    between atoms: C_1  and  N_2
REMARK    2  A    between atoms: N_2  and  C_3
REMARK    3  A    between atoms: C_8  and  N_9
REMARK    4  A    between atoms: C_14  and  C_15
REMARK    5  A    between atoms: N_29  and  C_30
REMARK                            x       y       z     vdW  Elec       q    Type
REMARK                         _______ _______ _______ _____ _____    ______ ____
ROOT
ATOM      1  N   UNL     1       0.110  10.494  20.674  0.00  0.00    +0.000 N 
ATOM      2  C   UNL     1       0.291   9.512  21.645  0.00  0.00    +0.000 A 
ATOM      3  N   UNL     1       0.917   8.378  21.515  0.00  0.00    +0.000 NA
ATOM      4  C   UNL     1       1.486   8.195  20.249  0.00  0.00    +0.000 A 
ATOM      5  C   UNL     1       2.244   7.066  19.865  0.00  0.00    +0.000 A 
ATOM      6  C   UNL     1       2.734   7.191  18.565  0.00  0.00    +0.000 A 
ATOM      7  S   UNL     1       2.213   8.686  17.865  0.00  0.00    +0.000 S 
ATOM      8  C   UNL     1       1.364   9.118  19.253  0.00  0.00    +0.000 A 
ATOM      9  C   UNL     1       0.630  10.339  19.384  0.00  0.00    +0.000 A 
ATOM     10  O   UNL     1       0.500  11.159  18.475  0.00  0.00    +0.000 OA
ENDROOT
BRANCH   1  18
ATOM     11  C   UNL     1      -5.445  16.600  21.079  0.00  0.00    +0.000 C 
ATOM     12  N   UNL     1      -5.376  15.147  21.118  0.00  0.00    +0.000 N 
ATOM     13  C   UNL     1      -6.478  14.449  20.451  0.00  0.00    +0.000 C 
ATOM     14  C   UNL     1      -4.179  14.483  21.127  0.00  0.00    +0.000 A 
ATOM     15  N   UNL     1      -3.947  13.325  20.537  0.00  0.00    +0.000 NA
ATOM     16  C   UNL     1      -2.657  12.976  20.840  0.00  0.00    +0.000 A 
ATOM     17  C   UNL     1      -1.925  11.838  20.459  0.00  0.00    +0.000 A 
ATOM     18  C   UNL     1      -0.635  11.664  20.984  0.00  0.00    +0.000 A 
ATOM     19  C   UNL     1      -0.083  12.627  21.840  0.00  0.00    +0.000 A 
ATOM     20  C   UNL     1      -0.778  13.791  22.175  0.00  0.00    +0.000 A 
ATOM     21  C   UNL     1      -2.072  13.928  21.662  0.00  0.00    +0.000 A 
ATOM     22  N   UNL     1      -3.044  14.898  21.805  0.00  0.00    +0.000 N 
ATOM     23  C   UNL     1      -2.875  16.093  22.593  0.00  0.00    +0.000 C 
ENDBRANCH   1  18
BRANCH   6  24
ATOM     24  C   UNL     1       3.625   6.315  17.786  0.00  0.00    +0.000 A 
ATOM     25  C   UNL     1       3.464   4.917  17.796  0.00  0.00    +0.000 A 
ATOM     26  C   UNL     1       4.210   4.091  16.950  0.00  0.00    +0.000 A 
ATOM     27  C   UNL     1       5.153   4.653  16.099  0.00  0.00    +0.000 A 
ATOM     28 CL   UNL     1       6.033   3.646  15.019  0.00  0.00    +0.000 Cl
ATOM     29  C   UNL     1       5.376   6.028  16.109  0.00  0.00    +0.000 A 
ATOM     30  C   UNL     1       4.617   6.856  16.951  0.00  0.00    +0.000 A 
ENDBRANCH   6  24
TORSDOF 2
ENDMDL
MODEL 6
REMARK VINA RESULT:      -8.4      0.575      1.048
REMARK  Name = 
REMARK  5 active torsions:
REMARK  status: ('A' for Active; 'I' for Inactive)
REMARK    1  A    between atoms: C_1  and  N_2
REMARK    2  A    between atoms: N_2  and  C_3
REMARK    3  A    between atoms: C_8  and  N_9
REMARK    4  A    between atoms: C_14  and  C_15
REMARK    5  A    between atoms: N_29  and  C_30
REMARK                            x       y       z     vdW  Elec       q    Type
REMARK                         _______ _______ _______ _____ _____    ______ ____
ROOT
ATOM      1  N   UNL     1      -0.092  10.498  20.953  0.00  0.00    +0.000 N 
ATOM      2  C   UNL     1       0.235   9.538  21.907  0.00  0.00    +0.000 A 
ATOM      3  N   UNL     1       0.919   8.445  21.726  0.00  0.00    +0.000 NA
ATOM      4  C   UNL     1       1.386   8.288  20.416  0.00  0.00    +0.000 A 
ATOM      5  C   UNL     1       2.180   7.207  19.971  0.00  0.00    +0.000 A 
ATOM      6  C   UNL     1       2.546   7.352  18.632  0.00  0.00    +0.000 A 
ATOM      7  S   UNL     1       1.871   8.804  17.977  0.00  0.00    +0.000 S 
ATOM      8  C   UNL     1       1.119   9.192  19.432  0.00  0.00    +0.000 A 
ATOM      9  C   UNL     1       0.322  10.365  19.623  0.00  0.00    +0.000 A 
ATOM     10  O   UNL     1       0.061  11.167  18.726  0.00  0.00    +0.000 OA
ENDROOT
BRANCH   1  18
ATOM     11  C   UNL     1      -3.853  16.720  24.884  0.00  0.00    +0.000 C 
ATOM     12  N   UNL     1      -2.519  16.182  24.661  0.00  0.00    +0.000 N 
ATOM     13  C   UNL     1      -1.611  16.261  25.808  0.00  0.00    +0.000 C 
ATOM     14  C   UNL     1      -2.299  15.134  23.808  0.00  0.00    +0.000 A 
ATOM     15  N   UNL     1      -1.395  14.188  23.984  0.00  0.00    +0.000 NA
ATOM     16  C   UNL     1      -1.451  13.376  22.881  0.00  0.00    +0.000 A 
ATOM     17  C   UNL     1      -0.698  12.229  22.576  0.00  0.00    +0.000 A 
ATOM     18  C   UNL     1      -0.882  11.620  21.324  0.00  0.00    +0.000 A 
ATOM     19  C   UNL     1      -1.822  12.130  20.420  0.00  0.00    +0.000 A 
ATOM     20  C   UNL     1      -2.619  13.232  20.738  0.00  0.00    +0.000 A 
ATOM     21  C   UNL     1      -2.398  13.839  21.979  0.00  0.00    +0.000 A 
ATOM     22  N   UNL     1      -2.953  14.938  22.603  0.00  0.00    +0.000 N 
ATOM     23  C   UNL     1      -3.993  15.750  22.021  0.00  0.00    +0.000 C 
ENDBRANCH   1  18
BRANCH   6  24
ATOM     24  C   UNL     1       3.421   6.528  17.781  0.00  0.00    +0.000 A 
ATOM     25  C   UNL     1       4.501   7.096  17.079  0.00  0.00    +0.000 A 
ATOM     26  C   UNL     1       5.419   6.303  16.387  0.00  0.00    +0.000 A 
ATOM     27  C   UNL     1       5.253   4.923  16.364  0.00  0.00    +0.000 A 
ATOM     28 CL   UNL     1       6.412   3.940  15.561  0.00  0.00    +0.000 Cl
ATOM     29  C   UNL     1       4.163   4.337  17.002  0.00  0.00    +0.000 A 
ATOM     30  C   UNL     1       3.248   5.136  17.705  0.00  0.00    +0.000 A 
ENDBRANCH   6  24
TORSDOF 2
ENDMDL
MODEL 7
REMARK VINA RESULT:      -8.3      2.021      2.854
REMARK  Name = 
REMARK  5 active torsions:
REMARK  status: ('A' for Active; 'I' for Inactive)
REMARK    1  A    between atoms: C_1  and  N_2
REMARK    2  A    between atoms: N_2  and  C_3
REMARK    3  A    between atoms: C_8  and  N_9
REMARK    4  A    between atoms: C_14  and  C_15
REMARK    5  A    between atoms: N_29  and  C_30
REMARK                            x       y       z     vdW  Elec       q    Type
REMARK                         _______ _______ _______ _____ _____    ______ ____
ROOT
ATOM      1  N   UNL     1      -0.338  11.326  20.410  0.00  0.00    +0.000 N 
ATOM      2  C   UNL     1       0.006  11.836  19.162  0.00  0.00    +0.000 A 
ATOM      3  N   UNL     1       0.798  11.298  18.279  0.00  0.00    +0.000 NA
ATOM      4  C   UNL     1       1.300  10.050  18.665  0.00  0.00    +0.000 A 
ATOM      5  C   UNL     1       2.150   9.247  17.872  0.00  0.00    +0.000 A 
ATOM      6  C   UNL     1       2.436   8.030  18.491  0.00  0.00    +0.000 A 
ATOM      7  S   UNL     1       1.663   7.944  20.037  0.00  0.00    +0.000 S 
ATOM      8  C   UNL     1       0.996   9.480  19.864  0.00  0.00    +0.000 A 
ATOM      9  C   UNL     1       0.168  10.098  20.854  0.00  0.00    +0.000 A 
ATOM     10  O   UNL     1      -0.084   9.593  21.947  0.00  0.00    +0.000 OA
ENDROOT
BRANCH   1  18
ATOM     11  C   UNL     1      -6.724  15.050  24.105  0.00  0.00    +0.000 C 
ATOM     12  N   UNL     1      -6.330  13.741  23.606  0.00  0.00    +0.000 N 
ATOM     13  C   UNL     1      -7.398  12.963  22.973  0.00  0.00    +0.000 C 
ATOM     14  C   UNL     1      -5.068  13.503  23.131  0.00  0.00    +0.000 A 
ATOM     15  N   UNL     1      -4.773  12.693  22.131  0.00  0.00    +0.000 NA
ATOM     16  C   UNL     1      -3.407  12.683  22.018  0.00  0.00    +0.000 A 
ATOM     17  C   UNL     1      -2.589  11.984  21.113  0.00  0.00    +0.000 A 
ATOM     18  C   UNL     1      -1.196  12.070  21.265  0.00  0.00    +0.000 A 
ATOM     19  C   UNL     1      -0.642  12.866  22.276  0.00  0.00    +0.000 A 
ATOM     20  C   UNL     1      -1.445  13.612  23.141  0.00  0.00    +0.000 A 
ATOM     21  C   UNL     1      -2.830  13.489  22.988  0.00  0.00    +0.000 A 
ATOM     22  N   UNL     1      -3.904  14.030  23.664  0.00  0.00    +0.000 N 
ATOM     23  C   UNL     1      -3.776  14.939  24.776  0.00  0.00    +0.000 C 
ENDBRANCH   1  18
BRANCH   6  24
ATOM     24  C   UNL     1       3.200   6.865  18.013  0.00  0.00    +0.000 A 
ATOM     25  C   UNL     1       2.687   5.559  18.130  0.00  0.00    +0.000 A 
ATOM     26  C   UNL     1       3.337   4.466  17.550  0.00  0.00    +0.000 A 
ATOM     27  C   UNL     1       4.532   4.661  16.867  0.00  0.00    +0.000 A 
ATOM     28 CL   UNL     1       5.305   3.328  16.107  0.00  0.00    +0.000 Cl
ATOM     29  C   UNL     1       5.092   5.934  16.784  0.00  0.00    +0.000 A 
ATOM     30  C   UNL     1       4.431   7.031  17.357  0.00  0.00    +0.000 A 
ENDBRANCH   6  24
TORSDOF 2
ENDMDL
MODEL 8
REMARK VINA RESULT:      -8.3      2.150      3.140
REMARK  Name = 
REMARK  5 active torsions:
REMARK  status: ('A' for Active; 'I' for Inactive)
REMARK    1  A    between atoms: C_1  and  N_2
REMARK    2  A    between atoms: N_2  and  C_3
REMARK    3  A    between atoms: C_8  and  N_9
REMARK    4  A    between atoms: C_14  and  C_15
REMARK    5  A    between atoms: N_29  and  C_30
REMARK                            x       y       z     vdW  Elec       q    Type
REMARK                         _______ _______ _______ _____ _____    ______ ____
ROOT
ATOM      1  N   UNL     1      -0.297  11.792  20.934  0.00  0.00    +0.000 N 
ATOM      2  C   UNL     1      -0.069  11.917  19.567  0.00  0.00    +0.000 A 
ATOM      3  N   UNL     1       0.541  11.070  18.787  0.00  0.00    +0.000 NA
ATOM      4  C   UNL     1       0.958   9.906  19.443  0.00  0.00    +0.000 A 
ATOM      5  C   UNL     1       1.610   8.821  18.816  0.00  0.00    +0.000 A 
ATOM      6  C   UNL     1       1.848   7.776  19.708  0.00  0.00    +0.000 A 
ATOM      7  S   UNL     1       1.280   8.191  21.289  0.00  0.00    +0.000 S 
ATOM      8  C   UNL     1       0.757   9.707  20.776  0.00  0.00    +0.000 A 
ATOM      9  C   UNL     1       0.134  10.663  21.640  0.00  0.00    +0.000 A 
ATOM     10  O   UNL     1      -0.023  10.491  22.848  0.00  0.00    +0.000 OA
ENDROOT
BRANCH   1  18
ATOM     11  C   UNL     1      -5.741  17.097  24.179  0.00  0.00    +0.000 C 
ATOM     12  N   UNL     1      -5.524  15.665  24.039  0.00  0.00    +0.000 N 
ATOM     13  C   UNL     1      -6.730  14.866  23.810  0.00  0.00    +0.000 C 
ATOM     14  C   UNL     1      -4.372  15.163  23.494  0.00  0.00    +0.000 A 
ATOM     15  N   UNL     1      -4.297  14.077  22.745  0.00  0.00    +0.000 NA
ATOM     16  C   UNL     1      -2.971  13.882  22.462  0.00  0.00    +0.000 A 
ATOM     17  C   UNL     1      -2.357  12.871  21.703  0.00  0.00    +0.000 A 
ATOM     18  C   UNL     1      -0.955  12.838  21.638  0.00  0.00    +0.000 A 
ATOM     19  C   UNL     1      -0.193  13.817  22.288  0.00  0.00    +0.000 A 
ATOM     20  C   UNL     1      -0.795  14.862  22.993  0.00  0.00    +0.000 A 
ATOM     21  C   UNL     1      -2.192  14.858  23.067  0.00  0.00    +0.000 A 
ATOM     22  N   UNL     1      -3.104  15.684  23.690  0.00  0.00    +0.000 N 
ATOM     23  C   UNL     1      -2.739  16.848  24.459  0.00  0.00    +0.000 C 
ENDBRANCH   1  18
BRANCH   6  24
ATOM     24  C   UNL     1       2.419   6.436  19.488  0.00  0.00    +0.000 A 
ATOM     25  C   UNL     1       2.236   5.402  20.426  0.00  0.00    +0.000 A 
ATOM     26  C   UNL     1       2.649   4.094  20.159  0.00  0.00    +0.000 A 
ATOM     27  C   UNL     1       3.280   3.806  18.955  0.00  0.00    +0.000 A 
ATOM     28 CL   UNL     1       3.738   2.188  18.600  0.00  0.00    +0.000 Cl
ATOM     29  C   UNL     1       3.525   4.819  18.031  0.00  0.00    +0.000 A 
ATOM     30  C   UNL     1       3.099   6.130  18.298  0.00  0.00    +0.000 A 
ENDBRANCH   6  24
TORSDOF 2
ENDMDL
MODEL 9
REMARK VINA RESULT:      -8.3      2.229      2.823
REMARK  Name = 
REMARK  5 active torsions:
REMARK  status: ('A' for Active; 'I' for Inactive)
REMARK    1  A    between atoms: C_1  and  N_2
REMARK    2  A    between atoms: N_2  and  C_3
REMARK    3  A    between atoms: C_8  and  N_9
REMARK    4  A    between atoms: C_14  and  C_15
REMARK    5  A    between atoms: N_29  and  C_30
REMARK                            x       y       z     vdW  Elec       q    Type
REMARK                         _______ _______ _______ _____ _____    ______ ____
ROOT
ATOM      1  N   UNL     1       0.304  11.165  20.382  0.00  0.00    +0.000 N 
ATOM      2  C   UNL     1       0.689  11.356  19.058  0.00  0.00    +0.000 A 
ATOM      3  N   UNL     1       1.302  10.508  18.283  0.00  0.00    +0.000 NA
ATOM      4  C   UNL     1       1.541   9.268  18.888  0.00  0.00    +0.000 A 
ATOM      5  C   UNL     1       2.159   8.169  18.251  0.00  0.00    +0.000 A 
ATOM      6  C   UNL     1       2.205   7.050  19.082  0.00  0.00    +0.000 A 
ATOM      7  S   UNL     1       1.508   7.414  20.623  0.00  0.00    +0.000 S 
ATOM      8  C   UNL     1       1.181   9.003  20.175  0.00  0.00    +0.000 A 
ATOM      9  C   UNL     1       0.555   9.956  21.041  0.00  0.00    +0.000 A 
ATOM     10  O   UNL     1       0.253   9.721  22.211  0.00  0.00    +0.000 OA
ENDROOT
BRANCH   1  18
ATOM     11  C   UNL     1      -5.041  16.422  23.861  0.00  0.00    +0.000 C 
ATOM     12  N   UNL     1      -4.775  14.994  23.773  0.00  0.00    +0.000 N 
ATOM     13  C   UNL     1      -5.961  14.138  23.700  0.00  0.00    +0.000 C 
ATOM     14  C   UNL     1      -3.659  14.508  23.146  0.00  0.00    +0.000 A 
ATOM     15  N   UNL     1      -3.606  13.387  22.449  0.00  0.00    +0.000 NA
ATOM     16  C   UNL     1      -2.304  13.229  22.051  0.00  0.00    +0.000 A 
ATOM     17  C   UNL     1      -1.720  12.202  21.288  0.00  0.00    +0.000 A 
ATOM     18  C   UNL     1      -0.330  12.221  21.091  0.00  0.00    +0.000 A 
ATOM     19  C   UNL     1       0.445  13.263  21.616  0.00  0.00    +0.000 A 
ATOM     20  C   UNL     1      -0.133  14.320  22.322  0.00  0.00    +0.000 A 
ATOM     21  C   UNL     1      -1.516  14.265  22.530  0.00  0.00    +0.000 A 
ATOM     22  N   UNL     1      -2.402  15.088  23.194  0.00  0.00    +0.000 N 
ATOM     23  C   UNL     1      -2.018  16.305  23.865  0.00  0.00    +0.000 C 
ENDBRANCH   1  18
BRANCH   6  24
ATOM     24  C   UNL     1       2.675   5.679  18.821  0.00  0.00    +0.000 A 
ATOM     25  C   UNL     1       3.772   5.138  19.518  0.00  0.00    +0.000 A 
ATOM     26  C   UNL     1       4.133   3.795  19.382  0.00  0.00    +0.000 A 
ATOM     27  C   UNL     1       3.416   2.976  18.518  0.00  0.00    +0.000 A 
ATOM     28 CL   UNL     1       3.823   1.311  18.390  0.00  0.00    +0.000 Cl
ATOM     29  C   UNL     1       2.361   3.497  17.772  0.00  0.00    +0.000 A 
ATOM     30  C   UNL     1       1.994   4.844  17.920  0.00  0.00    +0.000 A 
ENDBRANCH   6  24
TORSDOF 2
ENDMDL
