MODEL 1
REMARK VINA RESULT:      -8.3      0.000      0.000
REMARK  Name = 
REMARK  6 active torsions:
REMARK  status: ('A' for Active; 'I' for Inactive)
REMARK    1  A    between atoms: C_2  and  C_4
REMARK    2  A    between atoms: C_11  and  N_12
REMARK    3  A    between atoms: C_14  and  C_15
REMARK    4  A    between atoms: C_15  and  O_16
REMARK    5  A    between atoms: O_16  and  C_17
REMARK    6  A    between atoms: C_20  and  C_21
REMARK                            x       y       z     vdW  Elec       q    Type
REMARK                         _______ _______ _______ _____ _____    ______ ____
ROOT
ATOM      1  N   UNL     1       3.065   6.757  18.570  0.00  0.00    +0.000 N 
ATOM      2  C   UNL     1       2.438   7.900  18.121  0.00  0.00    +0.000 A 
ATOM      3  C   UNL     1       1.754   8.383  19.215  0.00  0.00    +0.000 A 
ATOM      4  N   UNL     1       1.896   7.497  20.247  0.00  0.00    +0.000 NA
ATOM      5  N   UNL     1       2.676   6.502  19.837  0.00  0.00    +0.000 NA
ENDROOT
BRANCH   1  13
ATOM      6  C   UNL     1       3.418   4.579  17.430  0.00  0.00    +0.000 A 
ATOM      7  C   UNL     1       4.280   3.746  16.690  0.00  0.00    +0.000 A 
ATOM      8  C   UNL     1       5.525   4.208  16.285  0.00  0.00    +0.000 A 
ATOM      9  F   UNL     1       6.325   3.401  15.578  0.00  0.00    +0.000 F 
ATOM     10  C   UNL     1       5.941   5.488  16.620  0.00  0.00    +0.000 A 
ATOM     11  F   UNL     1       7.131   5.942  16.204  0.00  0.00    +0.000 F 
ATOM     12  C   UNL     1       5.127   6.312  17.387  0.00  0.00    +0.000 A 
ATOM     13  C   UNL     1       3.857   5.866  17.802  0.00  0.00    +0.000 A 
BRANCH   6  15
ATOM     14  N   UNL     1       2.214   3.298  19.106  0.00  0.00    +0.000 N 
ATOM     15  C   UNL     1       2.157   3.962  17.909  0.00  0.00    +0.000 C 
ATOM     16  O   UNL     1       1.104   4.093  17.298  0.00  0.00    +0.000 OA
ATOM     17  H   UNL     1       1.371   2.831  19.413  0.00  0.00    +0.000 HD
ATOM     18  H   UNL     1       3.059   3.156  19.640  0.00  0.00    +0.000 HD
ENDBRANCH   6  15
ENDBRANCH   1  13
BRANCH   3  19
ATOM     19  C   UNL     1       0.956   9.632  19.342  0.00  0.00    +0.000 C 
BRANCH  19  20
ATOM     20  O   UNL     1       0.428  10.034  18.075  0.00  0.00    +0.000 OA
BRANCH  20  21
ATOM     21  C   UNL     1      -0.856  10.504  18.078  0.00  0.00    +0.000 A 
ATOM     22  C   UNL     1      -1.725   9.871  17.186  0.00  0.00    +0.000 A 
ATOM     23  C   UNL     1      -3.072  10.239  17.122  0.00  0.00    +0.000 A 
ATOM     24  C   UNL     1      -3.576  11.235  17.968  0.00  0.00    +0.000 A 
ATOM     25  C   UNL     1      -2.699  11.862  18.867  0.00  0.00    +0.000 A 
ATOM     26  C   UNL     1      -1.348  11.499  18.923  0.00  0.00    +0.000 A 
BRANCH  24  27
ATOM     27  C   UNL     1      -5.034  11.624  17.940  0.00  0.00    +0.000 C 
ATOM     28  F   UNL     1      -5.885  10.574  18.120  0.00  0.00    +0.000 F 
ATOM     29  F   UNL     1      -5.348  12.527  18.911  0.00  0.00    +0.000 F 
ATOM     30  F   UNL     1      -5.399  12.200  16.762  0.00  0.00    +0.000 F 
ENDBRANCH  24  27
ENDBRANCH  20  21
ENDBRANCH  19  20
ENDBRANCH   3  19
TORSDOF 6
ENDMDL
MODEL 2
REMARK VINA RESULT:      -8.2      5.667      8.934
REMARK  Name = 
REMARK  6 active torsions:
REMARK  status: ('A' for Active; 'I' for Inactive)
REMARK    1  A    between atoms: C_2  and  C_4
REMARK    2  A    between atoms: C_11  and  N_12
REMARK    3  A    between atoms: C_14  and  C_15
REMARK    4  A    between atoms: C_15  and  O_16
REMARK    5  A    between atoms: O_16  and  C_17
REMARK    6  A    between atoms: C_20  and  C_21
REMARK                            x       y       z     vdW  Elec       q    Type
REMARK                         _______ _______ _______ _____ _____    ______ ____
ROOT
ATOM      1  N   UNL     1       5.016   5.683  17.694  0.00  0.00    +0.000 N 
ATOM      2  C   UNL     1       6.100   6.026  18.474  0.00  0.00    +0.000 A 
ATOM      3  C   UNL     1       6.830   6.904  17.705  0.00  0.00    +0.000 A 
ATOM      4  N   UNL     1       6.243   6.999  16.473  0.00  0.00    +0.000 NA
ATOM      5  N   UNL     1       5.155   6.236  16.470  0.00  0.00    +0.000 NA
ENDROOT
BRANCH   1  13
ATOM      6  C   UNL     1       2.730   5.163  18.512  0.00  0.00    +0.000 A 
ATOM      7  C   UNL     1       1.776   4.180  18.842  0.00  0.00    +0.000 A 
ATOM      8  C   UNL     1       2.055   2.835  18.635  0.00  0.00    +0.000 A 
ATOM      9  F   UNL     1       1.131   1.920  18.950  0.00  0.00    +0.000 F 
ATOM     10  C   UNL     1       3.280   2.444  18.119  0.00  0.00    +0.000 A 
ATOM     11  F   UNL     1       3.536   1.149  17.894  0.00  0.00    +0.000 F 
ATOM     12  C   UNL     1       4.254   3.392  17.828  0.00  0.00    +0.000 A 
ATOM     13  C   UNL     1       3.990   4.762  18.023  0.00  0.00    +0.000 A 
BRANCH   6  15
ATOM     14  N   UNL     1       2.290   6.849  20.204  0.00  0.00    +0.000 N 
ATOM     15  C   UNL     1       2.385   6.561  18.868  0.00  0.00    +0.000 C 
ATOM     16  O   UNL     1       2.255   7.429  18.015  0.00  0.00    +0.000 OA
ATOM     17  H   UNL     1       2.004   7.786  20.453  0.00  0.00    +0.000 HD
ATOM     18  H   UNL     1       2.379   6.165  20.943  0.00  0.00    +0.000 HD
ENDBRANCH   6  15
ENDBRANCH   1  13
BRANCH   3  19
ATOM     19  C   UNL     1       8.065   7.655  18.058  0.00  0.00    +0.000 C 
BRANCH  19  20
ATOM     20  O   UNL     1       8.056   8.960  17.471  0.00  0.00    +0.000 OA
BRANCH  20  21
ATOM     21  C   UNL     1       8.626   9.958  18.212  0.00  0.00    +0.000 A 
ATOM     22  C   UNL     1       8.515  11.240  17.672  0.00  0.00    +0.000 A 
ATOM     23  C   UNL     1       9.027  12.348  18.353  0.00  0.00    +0.000 A 
ATOM     24  C   UNL     1       9.641  12.190  19.602  0.00  0.00    +0.000 A 
ATOM     25  C   UNL     1       9.744  10.899  20.144  0.00  0.00    +0.000 A 
ATOM     26  C   UNL     1       9.238   9.790  19.455  0.00  0.00    +0.000 A 
BRANCH  24  27
ATOM     27  C   UNL     1      10.170  13.376  20.372  0.00  0.00    +0.000 C 
ATOM     28  F   UNL     1       9.715  13.444  21.655  0.00  0.00    +0.000 F 
ATOM     29  F   UNL     1      11.530  13.372  20.459  0.00  0.00    +0.000 F 
ATOM     30  F   UNL     1       9.837  14.564  19.795  0.00  0.00    +0.000 F 
ENDBRANCH  24  27
ENDBRANCH  20  21
ENDBRANCH  19  20
ENDBRANCH   3  19
TORSDOF 6
ENDMDL
MODEL 3
REMARK VINA RESULT:      -8.2      0.262      1.136
REMARK  Name = 
REMARK  6 active torsions:
REMARK  status: ('A' for Active; 'I' for Inactive)
REMARK    1  A    between atoms: C_2  and  C_4
REMARK    2  A    between atoms: C_11  and  N_12
REMARK    3  A    between atoms: C_14  and  C_15
REMARK    4  A    between atoms: C_15  and  O_16
REMARK    5  A    between atoms: O_16  and  C_17
REMARK    6  A    between atoms: C_20  and  C_21
REMARK                            x       y       z     vdW  Elec       q    Type
REMARK                         _______ _______ _______ _____ _____    ______ ____
ROOT
ATOM      1  N   UNL     1       2.916   6.858  18.712  0.00  0.00    +0.000 N 
ATOM      2  C   UNL     1       2.347   8.051  18.321  0.00  0.00    +0.000 A 
ATOM      3  C   UNL     1       1.650   8.491  19.425  0.00  0.00    +0.000 A 
ATOM      4  N   UNL     1       1.728   7.537  20.401  0.00  0.00    +0.000 NA
ATOM      5  N   UNL     1       2.481   6.539  19.949  0.00  0.00    +0.000 NA
ENDROOT
BRANCH   1  13
ATOM      6  C   UNL     1       3.248   4.714  17.504  0.00  0.00    +0.000 A 
ATOM      7  C   UNL     1       4.098   3.898  16.731  0.00  0.00    +0.000 A 
ATOM      8  C   UNL     1       5.341   4.367  16.327  0.00  0.00    +0.000 A 
ATOM      9  F   UNL     1       6.129   3.578  15.588  0.00  0.00    +0.000 F 
ATOM     10  C   UNL     1       5.766   5.634  16.695  0.00  0.00    +0.000 A 
ATOM     11  F   UNL     1       6.953   6.095  16.280  0.00  0.00    +0.000 F 
ATOM     12  C   UNL     1       4.964   6.439  17.495  0.00  0.00    +0.000 A 
ATOM     13  C   UNL     1       3.696   5.987  17.910  0.00  0.00    +0.000 A 
BRANCH   6  15
ATOM     14  N   UNL     1       2.044   3.424  19.174  0.00  0.00    +0.000 N 
ATOM     15  C   UNL     1       1.988   4.087  17.978  0.00  0.00    +0.000 C 
ATOM     16  O   UNL     1       0.937   4.213  17.364  0.00  0.00    +0.000 OA
ATOM     17  H   UNL     1       1.203   2.951  19.478  0.00  0.00    +0.000 HD
ATOM     18  H   UNL     1       2.889   3.286  19.711  0.00  0.00    +0.000 HD
ENDBRANCH   6  15
ENDBRANCH   1  13
BRANCH   3  19
ATOM     19  C   UNL     1       0.896   9.760  19.611  0.00  0.00    +0.000 C 
BRANCH  19  20
ATOM     20  O   UNL     1       0.489  10.303  18.352  0.00  0.00    +0.000 OA
BRANCH  20  21
ATOM     21  C   UNL     1      -0.855  10.492  18.183  0.00  0.00    +0.000 A 
ATOM     22  C   UNL     1      -1.425  11.478  18.992  0.00  0.00    +0.000 A 
ATOM     23  C   UNL     1      -2.784  11.788  18.887  0.00  0.00    +0.000 A 
ATOM     24  C   UNL     1      -3.591  11.128  17.952  0.00  0.00    +0.000 A 
ATOM     25  C   UNL     1      -3.011  10.143  17.137  0.00  0.00    +0.000 A 
ATOM     26  C   UNL     1      -1.652   9.828  17.250  0.00  0.00    +0.000 A 
BRANCH  24  27
ATOM     27  C   UNL     1      -5.053  11.471  17.797  0.00  0.00    +0.000 C 
ATOM     28  F   UNL     1      -5.442  11.641  16.501  0.00  0.00    +0.000 F 
ATOM     29  F   UNL     1      -5.868  10.506  18.307  0.00  0.00    +0.000 F 
ATOM     30  F   UNL     1      -5.390  12.623  18.441  0.00  0.00    +0.000 F 
ENDBRANCH  24  27
ENDBRANCH  20  21
ENDBRANCH  19  20
ENDBRANCH   3  19
TORSDOF 6
ENDMDL
MODEL 4
REMARK VINA RESULT:      -8.1      3.140      4.246
REMARK  Name = 
REMARK  6 active torsions:
REMARK  status: ('A' for Active; 'I' for Inactive)
REMARK    1  A    between atoms: C_2  and  C_4
REMARK    2  A    between atoms: C_11  and  N_12
REMARK    3  A    between atoms: C_14  and  C_15
REMARK    4  A    between atoms: C_15  and  O_16
REMARK    5  A    between atoms: O_16  and  C_17
REMARK    6  A    between atoms: C_20  and  C_21
REMARK                            x       y       z     vdW  Elec       q    Type
REMARK                         _______ _______ _______ _____ _____    ______ ____
ROOT
ATOM      1  N   UNL     1       4.476   5.417  18.140  0.00  0.00    +0.000 N 
ATOM      2  C   UNL     1       3.557   6.430  18.311  0.00  0.00    +0.000 A 
ATOM      3  C   UNL     1       2.961   6.169  19.525  0.00  0.00    +0.000 A 
ATOM      4  N   UNL     1       3.447   4.984  20.005  0.00  0.00    +0.000 NA
ATOM      5  N   UNL     1       4.349   4.524  19.145  0.00  0.00    +0.000 NA
ENDROOT
BRANCH   1  13
ATOM      6  C   UNL     1       6.705   5.436  17.046  0.00  0.00    +0.000 A 
ATOM      7  C   UNL     1       7.461   5.235  15.874  0.00  0.00    +0.000 A 
ATOM      8  C   UNL     1       6.850   4.768  14.718  0.00  0.00    +0.000 A 
ATOM      9  F   UNL     1       7.589   4.580  13.618  0.00  0.00    +0.000 F 
ATOM     10  C   UNL     1       5.488   4.513  14.698  0.00  0.00    +0.000 A 
ATOM     11  F   UNL     1       4.907   4.036  13.590  0.00  0.00    +0.000 F 
ATOM     12  C   UNL     1       4.713   4.746  15.828  0.00  0.00    +0.000 A 
ATOM     13  C   UNL     1       5.313   5.212  17.014  0.00  0.00    +0.000 A 
BRANCH   6  15
ATOM     14  N   UNL     1       7.642   5.225  19.277  0.00  0.00    +0.000 N 
ATOM     15  C   UNL     1       7.423   6.037  18.197  0.00  0.00    +0.000 C 
ATOM     16  O   UNL     1       7.856   7.182  18.158  0.00  0.00    +0.000 OA
ATOM     17  H   UNL     1       8.085   5.642  20.085  0.00  0.00    +0.000 HD
ATOM     18  H   UNL     1       7.297   4.278  19.359  0.00  0.00    +0.000 HD
ENDBRANCH   6  15
ENDBRANCH   1  13
BRANCH   3  19
ATOM     19  C   UNL     1       1.943   6.968  20.259  0.00  0.00    +0.000 C 
BRANCH  19  20
ATOM     20  O   UNL     1       1.812   8.275  19.692  0.00  0.00    +0.000 OA
BRANCH  20  21
ATOM     21  C   UNL     1       0.949   9.124  20.327  0.00  0.00    +0.000 A 
ATOM     22  C   UNL     1       0.700   8.828  21.669  0.00  0.00    +0.000 A 
ATOM     23  C   UNL     1      -0.137   9.643  22.436  0.00  0.00    +0.000 A 
ATOM     24  C   UNL     1      -0.723  10.785  21.874  0.00  0.00    +0.000 A 
ATOM     25  C   UNL     1      -0.463  11.082  20.527  0.00  0.00    +0.000 A 
ATOM     26  C   UNL     1       0.368  10.258  19.759  0.00  0.00    +0.000 A 
BRANCH  24  27
ATOM     27  C   UNL     1      -1.602  11.699  22.693  0.00  0.00    +0.000 C 
ATOM     28  F   UNL     1      -2.576  12.317  21.967  0.00  0.00    +0.000 F 
ATOM     29  F   UNL     1      -2.247  11.037  23.693  0.00  0.00    +0.000 F 
ATOM     30  F   UNL     1      -0.898  12.695  23.298  0.00  0.00    +0.000 F 
ENDBRANCH  24  27
ENDBRANCH  20  21
ENDBRANCH  19  20
ENDBRANCH   3  19
TORSDOF 6
ENDMDL
MODEL 5
REMARK VINA RESULT:      -8.1      2.843      3.539
REMARK  Name = 
REMARK  6 active torsions:
REMARK  status: ('A' for Active; 'I' for Inactive)
REMARK    1  A    between atoms: C_2  and  C_4
REMARK    2  A    between atoms: C_11  and  N_12
REMARK    3  A    between atoms: C_14  and  C_15
REMARK    4  A    between atoms: C_15  and  O_16
REMARK    5  A    between atoms: O_16  and  C_17
REMARK    6  A    between atoms: C_20  and  C_21
REMARK                            x       y       z     vdW  Elec       q    Type
REMARK                         _______ _______ _______ _____ _____    ______ ____
ROOT
ATOM      1  N   UNL     1       3.693   5.403  19.060  0.00  0.00    +0.000 N 
ATOM      2  C   UNL     1       2.876   6.504  19.200  0.00  0.00    +0.000 A 
ATOM      3  C   UNL     1       2.131   6.253  20.331  0.00  0.00    +0.000 A 
ATOM      4  N   UNL     1       2.432   4.999  20.785  0.00  0.00    +0.000 NA
ATOM      5  N   UNL     1       3.366   4.483  19.992  0.00  0.00    +0.000 NA
ENDROOT
BRANCH   1  13
ATOM      6  C   UNL     1       4.480   4.091  17.105  0.00  0.00    +0.000 A 
ATOM      7  C   UNL     1       5.461   3.902  16.110  0.00  0.00    +0.000 A 
ATOM      8  C   UNL     1       6.521   4.792  15.994  0.00  0.00    +0.000 A 
ATOM      9  F   UNL     1       7.437   4.597  15.038  0.00  0.00    +0.000 F 
ATOM     10  C   UNL     1       6.635   5.864  16.865  0.00  0.00    +0.000 A 
ATOM     11  F   UNL     1       7.643   6.737  16.733  0.00  0.00    +0.000 F 
ATOM     12  C   UNL     1       5.705   6.045  17.882  0.00  0.00    +0.000 A 
ATOM     13  C   UNL     1       4.618   5.159  18.014  0.00  0.00    +0.000 A 
BRANCH   6  15
ATOM     14  N   UNL     1       3.813   1.888  17.881  0.00  0.00    +0.000 N 
ATOM     15  C   UNL     1       3.448   3.031  17.220  0.00  0.00    +0.000 C 
ATOM     16  O   UNL     1       2.309   3.194  16.803  0.00  0.00    +0.000 OA
ATOM     17  H   UNL     1       3.132   1.141  17.919  0.00  0.00    +0.000 HD
ATOM     18  H   UNL     1       4.742   1.704  18.234  0.00  0.00    +0.000 HD
ENDBRANCH   6  15
ENDBRANCH   1  13
BRANCH   3  19
ATOM     19  C   UNL     1       1.133   7.126  21.006  0.00  0.00    +0.000 C 
BRANCH  19  20
ATOM     20  O   UNL     1       1.548   8.495  20.979  0.00  0.00    +0.000 OA
BRANCH  20  21
ATOM     21  C   UNL     1       0.605   9.418  21.336  0.00  0.00    +0.000 A 
ATOM     22  C   UNL     1       0.269   9.435  22.691  0.00  0.00    +0.000 A 
ATOM     23  C   UNL     1      -0.657  10.358  23.184  0.00  0.00    +0.000 A 
ATOM     24  C   UNL     1      -1.247  11.297  22.328  0.00  0.00    +0.000 A 
ATOM     25  C   UNL     1      -0.900  11.280  20.968  0.00  0.00    +0.000 A 
ATOM     26  C   UNL     1       0.021  10.348  20.475  0.00  0.00    +0.000 A 
BRANCH  24  27
ATOM     27  C   UNL     1      -2.223  12.325  22.846  0.00  0.00    +0.000 C 
ATOM     28  F   UNL     1      -1.656  13.258  23.662  0.00  0.00    +0.000 F 
ATOM     29  F   UNL     1      -2.819  13.025  21.840  0.00  0.00    +0.000 F 
ATOM     30  F   UNL     1      -3.237  11.769  23.564  0.00  0.00    +0.000 F 
ENDBRANCH  24  27
ENDBRANCH  20  21
ENDBRANCH  19  20
ENDBRANCH   3  19
TORSDOF 6
ENDMDL
MODEL 6
REMARK VINA RESULT:      -8.1      3.055      4.650
REMARK  Name = 
REMARK  6 active torsions:
REMARK  status: ('A' for Active; 'I' for Inactive)
REMARK    1  A    between atoms: C_2  and  C_4
REMARK    2  A    between atoms: C_11  and  N_12
REMARK    3  A    between atoms: C_14  and  C_15
REMARK    4  A    between atoms: C_15  and  O_16
REMARK    5  A    between atoms: O_16  and  C_17
REMARK    6  A    between atoms: C_20  and  C_21
REMARK                            x       y       z     vdW  Elec       q    Type
REMARK                         _______ _______ _______ _____ _____    ______ ____
ROOT
ATOM      1  N   UNL     1       4.600   4.227  16.640  0.00  0.00    +0.000 N 
ATOM      2  C   UNL     1       3.885   5.266  17.197  0.00  0.00    +0.000 A 
ATOM      3  C   UNL     1       3.238   4.713  18.280  0.00  0.00    +0.000 A 
ATOM      4  N   UNL     1       3.490   3.369  18.301  0.00  0.00    +0.000 NA
ATOM      5  N   UNL     1       4.300   3.081  17.287  0.00  0.00    +0.000 NA
ENDROOT
BRANCH   1  13
ATOM      6  C   UNL     1       6.741   4.701  15.475  0.00  0.00    +0.000 A 
ATOM      7  C   UNL     1       7.454   4.747  14.260  0.00  0.00    +0.000 A 
ATOM      8  C   UNL     1       6.855   4.326  13.080  0.00  0.00    +0.000 A 
ATOM      9  F   UNL     1       7.553   4.374  11.939  0.00  0.00    +0.000 F 
ATOM     10  C   UNL     1       5.545   3.874  13.081  0.00  0.00    +0.000 A 
ATOM     11  F   UNL     1       4.979   3.442  11.946  0.00  0.00    +0.000 F 
ATOM     12  C   UNL     1       4.807   3.861  14.259  0.00  0.00    +0.000 A 
ATOM     13  C   UNL     1       5.397   4.276  15.468  0.00  0.00    +0.000 A 
BRANCH   6  15
ATOM     14  N   UNL     1       7.406   6.634  16.786  0.00  0.00    +0.000 N 
ATOM     15  C   UNL     1       7.426   5.270  16.661  0.00  0.00    +0.000 C 
ATOM     16  O   UNL     1       7.926   4.556  17.520  0.00  0.00    +0.000 OA
ATOM     17  H   UNL     1       7.915   7.032  17.564  0.00  0.00    +0.000 HD
ATOM     18  H   UNL     1       7.014   7.264  16.100  0.00  0.00    +0.000 HD
ENDBRANCH   6  15
ENDBRANCH   1  13
BRANCH   3  19
ATOM     19  C   UNL     1       2.379   5.378  19.296  0.00  0.00    +0.000 C 
BRANCH  19  20
ATOM     20  O   UNL     1       2.961   6.611  19.730  0.00  0.00    +0.000 OA
BRANCH  20  21
ATOM     21  C   UNL     1       2.148   7.710  19.684  0.00  0.00    +0.000 A 
ATOM     22  C   UNL     1       1.999   8.290  18.423  0.00  0.00    +0.000 A 
ATOM     23  C   UNL     1       1.165   9.397  18.242  0.00  0.00    +0.000 A 
ATOM     24  C   UNL     1       0.448   9.929  19.321  0.00  0.00    +0.000 A 
ATOM     25  C   UNL     1       0.596   9.337  20.585  0.00  0.00    +0.000 A 
ATOM     26  C   UNL     1       1.439   8.234  20.766  0.00  0.00    +0.000 A 
BRANCH  24  27
ATOM     27  C   UNL     1      -0.485  11.102  19.141  0.00  0.00    +0.000 C 
ATOM     28  F   UNL     1       0.094  12.308  19.404  0.00  0.00    +0.000 F 
ATOM     29  F   UNL     1      -0.967  11.190  17.870  0.00  0.00    +0.000 F 
ATOM     30  F   UNL     1      -1.577  11.029  19.951  0.00  0.00    +0.000 F 
ENDBRANCH  24  27
ENDBRANCH  20  21
ENDBRANCH  19  20
ENDBRANCH   3  19
TORSDOF 6
ENDMDL
MODEL 7
REMARK VINA RESULT:      -8.1      5.902      9.002
REMARK  Name = 
REMARK  6 active torsions:
REMARK  status: ('A' for Active; 'I' for Inactive)
REMARK    1  A    between atoms: C_2  and  C_4
REMARK    2  A    between atoms: C_11  and  N_12
REMARK    3  A    between atoms: C_14  and  C_15
REMARK    4  A    between atoms: C_15  and  O_16
REMARK    5  A    between atoms: O_16  and  C_17
REMARK    6  A    between atoms: C_20  and  C_21
REMARK                            x       y       z     vdW  Elec       q    Type
REMARK                         _______ _______ _______ _____ _____    ______ ____
ROOT
ATOM      1  N   UNL     1       4.949   5.550  17.800  0.00  0.00    +0.000 N 
ATOM      2  C   UNL     1       6.107   5.901  18.460  0.00  0.00    +0.000 A 
ATOM      3  C   UNL     1       6.714   6.831  17.644  0.00  0.00    +0.000 A 
ATOM      4  N   UNL     1       5.981   6.949  16.495  0.00  0.00    +0.000 NA
ATOM      5  N   UNL     1       4.924   6.150  16.591  0.00  0.00    +0.000 NA
ENDROOT
BRANCH   1  13
ATOM      6  C   UNL     1       2.758   4.926  18.789  0.00  0.00    +0.000 A 
ATOM      7  C   UNL     1       1.881   3.901  19.197  0.00  0.00    +0.000 A 
ATOM      8  C   UNL     1       2.211   2.570  18.980  0.00  0.00    +0.000 A 
ATOM      9  F   UNL     1       1.360   1.613  19.371  0.00  0.00    +0.000 F 
ATOM     10  C   UNL     1       3.414   2.234  18.379  0.00  0.00    +0.000 A 
ATOM     11  F   UNL     1       3.717   0.950  18.146  0.00  0.00    +0.000 F 
ATOM     12  C   UNL     1       4.315   3.225  18.008  0.00  0.00    +0.000 A 
ATOM     13  C   UNL     1       3.997   4.582  18.211  0.00  0.00    +0.000 A 
BRANCH   6  15
ATOM     14  N   UNL     1       2.378   7.239  18.153  0.00  0.00    +0.000 N 
ATOM     15  C   UNL     1       2.370   6.310  19.158  0.00  0.00    +0.000 C 
ATOM     16  O   UNL     1       1.997   6.593  20.290  0.00  0.00    +0.000 OA
ATOM     17  H   UNL     1       2.164   8.194  18.408  0.00  0.00    +0.000 HD
ATOM     18  H   UNL     1       2.686   7.055  17.208  0.00  0.00    +0.000 HD
ENDBRANCH   6  15
ENDBRANCH   1  13
BRANCH   3  19
ATOM     19  C   UNL     1       7.959   7.610  17.879  0.00  0.00    +0.000 C 
BRANCH  19  20
ATOM     20  O   UNL     1       7.867   8.911  17.290  0.00  0.00    +0.000 OA
BRANCH  20  21
ATOM     21  C   UNL     1       8.414   9.938  18.008  0.00  0.00    +0.000 A 
ATOM     22  C   UNL     1       9.032   9.566  19.204  0.00  0.00    +0.000 A 
ATOM     23  C   UNL     1       9.659  10.522  20.009  0.00  0.00    +0.000 A 
ATOM     24  C   UNL     1       9.695  11.866  19.617  0.00  0.00    +0.000 A 
ATOM     25  C   UNL     1       9.078  12.232  18.410  0.00  0.00    +0.000 A 
ATOM     26  C   UNL     1       8.442  11.275  17.610  0.00  0.00    +0.000 A 
BRANCH  24  27
ATOM     27  C   UNL     1      10.396  12.908  20.453  0.00  0.00    +0.000 C 
ATOM     28  F   UNL     1      11.751  12.911  20.303  0.00  0.00    +0.000 F 
ATOM     29  F   UNL     1       9.987  14.173  20.154  0.00  0.00    +0.000 F 
ATOM     30  F   UNL     1      10.169  12.749  21.786  0.00  0.00    +0.000 F 
ENDBRANCH  24  27
ENDBRANCH  20  21
ENDBRANCH  19  20
ENDBRANCH   3  19
TORSDOF 6
ENDMDL
MODEL 8
REMARK VINA RESULT:      -8.1      0.747      1.100
REMARK  Name = 
REMARK  6 active torsions:
REMARK  status: ('A' for Active; 'I' for Inactive)
REMARK    1  A    between atoms: C_2  and  C_4
REMARK    2  A    between atoms: C_11  and  N_12
REMARK    3  A    between atoms: C_14  and  C_15
REMARK    4  A    between atoms: C_15  and  O_16
REMARK    5  A    between atoms: O_16  and  C_17
REMARK    6  A    between atoms: C_20  and  C_21
REMARK                            x       y       z     vdW  Elec       q    Type
REMARK                         _______ _______ _______ _____ _____    ______ ____
ROOT
ATOM      1  N   UNL     1       3.066   7.086  18.317  0.00  0.00    +0.000 N 
ATOM      2  C   UNL     1       2.632   8.268  17.755  0.00  0.00    +0.000 A 
ATOM      3  C   UNL     1       1.920   8.896  18.753  0.00  0.00    +0.000 A 
ATOM      4  N   UNL     1       1.857   8.064  19.836  0.00  0.00    +0.000 NA
ATOM      5  N   UNL     1       2.537   6.957  19.552  0.00  0.00    +0.000 NA
ENDROOT
BRANCH   1  13
ATOM      6  C   UNL     1       3.287   4.769  17.453  0.00  0.00    +0.000 A 
ATOM      7  C   UNL     1       4.098   3.799  16.831  0.00  0.00    +0.000 A 
ATOM      8  C   UNL     1       5.372   4.130  16.390  0.00  0.00    +0.000 A 
ATOM      9  F   UNL     1       6.123   3.194  15.797  0.00  0.00    +0.000 F 
ATOM     10  C   UNL     1       5.867   5.411  16.574  0.00  0.00    +0.000 A 
ATOM     11  F   UNL     1       7.086   5.736  16.122  0.00  0.00    +0.000 F 
ATOM     12  C   UNL     1       5.103   6.373  17.225  0.00  0.00    +0.000 A 
ATOM     13  C   UNL     1       3.804   6.061  17.673  0.00  0.00    +0.000 A 
BRANCH   6  15
ATOM     14  N   UNL     1       1.951   3.956  19.313  0.00  0.00    +0.000 N 
ATOM     15  C   UNL     1       1.985   4.294  17.986  0.00  0.00    +0.000 C 
ATOM     16  O   UNL     1       0.977   4.268  17.292  0.00  0.00    +0.000 OA
ATOM     17  H   UNL     1       1.082   3.584  19.670  0.00  0.00    +0.000 HD
ATOM     18  H   UNL     1       2.757   3.953  19.922  0.00  0.00    +0.000 HD
ENDBRANCH   6  15
ENDBRANCH   1  13
BRANCH   3  19
ATOM     19  C   UNL     1       1.279  10.238  18.742  0.00  0.00    +0.000 C 
BRANCH  19  20
ATOM     20  O   UNL     1       0.121  10.259  19.582  0.00  0.00    +0.000 OA
BRANCH  20  21
ATOM     21  C   UNL     1      -1.056  10.604  18.978  0.00  0.00    +0.000 A 
ATOM     22  C   UNL     1      -1.369   9.881  17.825  0.00  0.00    +0.000 A 
ATOM     23  C   UNL     1      -2.563  10.117  17.137  0.00  0.00    +0.000 A 
ATOM     24  C   UNL     1      -3.475  11.070  17.608  0.00  0.00    +0.000 A 
ATOM     25  C   UNL     1      -3.159  11.788  18.772  0.00  0.00    +0.000 A 
ATOM     26  C   UNL     1      -1.959  11.556  19.454  0.00  0.00    +0.000 A 
BRANCH  24  27
ATOM     27  C   UNL     1      -4.786  11.316  16.902  0.00  0.00    +0.000 C 
ATOM     28  F   UNL     1      -5.062  12.636  16.702  0.00  0.00    +0.000 F 
ATOM     29  F   UNL     1      -4.827  10.737  15.669  0.00  0.00    +0.000 F 
ATOM     30  F   UNL     1      -5.851  10.813  17.586  0.00  0.00    +0.000 F 
ENDBRANCH  24  27
ENDBRANCH  20  21
ENDBRANCH  19  20
ENDBRANCH   3  19
TORSDOF 6
ENDMDL
MODEL 9
REMARK VINA RESULT:      -8.0      3.018      4.472
REMARK  Name = 
REMARK  6 active torsions:
REMARK  status: ('A' for Active; 'I' for Inactive)
REMARK    1  A    between atoms: C_2  and  C_4
REMARK    2  A    between atoms: C_11  and  N_12
REMARK    3  A    between atoms: C_14  and  C_15
REMARK    4  A    between atoms: C_15  and  O_16
REMARK    5  A    between atoms: O_16  and  C_17
REMARK    6  A    between atoms: C_20  and  C_21
REMARK                            x       y       z     vdW  Elec       q    Type
REMARK                         _______ _______ _______ _____ _____    ______ ____
ROOT
ATOM      1  N   UNL     1       4.515   4.314  17.060  0.00  0.00    +0.000 N 
ATOM      2  C   UNL     1       3.687   5.305  17.544  0.00  0.00    +0.000 A 
ATOM      3  C   UNL     1       3.093   4.759  18.660  0.00  0.00    +0.000 A 
ATOM      4  N   UNL     1       3.488   3.454  18.772  0.00  0.00    +0.000 NA
ATOM      5  N   UNL     1       4.333   3.188  17.782  0.00  0.00    +0.000 NA
ENDROOT
BRANCH   1  13
ATOM      6  C   UNL     1       6.668   4.757  15.905  0.00  0.00    +0.000 A 
ATOM      7  C   UNL     1       7.381   4.815  14.691  0.00  0.00    +0.000 A 
ATOM      8  C   UNL     1       6.771   4.442  13.501  0.00  0.00    +0.000 A 
ATOM      9  F   UNL     1       7.469   4.499  12.361  0.00  0.00    +0.000 F 
ATOM     10  C   UNL     1       5.448   4.027  13.492  0.00  0.00    +0.000 A 
ATOM     11  F   UNL     1       4.870   3.640  12.347  0.00  0.00    +0.000 F 
ATOM     12  C   UNL     1       4.711   4.004  14.670  0.00  0.00    +0.000 A 
ATOM     13  C   UNL     1       5.312   4.371  15.889  0.00  0.00    +0.000 A 
BRANCH   6  15
ATOM     14  N   UNL     1       7.661   4.369  18.087  0.00  0.00    +0.000 N 
ATOM     15  C   UNL     1       7.369   5.277  17.105  0.00  0.00    +0.000 C 
ATOM     16  O   UNL     1       7.728   6.445  17.186  0.00  0.00    +0.000 OA
ATOM     17  H   UNL     1       8.092   4.725  18.930  0.00  0.00    +0.000 HD
ATOM     18  H   UNL     1       7.378   3.399  18.070  0.00  0.00    +0.000 HD
ENDBRANCH   6  15
ENDBRANCH   1  13
BRANCH   3  19
ATOM     19  C   UNL     1       2.158   5.393  19.628  0.00  0.00    +0.000 C 
BRANCH  19  20
ATOM     20  O   UNL     1       2.675   6.644  20.094  0.00  0.00    +0.000 OA
BRANCH  20  21
ATOM     21  C   UNL     1       1.927   7.751  19.804  0.00  0.00    +0.000 A 
ATOM     22  C   UNL     1       1.149   8.238  20.856  0.00  0.00    +0.000 A 
ATOM     23  C   UNL     1       0.368   9.386  20.693  0.00  0.00    +0.000 A 
ATOM     24  C   UNL     1       0.372  10.078  19.475  0.00  0.00    +0.000 A 
ATOM     25  C   UNL     1       1.162   9.588  18.424  0.00  0.00    +0.000 A 
ATOM     26  C   UNL     1       1.936   8.433  18.587  0.00  0.00    +0.000 A 
BRANCH  24  27
ATOM     27  C   UNL     1      -0.436  11.339  19.288  0.00  0.00    +0.000 C 
ATOM     28  F   UNL     1      -1.718  11.114  18.882  0.00  0.00    +0.000 F 
ATOM     29  F   UNL     1      -0.532  12.068  20.435  0.00  0.00    +0.000 F 
ATOM     30  F   UNL     1       0.107  12.175  18.360  0.00  0.00    +0.000 F 
ENDBRANCH  24  27
ENDBRANCH  20  21
ENDBRANCH  19  20
ENDBRANCH   3  19
TORSDOF 6
ENDMDL
