MODEL 1
REMARK VINA RESULT:      -4.1      0.000      0.000
REMARK  Name = 
REMARK  1 active torsions:
REMARK  status: ('A' for Active; 'I' for Inactive)
REMARK    1  A    between atoms: C_4  and  O_5
REMARK                            x       y       z     vdW  Elec       q    Type
REMARK                         _______ _______ _______ _____ _____    ______ ____
ROOT
ATOM      1  O   UNL     1       7.304   4.643  15.551  0.00  0.00    +0.000 OA
ATOM      2  C   UNL     1       7.435   5.253  16.593  0.00  0.00    +0.000 C 
ATOM      3  C   UNL     1       7.547   4.641  17.925  0.00  0.00    +0.000 C 
ATOM      4  C   UNL     1       7.675   5.661  18.779  0.00  0.00    +0.000 C 
ATOM      5  C   UNL     1       7.666   7.001  18.120  0.00  0.00    +0.000 C 
ATOM      6  N   UNL     1       7.503   6.614  16.753  0.00  0.00    +0.000 N 
ATOM      7  H   UNL     1       7.446   7.240  15.963  0.00  0.00    +0.000 HD
ENDROOT
BRANCH   4   8
ATOM      8  O   UNL     1       7.804   5.574  20.137  0.00  0.00    +0.000 OA
ATOM      9  H   UNL     1       8.149   6.421  20.471  0.00  0.00    +0.000 HD
ENDBRANCH   4   8
TORSDOF 1
ENDMDL
MODEL 2
REMARK VINA RESULT:      -4.1      5.303      5.665
REMARK  Name = 
REMARK  1 active torsions:
REMARK  status: ('A' for Active; 'I' for Inactive)
REMARK    1  A    between atoms: C_4  and  O_5
REMARK                            x       y       z     vdW  Elec       q    Type
REMARK                         _______ _______ _______ _____ _____    ______ ____
ROOT
ATOM      1  O   UNL     1       1.168   3.933  17.335  0.00  0.00    +0.000 OA
ATOM      2  C   UNL     1       2.111   3.323  17.799  0.00  0.00    +0.000 C 
ATOM      3  C   UNL     1       3.296   3.936  18.416  0.00  0.00    +0.000 C 
ATOM      4  C   UNL     1       4.076   2.915  18.787  0.00  0.00    +0.000 C 
ATOM      5  C   UNL     1       3.503   1.575  18.468  0.00  0.00    +0.000 C 
ATOM      6  N   UNL     1       2.274   1.962  17.846  0.00  0.00    +0.000 N 
ATOM      7  H   UNL     1       1.575   1.334  17.474  0.00  0.00    +0.000 HD
ENDROOT
BRANCH   4   8
ATOM      8  O   UNL     1       5.294   3.004  19.401  0.00  0.00    +0.000 OA
ATOM      9  H   UNL     1       5.219   3.618  20.153  0.00  0.00    +0.000 HD
ENDBRANCH   4   8
TORSDOF 1
ENDMDL
MODEL 3
REMARK VINA RESULT:      -4.1      1.931      2.370
REMARK  Name = 
REMARK  1 active torsions:
REMARK  status: ('A' for Active; 'I' for Inactive)
REMARK    1  A    between atoms: C_4  and  O_5
REMARK                            x       y       z     vdW  Elec       q    Type
REMARK                         _______ _______ _______ _____ _____    ______ ____
ROOT
ATOM      1  O   UNL     1       7.657   7.986  17.153  0.00  0.00    +0.000 OA
ATOM      2  C   UNL     1       7.358   6.809  17.178  0.00  0.00    +0.000 C 
ATOM      3  C   UNL     1       6.850   6.088  18.354  0.00  0.00    +0.000 C 
ATOM      4  C   UNL     1       6.651   4.831  17.946  0.00  0.00    +0.000 C 
ATOM      5  C   UNL     1       6.992   4.605  16.510  0.00  0.00    +0.000 C 
ATOM      6  N   UNL     1       7.428   5.915  16.140  0.00  0.00    +0.000 N 
ATOM      7  H   UNL     1       7.754   6.195  15.225  0.00  0.00    +0.000 HD
ENDROOT
BRANCH   4   8
ATOM      8  O   UNL     1       6.189   3.793  18.705  0.00  0.00    +0.000 OA
ATOM      9  H   UNL     1       6.361   3.993  19.642  0.00  0.00    +0.000 HD
ENDBRANCH   4   8
TORSDOF 1
ENDMDL
MODEL 4
REMARK VINA RESULT:      -4.0      6.751      7.522
REMARK  Name = 
REMARK  1 active torsions:
REMARK  status: ('A' for Active; 'I' for Inactive)
REMARK    1  A    between atoms: C_4  and  O_5
REMARK                            x       y       z     vdW  Elec       q    Type
REMARK                         _______ _______ _______ _____ _____    ______ ____
ROOT
ATOM      1  O   UNL     1       2.067   3.153  22.135  0.00  0.00    +0.000 OA
ATOM      2  C   UNL     1       1.805   2.901  20.976  0.00  0.00    +0.000 C 
ATOM      3  C   UNL     1       2.744   2.329  20.000  0.00  0.00    +0.000 C 
ATOM      4  C   UNL     1       2.053   2.215  18.861  0.00  0.00    +0.000 C 
ATOM      5  C   UNL     1       0.638   2.679  18.969  0.00  0.00    +0.000 C 
ATOM      6  N   UNL     1       0.606   3.090  20.338  0.00  0.00    +0.000 N 
ATOM      7  H   UNL     1      -0.192   3.477  20.821  0.00  0.00    +0.000 HD
ENDROOT
BRANCH   4   8
ATOM      8  O   UNL     1       2.521   1.735  17.670  0.00  0.00    +0.000 OA
ATOM      9  H   UNL     1       1.965   2.090  16.953  0.00  0.00    +0.000 HD
ENDBRANCH   4   8
TORSDOF 1
ENDMDL
MODEL 5
REMARK VINA RESULT:      -4.0      1.682      1.971
REMARK  Name = 
REMARK  1 active torsions:
REMARK  status: ('A' for Active; 'I' for Inactive)
REMARK    1  A    between atoms: C_4  and  O_5
REMARK                            x       y       z     vdW  Elec       q    Type
REMARK                         _______ _______ _______ _____ _____    ______ ____
ROOT
ATOM      1  O   UNL     1       6.582   6.980  16.332  0.00  0.00    +0.000 OA
ATOM      2  C   UNL     1       6.596   6.418  17.409  0.00  0.00    +0.000 C 
ATOM      3  C   UNL     1       7.718   6.433  18.358  0.00  0.00    +0.000 C 
ATOM      4  C   UNL     1       7.316   5.700  19.401  0.00  0.00    +0.000 C 
ATOM      5  C   UNL     1       5.936   5.150  19.252  0.00  0.00    +0.000 C 
ATOM      6  N   UNL     1       5.593   5.664  17.962  0.00  0.00    +0.000 N 
ATOM      7  H   UNL     1       4.718   5.515  17.480  0.00  0.00    +0.000 HD
ENDROOT
BRANCH   4   8
ATOM      8  O   UNL     1       8.037   5.427  20.530  0.00  0.00    +0.000 OA
ATOM      9  H   UNL     1       8.943   5.764  20.408  0.00  0.00    +0.000 HD
ENDBRANCH   4   8
TORSDOF 1
ENDMDL
MODEL 6
REMARK VINA RESULT:      -4.0      6.007      6.425
REMARK  Name = 
REMARK  1 active torsions:
REMARK  status: ('A' for Active; 'I' for Inactive)
REMARK    1  A    between atoms: C_4  and  O_5
REMARK                            x       y       z     vdW  Elec       q    Type
REMARK                         _______ _______ _______ _____ _____    ______ ____
ROOT
ATOM      1  O   UNL     1       0.515   2.740  19.467  0.00  0.00    +0.000 OA
ATOM      2  C   UNL     1       1.670   2.439  19.241  0.00  0.00    +0.000 C 
ATOM      3  C   UNL     1       2.806   2.696  20.138  0.00  0.00    +0.000 C 
ATOM      4  C   UNL     1       3.879   2.208  19.508  0.00  0.00    +0.000 C 
ATOM      5  C   UNL     1       3.570   1.598  18.181  0.00  0.00    +0.000 C 
ATOM      6  N   UNL     1       2.157   1.809  18.124  0.00  0.00    +0.000 N 
ATOM      7  H   UNL     1       1.547   1.535  17.366  0.00  0.00    +0.000 HD
ENDROOT
BRANCH   4   8
ATOM      8  O   UNL     1       5.168   2.229  19.962  0.00  0.00    +0.000 OA
ATOM      9  H   UNL     1       5.633   1.450  19.609  0.00  0.00    +0.000 HD
ENDBRANCH   4   8
TORSDOF 1
ENDMDL
MODEL 7
REMARK VINA RESULT:      -3.9      1.529      3.324
REMARK  Name = 
REMARK  1 active torsions:
REMARK  status: ('A' for Active; 'I' for Inactive)
REMARK    1  A    between atoms: C_4  and  O_5
REMARK                            x       y       z     vdW  Elec       q    Type
REMARK                         _______ _______ _______ _____ _____    ______ ____
ROOT
ATOM      1  O   UNL     1       7.091   5.429  20.039  0.00  0.00    +0.000 OA
ATOM      2  C   UNL     1       6.947   5.212  18.853  0.00  0.00    +0.000 C 
ATOM      3  C   UNL     1       7.482   6.046  17.767  0.00  0.00    +0.000 C 
ATOM      4  C   UNL     1       7.095   5.451  16.634  0.00  0.00    +0.000 C 
ATOM      5  C   UNL     1       6.299   4.207  16.850  0.00  0.00    +0.000 C 
ATOM      6  N   UNL     1       6.268   4.166  18.279  0.00  0.00    +0.000 N 
ATOM      7  H   UNL     1       5.814   3.461  18.842  0.00  0.00    +0.000 HD
ENDROOT
BRANCH   4   8
ATOM      8  O   UNL     1       7.357   5.877  15.361  0.00  0.00    +0.000 OA
ATOM      9  H   UNL     1       7.079   6.806  15.282  0.00  0.00    +0.000 HD
ENDBRANCH   4   8
TORSDOF 1
ENDMDL
MODEL 8
REMARK VINA RESULT:      -3.9      1.541      1.753
REMARK  Name = 
REMARK  1 active torsions:
REMARK  status: ('A' for Active; 'I' for Inactive)
REMARK    1  A    between atoms: C_4  and  O_5
REMARK                            x       y       z     vdW  Elec       q    Type
REMARK                         _______ _______ _______ _____ _____    ______ ____
ROOT
ATOM      1  O   UNL     1       7.111   5.284  14.206  0.00  0.00    +0.000 OA
ATOM      2  C   UNL     1       7.033   5.282  15.418  0.00  0.00    +0.000 C 
ATOM      3  C   UNL     1       6.494   4.183  16.232  0.00  0.00    +0.000 C 
ATOM      4  C   UNL     1       6.596   4.592  17.500  0.00  0.00    +0.000 C 
ATOM      5  C   UNL     1       7.193   5.952  17.647  0.00  0.00    +0.000 C 
ATOM      6  N   UNL     1       7.419   6.283  16.274  0.00  0.00    +0.000 N 
ATOM      7  H   UNL     1       7.821   7.144  15.931  0.00  0.00    +0.000 HD
ENDROOT
BRANCH   4   8
ATOM      8  O   UNL     1       6.210   3.897  18.612  0.00  0.00    +0.000 OA
ATOM      9  H   UNL     1       5.488   3.292  18.365  0.00  0.00    +0.000 HD
ENDBRANCH   4   8
TORSDOF 1
ENDMDL
MODEL 9
REMARK VINA RESULT:      -3.9      1.602      3.184
REMARK  Name = 
REMARK  1 active torsions:
REMARK  status: ('A' for Active; 'I' for Inactive)
REMARK    1  A    between atoms: C_4  and  O_5
REMARK                            x       y       z     vdW  Elec       q    Type
REMARK                         _______ _______ _______ _____ _____    ______ ____
ROOT
ATOM      1  O   UNL     1       8.051   5.149  19.286  0.00  0.00    +0.000 OA
ATOM      2  C   UNL     1       7.573   5.191  18.170  0.00  0.00    +0.000 C 
ATOM      3  C   UNL     1       6.625   6.206  17.691  0.00  0.00    +0.000 C 
ATOM      4  C   UNL     1       6.361   5.880  16.422  0.00  0.00    +0.000 C 
ATOM      5  C   UNL     1       7.086   4.663  15.951  0.00  0.00    +0.000 C 
ATOM      6  N   UNL     1       7.808   4.319  17.137  0.00  0.00    +0.000 N 
ATOM      7  H   UNL     1       8.434   3.534  17.242  0.00  0.00    +0.000 HD
ENDROOT
BRANCH   4   8
ATOM      8  O   UNL     1       5.519   6.540  15.570  0.00  0.00    +0.000 OA
ATOM      9  H   UNL     1       4.603   6.401  15.871  0.00  0.00    +0.000 HD
ENDBRANCH   4   8
TORSDOF 1
ENDMDL
