MODEL 1
REMARK VINA RESULT:      -7.5      0.000      0.000
REMARK  Name = 
REMARK  10 active torsions:
REMARK  status: ('A' for Active; 'I' for Inactive)
REMARK    1  A    between atoms: C_1  and  O_2
REMARK    2  A    between atoms: O_2  and  C_3
REMARK    3  A    between atoms: C_3  and  C_4
REMARK    4  A    between atoms: C_4  and  S_5
REMARK    5  A    between atoms: S_5  and  N_8
REMARK    6  A    between atoms: N_8  and  C_9
REMARK    7  A    between atoms: C_12  and  O_13
REMARK    8  A    between atoms: O_13  and  C_14
REMARK    9  A    between atoms: C_22  and  C_23
REMARK   10  A    between atoms: N_25  and  C_26
REMARK                            x       y       z     vdW  Elec       q    Type
REMARK                         _______ _______ _______ _____ _____    ______ ____
ROOT
ATOM      1  C   UNL     1       2.376   8.884  17.760  0.00  0.00    +0.000 A 
ATOM      2  C   UNL     1       1.223   8.138  17.953  0.00  0.00    +0.000 A 
ATOM      3  C   UNL     1       1.299   6.746  18.028  0.00  0.00    +0.000 A 
ATOM      4  C   UNL     1       2.516   6.063  17.815  0.00  0.00    +0.000 A 
ATOM      5  C   UNL     1       3.695   6.818  17.651  0.00  0.00    +0.000 A 
ATOM      6  C   UNL     1       3.601   8.231  17.609  0.00  0.00    +0.000 A 
ENDROOT
BRANCH   5   7
ATOM      7  C   UNL     1       5.072   6.266  17.537  0.00  0.00    +0.000 A 
ATOM      8  C   UNL     1       5.831   6.236  18.660  0.00  0.00    +0.000 A 
ATOM      9  N   UNL     1       7.041   5.530  18.743  0.00  0.00    +0.000 N 
ATOM     10  C   UNL     1       7.746   5.440  20.007  0.00  0.00    +0.000 C 
ATOM     11  C   UNL     1       7.551   4.764  17.673  0.00  0.00    +0.000 A 
ATOM     12  O   UNL     1       8.586   4.103  17.730  0.00  0.00    +0.000 OA
ATOM     13  C   UNL     1       6.720   4.813  16.498  0.00  0.00    +0.000 A 
ATOM     14  N   UNL     1       6.910   4.141  15.322  0.00  0.00    +0.000 N 
ATOM     15  C   UNL     1       5.876   4.437  14.466  0.00  0.00    +0.000 A 
ATOM     16  C   UNL     1       5.021   5.317  15.103  0.00  0.00    +0.000 A 
ATOM     17  C   UNL     1       5.546   5.530  16.396  0.00  0.00    +0.000 A 
ATOM     18  H   UNL     1       7.681   3.510  15.138  0.00  0.00    +0.000 HD
ENDBRANCH   5   7
BRANCH   1  19
ATOM     19  N   UNL     1       2.290  10.316  17.702  0.00  0.00    +0.000 N 
ATOM     20  H   UNL     1       2.052  10.635  16.760  0.00  0.00    +0.000 HD
BRANCH  19  21
ATOM     21  S   UNL     1       1.182  11.030  18.780  0.00  0.00    +0.000 S 
ATOM     22  O   UNL     1      -0.165  10.837  18.295  0.00  0.00    +0.000 OA
ATOM     23  O   UNL     1       1.704  12.347  19.072  0.00  0.00    +0.000 OA
BRANCH  21  24
ATOM     24  C   UNL     1       1.397  10.006  20.231  0.00  0.00    +0.000 C 
BRANCH  24  25
ATOM     25  C   UNL     1       0.100   9.970  21.022  0.00  0.00    +0.000 C 
BRANCH  25  27
ATOM     26  C   UNL     1      -0.867  10.480  23.110  0.00  0.00    +0.000 C 
ATOM     27  O   UNL     1       0.285  10.626  22.281  0.00  0.00    +0.000 OA
ENDBRANCH  25  27
ENDBRANCH  24  25
ENDBRANCH  21  24
ENDBRANCH  19  21
ENDBRANCH   1  19
BRANCH   4  28
ATOM     28  O   UNL     1       2.580   4.676  17.789  0.00  0.00    +0.000 OA
BRANCH  28  29
ATOM     29  C   UNL     1       2.445   3.987  18.988  0.00  0.00    +0.000 A 
ATOM     30  C   UNL     1       1.199   4.012  19.624  0.00  0.00    +0.000 A 
ATOM     31  C   UNL     1       0.991   3.257  20.784  0.00  0.00    +0.000 A 
ATOM     32  C   UNL     1       2.025   2.483  21.303  0.00  0.00    +0.000 A 
ATOM     33  F   UNL     1       1.802   1.726  22.383  0.00  0.00    +0.000 F 
ATOM     34  C   UNL     1       3.283   2.493  20.718  0.00  0.00    +0.000 A 
ATOM     35  C   UNL     1       3.497   3.275  19.587  0.00  0.00    +0.000 A 
ATOM     36  F   UNL     1       4.726   3.289  19.052  0.00  0.00    +0.000 F 
ENDBRANCH  28  29
ENDBRANCH   4  28
TORSDOF 8
ENDMDL
MODEL 2
REMARK VINA RESULT:      -7.5      1.555      1.840
REMARK  Name = 
REMARK  10 active torsions:
REMARK  status: ('A' for Active; 'I' for Inactive)
REMARK    1  A    between atoms: C_1  and  O_2
REMARK    2  A    between atoms: O_2  and  C_3
REMARK    3  A    between atoms: C_3  and  C_4
REMARK    4  A    between atoms: C_4  and  S_5
REMARK    5  A    between atoms: S_5  and  N_8
REMARK    6  A    between atoms: N_8  and  C_9
REMARK    7  A    between atoms: C_12  and  O_13
REMARK    8  A    between atoms: O_13  and  C_14
REMARK    9  A    between atoms: C_22  and  C_23
REMARK   10  A    between atoms: N_25  and  C_26
REMARK                            x       y       z     vdW  Elec       q    Type
REMARK                         _______ _______ _______ _____ _____    ______ ____
ROOT
ATOM      1  C   UNL     1       2.352   8.741  17.776  0.00  0.00    +0.000 A 
ATOM      2  C   UNL     1       1.221   7.973  18.011  0.00  0.00    +0.000 A 
ATOM      3  C   UNL     1       1.334   6.586  18.126  0.00  0.00    +0.000 A 
ATOM      4  C   UNL     1       2.564   5.927  17.912  0.00  0.00    +0.000 A 
ATOM      5  C   UNL     1       3.721   6.706  17.705  0.00  0.00    +0.000 A 
ATOM      6  C   UNL     1       3.590   8.114  17.622  0.00  0.00    +0.000 A 
ENDROOT
BRANCH   5   7
ATOM      7  C   UNL     1       5.109   6.185  17.583  0.00  0.00    +0.000 A 
ATOM      8  C   UNL     1       5.866   6.150  18.707  0.00  0.00    +0.000 A 
ATOM      9  N   UNL     1       7.091   5.467  18.779  0.00  0.00    +0.000 N 
ATOM     10  C   UNL     1       7.796   5.367  20.043  0.00  0.00    +0.000 C 
ATOM     11  C   UNL     1       7.619   4.733  17.696  0.00  0.00    +0.000 A 
ATOM     12  O   UNL     1       8.667   4.092  17.742  0.00  0.00    +0.000 OA
ATOM     13  C   UNL     1       6.789   4.787  16.520  0.00  0.00    +0.000 A 
ATOM     14  N   UNL     1       6.995   4.142  15.331  0.00  0.00    +0.000 N 
ATOM     15  C   UNL     1       5.957   4.434  14.479  0.00  0.00    +0.000 A 
ATOM     16  C   UNL     1       5.083   5.282  15.131  0.00  0.00    +0.000 A 
ATOM     17  C   UNL     1       5.600   5.482  16.429  0.00  0.00    +0.000 A 
ATOM     18  H   UNL     1       7.780   3.532  15.137  0.00  0.00    +0.000 HD
ENDBRANCH   5   7
BRANCH   1  19
ATOM     19  N   UNL     1       2.229  10.169  17.677  0.00  0.00    +0.000 N 
ATOM     20  H   UNL     1       1.879  10.448  16.757  0.00  0.00    +0.000 HD
BRANCH  19  21
ATOM     21  S   UNL     1       1.234  10.903  18.848  0.00  0.00    +0.000 S 
ATOM     22  O   UNL     1       1.352  10.196  20.102  0.00  0.00    +0.000 OA
ATOM     23  O   UNL     1      -0.046  11.109  18.208  0.00  0.00    +0.000 OA
BRANCH  21  24
ATOM     24  C   UNL     1       2.030  12.494  19.035  0.00  0.00    +0.000 C 
BRANCH  24  25
ATOM     25  C   UNL     1       1.209  13.365  19.969  0.00  0.00    +0.000 C 
BRANCH  25  27
ATOM     26  C   UNL     1       2.372  14.641  21.574  0.00  0.00    +0.000 C 
ATOM     27  O   UNL     1       1.802  13.368  21.273  0.00  0.00    +0.000 OA
ENDBRANCH  25  27
ENDBRANCH  24  25
ENDBRANCH  21  24
ENDBRANCH  19  21
ENDBRANCH   1  19
BRANCH   4  28
ATOM     28  O   UNL     1       2.663   4.542  17.925  0.00  0.00    +0.000 OA
BRANCH  28  29
ATOM     29  C   UNL     1       2.282   3.865  19.077  0.00  0.00    +0.000 A 
ATOM     30  C   UNL     1       3.068   4.023  20.223  0.00  0.00    +0.000 A 
ATOM     31  C   UNL     1       2.671   3.435  21.429  0.00  0.00    +0.000 A 
ATOM     32  C   UNL     1       1.494   2.693  21.485  0.00  0.00    +0.000 A 
ATOM     33  F   UNL     1       1.097   2.177  22.654  0.00  0.00    +0.000 F 
ATOM     34  C   UNL     1       0.734   2.478  20.345  0.00  0.00    +0.000 A 
ATOM     35  C   UNL     1       1.153   3.032  19.139  0.00  0.00    +0.000 A 
ATOM     36  F   UNL     1       0.417   2.792  18.045  0.00  0.00    +0.000 F 
ENDBRANCH  28  29
ENDBRANCH   4  28
TORSDOF 8
ENDMDL
MODEL 3
REMARK VINA RESULT:      -7.4      1.311      1.710
REMARK  Name = 
REMARK  10 active torsions:
REMARK  status: ('A' for Active; 'I' for Inactive)
REMARK    1  A    between atoms: C_1  and  O_2
REMARK    2  A    between atoms: O_2  and  C_3
REMARK    3  A    between atoms: C_3  and  C_4
REMARK    4  A    between atoms: C_4  and  S_5
REMARK    5  A    between atoms: S_5  and  N_8
REMARK    6  A    between atoms: N_8  and  C_9
REMARK    7  A    between atoms: C_12  and  O_13
REMARK    8  A    between atoms: O_13  and  C_14
REMARK    9  A    between atoms: C_22  and  C_23
REMARK   10  A    between atoms: N_25  and  C_26
REMARK                            x       y       z     vdW  Elec       q    Type
REMARK                         _______ _______ _______ _____ _____    ______ ____
ROOT
ATOM      1  C   UNL     1       2.382   8.848  17.769  0.00  0.00    +0.000 A 
ATOM      2  C   UNL     1       1.233   8.099  17.974  0.00  0.00    +0.000 A 
ATOM      3  C   UNL     1       1.315   6.707  18.055  0.00  0.00    +0.000 A 
ATOM      4  C   UNL     1       2.532   6.028  17.836  0.00  0.00    +0.000 A 
ATOM      5  C   UNL     1       3.708   6.786  17.660  0.00  0.00    +0.000 A 
ATOM      6  C   UNL     1       3.609   8.198  17.612  0.00  0.00    +0.000 A 
ENDROOT
BRANCH   5   7
ATOM      7  C   UNL     1       5.086   6.238  17.539  0.00  0.00    +0.000 A 
ATOM      8  C   UNL     1       5.855   6.222  18.655  0.00  0.00    +0.000 A 
ATOM      9  N   UNL     1       7.069   5.521  18.734  0.00  0.00    +0.000 N 
ATOM     10  C   UNL     1       7.785   5.446  19.993  0.00  0.00    +0.000 C 
ATOM     11  C   UNL     1       7.572   4.747  17.667  0.00  0.00    +0.000 A 
ATOM     12  O   UNL     1       8.609   4.090  17.721  0.00  0.00    +0.000 OA
ATOM     13  C   UNL     1       6.730   4.781  16.500  0.00  0.00    +0.000 A 
ATOM     14  N   UNL     1       6.912   4.098  15.328  0.00  0.00    +0.000 N 
ATOM     15  C   UNL     1       5.869   4.383  14.478  0.00  0.00    +0.000 A 
ATOM     16  C   UNL     1       5.017   5.265  15.115  0.00  0.00    +0.000 A 
ATOM     17  C   UNL     1       5.552   5.493  16.401  0.00  0.00    +0.000 A 
ATOM     18  H   UNL     1       7.684   3.469  15.143  0.00  0.00    +0.000 HD
ENDBRANCH   5   7
BRANCH   1  19
ATOM     19  N   UNL     1       2.291  10.280  17.705  0.00  0.00    +0.000 N 
ATOM     20  H   UNL     1       1.997  10.591  16.777  0.00  0.00    +0.000 HD
BRANCH  19  21
ATOM     21  S   UNL     1       1.248  11.001  18.842  0.00  0.00    +0.000 S 
ATOM     22  O   UNL     1       1.404  10.358  20.126  0.00  0.00    +0.000 OA
ATOM     23  O   UNL     1      -0.040  11.099  18.191  0.00  0.00    +0.000 OA
BRANCH  21  24
ATOM     24  C   UNL     1       1.944  12.645  18.961  0.00  0.00    +0.000 C 
BRANCH  24  25
ATOM     25  C   UNL     1       1.711  13.193  20.358  0.00  0.00    +0.000 C 
BRANCH  25  27
ATOM     26  C   UNL     1       1.558  15.074  18.945  0.00  0.00    +0.000 C 
ATOM     27  O   UNL     1       1.517  14.611  20.294  0.00  0.00    +0.000 OA
ENDBRANCH  25  27
ENDBRANCH  24  25
ENDBRANCH  21  24
ENDBRANCH  19  21
ENDBRANCH   1  19
BRANCH   4  28
ATOM     28  O   UNL     1       2.601   4.641  17.816  0.00  0.00    +0.000 OA
BRANCH  28  29
ATOM     29  C   UNL     1       2.445   3.955  19.014  0.00  0.00    +0.000 A 
ATOM     30  C   UNL     1       1.184   3.967  19.619  0.00  0.00    +0.000 A 
ATOM     31  C   UNL     1       0.957   3.215  20.777  0.00  0.00    +0.000 A 
ATOM     32  C   UNL     1       1.989   2.456  21.324  0.00  0.00    +0.000 A 
ATOM     33  F   UNL     1       1.748   1.701  22.402  0.00  0.00    +0.000 F 
ATOM     34  C   UNL     1       3.260   2.479  20.770  0.00  0.00    +0.000 A 
ATOM     35  C   UNL     1       3.491   3.259  19.642  0.00  0.00    +0.000 A 
ATOM     36  F   UNL     1       4.733   3.286  19.136  0.00  0.00    +0.000 F 
ENDBRANCH  28  29
ENDBRANCH   4  28
TORSDOF 8
ENDMDL
MODEL 4
REMARK VINA RESULT:      -7.4      1.000      1.151
REMARK  Name = 
REMARK  10 active torsions:
REMARK  status: ('A' for Active; 'I' for Inactive)
REMARK    1  A    between atoms: C_1  and  O_2
REMARK    2  A    between atoms: O_2  and  C_3
REMARK    3  A    between atoms: C_3  and  C_4
REMARK    4  A    between atoms: C_4  and  S_5
REMARK    5  A    between atoms: S_5  and  N_8
REMARK    6  A    between atoms: N_8  and  C_9
REMARK    7  A    between atoms: C_12  and  O_13
REMARK    8  A    between atoms: O_13  and  C_14
REMARK    9  A    between atoms: C_22  and  C_23
REMARK   10  A    between atoms: N_25  and  C_26
REMARK                            x       y       z     vdW  Elec       q    Type
REMARK                         _______ _______ _______ _____ _____    ______ ____
ROOT
ATOM      1  C   UNL     1       2.373   8.861  17.756  0.00  0.00    +0.000 A 
ATOM      2  C   UNL     1       1.228   8.107  17.967  0.00  0.00    +0.000 A 
ATOM      3  C   UNL     1       1.318   6.717  18.063  0.00  0.00    +0.000 A 
ATOM      4  C   UNL     1       2.540   6.042  17.855  0.00  0.00    +0.000 A 
ATOM      5  C   UNL     1       3.711   6.806  17.673  0.00  0.00    +0.000 A 
ATOM      6  C   UNL     1       3.604   8.217  17.609  0.00  0.00    +0.000 A 
ENDROOT
BRANCH   5   7
ATOM      7  C   UNL     1       5.093   6.265  17.560  0.00  0.00    +0.000 A 
ATOM      8  C   UNL     1       5.841   6.217  18.690  0.00  0.00    +0.000 A 
ATOM      9  N   UNL     1       7.056   5.516  18.770  0.00  0.00    +0.000 N 
ATOM     10  C   UNL     1       7.750   5.406  20.038  0.00  0.00    +0.000 C 
ATOM     11  C   UNL     1       7.580   4.776  17.689  0.00  0.00    +0.000 A 
ATOM     12  O   UNL     1       8.619   4.120  17.742  0.00  0.00    +0.000 OA
ATOM     13  C   UNL     1       6.759   4.844  16.508  0.00  0.00    +0.000 A 
ATOM     14  N   UNL     1       6.965   4.196  15.320  0.00  0.00    +0.000 N 
ATOM     15  C   UNL     1       5.936   4.504  14.460  0.00  0.00    +0.000 A 
ATOM     16  C   UNL     1       5.070   5.365  15.108  0.00  0.00    +0.000 A 
ATOM     17  C   UNL     1       5.582   5.555  16.409  0.00  0.00    +0.000 A 
ATOM     18  H   UNL     1       7.742   3.575  15.130  0.00  0.00    +0.000 HD
ENDBRANCH   5   7
BRANCH   1  19
ATOM     19  N   UNL     1       2.274  10.292  17.677  0.00  0.00    +0.000 N 
ATOM     20  H   UNL     1       2.157  10.601  16.709  0.00  0.00    +0.000 HD
BRANCH  19  21
ATOM     21  S   UNL     1       1.023  10.993  18.594  0.00  0.00    +0.000 S 
ATOM     22  O   UNL     1      -0.258  10.571  18.077  0.00  0.00    +0.000 OA
ATOM     23  O   UNL     1       1.366  12.392  18.729  0.00  0.00    +0.000 OA
BRANCH  21  24
ATOM     24  C   UNL     1       1.265  10.200  20.179  0.00  0.00    +0.000 C 
BRANCH  24  25
ATOM     25  C   UNL     1      -0.071  10.070  20.890  0.00  0.00    +0.000 C 
BRANCH  25  27
ATOM     26  C   UNL     1       1.066   8.105  21.527  0.00  0.00    +0.000 C 
ATOM     27  O   UNL     1      -0.203   8.751  21.432  0.00  0.00    +0.000 OA
ENDBRANCH  25  27
ENDBRANCH  24  25
ENDBRANCH  21  24
ENDBRANCH  19  21
ENDBRANCH   1  19
BRANCH   4  28
ATOM     28  O   UNL     1       2.617   4.656  17.850  0.00  0.00    +0.000 OA
BRANCH  28  29
ATOM     29  C   UNL     1       2.287   3.973  19.014  0.00  0.00    +0.000 A 
ATOM     30  C   UNL     1       2.570   4.586  20.239  0.00  0.00    +0.000 A 
ATOM     31  C   UNL     1       2.171   3.976  21.433  0.00  0.00    +0.000 A 
ATOM     32  C   UNL     1       1.493   2.760  21.400  0.00  0.00    +0.000 A 
ATOM     33  F   UNL     1       1.072   2.211  22.545  0.00  0.00    +0.000 F 
ATOM     34  C   UNL     1       1.256   2.111  20.197  0.00  0.00    +0.000 A 
ATOM     35  C   UNL     1       1.689   2.702  19.014  0.00  0.00    +0.000 A 
ATOM     36  F   UNL     1       1.471   2.047  17.865  0.00  0.00    +0.000 F 
ENDBRANCH  28  29
ENDBRANCH   4  28
TORSDOF 8
ENDMDL
MODEL 5
REMARK VINA RESULT:      -7.4      2.061      2.579
REMARK  Name = 
REMARK  10 active torsions:
REMARK  status: ('A' for Active; 'I' for Inactive)
REMARK    1  A    between atoms: C_1  and  O_2
REMARK    2  A    between atoms: O_2  and  C_3
REMARK    3  A    between atoms: C_3  and  C_4
REMARK    4  A    between atoms: C_4  and  S_5
REMARK    5  A    between atoms: S_5  and  N_8
REMARK    6  A    between atoms: N_8  and  C_9
REMARK    7  A    between atoms: C_12  and  O_13
REMARK    8  A    between atoms: O_13  and  C_14
REMARK    9  A    between atoms: C_22  and  C_23
REMARK   10  A    between atoms: N_25  and  C_26
REMARK                            x       y       z     vdW  Elec       q    Type
REMARK                         _______ _______ _______ _____ _____    ______ ____
ROOT
ATOM      1  C   UNL     1       1.400   9.084  18.494  0.00  0.00    +0.000 A 
ATOM      2  C   UNL     1       1.014   8.679  19.762  0.00  0.00    +0.000 A 
ATOM      3  C   UNL     1       1.694   7.638  20.397  0.00  0.00    +0.000 A 
ATOM      4  C   UNL     1       2.712   6.915  19.740  0.00  0.00    +0.000 A 
ATOM      5  C   UNL     1       3.129   7.345  18.463  0.00  0.00    +0.000 A 
ATOM      6  C   UNL     1       2.447   8.423  17.849  0.00  0.00    +0.000 A 
ENDROOT
BRANCH   5   7
ATOM      7  C   UNL     1       4.263   6.778  17.683  0.00  0.00    +0.000 A 
ATOM      8  C   UNL     1       5.445   7.441  17.722  0.00  0.00    +0.000 A 
ATOM      9  N   UNL     1       6.642   6.892  17.235  0.00  0.00    +0.000 N 
ATOM     10  C   UNL     1       7.894   7.603  17.414  0.00  0.00    +0.000 C 
ATOM     11  C   UNL     1       6.719   5.592  16.694  0.00  0.00    +0.000 A 
ATOM     12  O   UNL     1       7.759   5.070  16.298  0.00  0.00    +0.000 OA
ATOM     13  C   UNL     1       5.449   4.914  16.671  0.00  0.00    +0.000 A 
ATOM     14  N   UNL     1       5.202   3.632  16.260  0.00  0.00    +0.000 N 
ATOM     15  C   UNL     1       3.864   3.361  16.425  0.00  0.00    +0.000 A 
ATOM     16  C   UNL     1       3.251   4.487  16.940  0.00  0.00    +0.000 A 
ATOM     17  C   UNL     1       4.261   5.456  17.117  0.00  0.00    +0.000 A 
ATOM     18  H   UNL     1       5.908   2.993  15.915  0.00  0.00    +0.000 HD
ENDBRANCH   5   7
BRANCH   1  19
ATOM     19  N   UNL     1       0.706  10.168  17.856  0.00  0.00    +0.000 N 
ATOM     20  H   UNL     1      -0.188   9.858  17.467  0.00  0.00    +0.000 HD
BRANCH  19  21
ATOM     21  S   UNL     1       0.394  11.522  18.840  0.00  0.00    +0.000 S 
ATOM     22  O   UNL     1       0.597  12.735  18.083  0.00  0.00    +0.000 OA
ATOM     23  O   UNL     1       1.090  11.276  20.084  0.00  0.00    +0.000 OA
BRANCH  21  24
ATOM     24  C   UNL     1      -1.361  11.343  19.135  0.00  0.00    +0.000 C 
BRANCH  24  25
ATOM     25  C   UNL     1      -2.124  11.667  17.862  0.00  0.00    +0.000 C 
BRANCH  25  27
ATOM     26  C   UNL     1      -2.797  10.801  15.775  0.00  0.00    +0.000 C 
ATOM     27  O   UNL     1      -1.975  10.596  16.923  0.00  0.00    +0.000 OA
ENDBRANCH  25  27
ENDBRANCH  24  25
ENDBRANCH  21  24
ENDBRANCH  19  21
ENDBRANCH   1  19
BRANCH   4  28
ATOM     28  O   UNL     1       3.324   5.816  20.327  0.00  0.00    +0.000 OA
BRANCH  28  29
ATOM     29  C   UNL     1       2.745   4.565  20.149  0.00  0.00    +0.000 A 
ATOM     30  C   UNL     1       1.350   4.477  20.175  0.00  0.00    +0.000 A 
ATOM     31  C   UNL     1       0.722   3.256  19.908  0.00  0.00    +0.000 A 
ATOM     32  C   UNL     1       1.489   2.130  19.617  0.00  0.00    +0.000 A 
ATOM     33  F   UNL     1       0.878   0.979  19.314  0.00  0.00    +0.000 F 
ATOM     34  C   UNL     1       2.874   2.187  19.644  0.00  0.00    +0.000 A 
ATOM     35  C   UNL     1       3.495   3.395  19.949  0.00  0.00    +0.000 A 
ATOM     36  F   UNL     1       4.834   3.422  19.993  0.00  0.00    +0.000 F 
ENDBRANCH  28  29
ENDBRANCH   4  28
TORSDOF 8
ENDMDL
MODEL 6
REMARK VINA RESULT:      -7.3      4.837      8.437
REMARK  Name = 
REMARK  10 active torsions:
REMARK  status: ('A' for Active; 'I' for Inactive)
REMARK    1  A    between atoms: C_1  and  O_2
REMARK    2  A    between atoms: O_2  and  C_3
REMARK    3  A    between atoms: C_3  and  C_4
REMARK    4  A    between atoms: C_4  and  S_5
REMARK    5  A    between atoms: S_5  and  N_8
REMARK    6  A    between atoms: N_8  and  C_9
REMARK    7  A    between atoms: C_12  and  O_13
REMARK    8  A    between atoms: O_13  and  C_14
REMARK    9  A    between atoms: C_22  and  C_23
REMARK   10  A    between atoms: N_25  and  C_26
REMARK                            x       y       z     vdW  Elec       q    Type
REMARK                         _______ _______ _______ _____ _____    ______ ____
ROOT
ATOM      1  C   UNL     1      -2.499  11.504  17.704  0.00  0.00    +0.000 A 
ATOM      2  C   UNL     1      -1.910  10.341  17.230  0.00  0.00    +0.000 A 
ATOM      3  C   UNL     1      -0.684   9.920  17.750  0.00  0.00    +0.000 A 
ATOM      4  C   UNL     1       0.027  10.704  18.684  0.00  0.00    +0.000 A 
ATOM      5  C   UNL     1      -0.582  11.869  19.191  0.00  0.00    +0.000 A 
ATOM      6  C   UNL     1      -1.841  12.263  18.674  0.00  0.00    +0.000 A 
ENDROOT
BRANCH   5   7
ATOM      7  C   UNL     1      -0.031  12.742  20.263  0.00  0.00    +0.000 A 
ATOM      8  C   UNL     1       0.933  13.630  19.916  0.00  0.00    +0.000 A 
ATOM      9  N   UNL     1       1.359  14.663  20.765  0.00  0.00    +0.000 N 
ATOM     10  C   UNL     1       2.310  15.650  20.291  0.00  0.00    +0.000 C 
ATOM     11  C   UNL     1       0.795  14.883  22.040  0.00  0.00    +0.000 A 
ATOM     12  O   UNL     1       1.119  15.803  22.788  0.00  0.00    +0.000 OA
ATOM     13  C   UNL     1      -0.228  13.927  22.375  0.00  0.00    +0.000 A 
ATOM     14  N   UNL     1      -0.998  13.902  23.507  0.00  0.00    +0.000 N 
ATOM     15  C   UNL     1      -1.875  12.847  23.427  0.00  0.00    +0.000 A 
ATOM     16  C   UNL     1      -1.656  12.187  22.233  0.00  0.00    +0.000 A 
ATOM     17  C   UNL     1      -0.632  12.889  21.562  0.00  0.00    +0.000 A 
ATOM     18  H   UNL     1      -0.933  14.576  24.261  0.00  0.00    +0.000 HD
ENDBRANCH   5   7
BRANCH   1  19
ATOM     19  N   UNL     1      -3.769  11.919  17.177  0.00  0.00    +0.000 N 
ATOM     20  H   UNL     1      -3.862  11.663  16.191  0.00  0.00    +0.000 HD
BRANCH  19  21
ATOM     21  S   UNL     1      -5.136  11.317  17.994  0.00  0.00    +0.000 S 
ATOM     22  O   UNL     1      -4.952   9.914  18.286  0.00  0.00    +0.000 OA
ATOM     23  O   UNL     1      -6.283  11.797  17.256  0.00  0.00    +0.000 OA
BRANCH  21  24
ATOM     24  C   UNL     1      -5.044  12.217  19.537  0.00  0.00    +0.000 C 
BRANCH  24  25
ATOM     25  C   UNL     1      -6.232  11.849  20.410  0.00  0.00    +0.000 C 
BRANCH  25  27
ATOM     26  C   UNL     1      -5.275  13.305  21.997  0.00  0.00    +0.000 C 
ATOM     27  O   UNL     1      -5.895  12.037  21.789  0.00  0.00    +0.000 OA
ENDBRANCH  25  27
ENDBRANCH  24  25
ENDBRANCH  21  24
ENDBRANCH  19  21
ENDBRANCH   1  19
BRANCH   4  28
ATOM     28  O   UNL     1       1.292  10.341  19.129  0.00  0.00    +0.000 OA
BRANCH  28  29
ATOM     29  C   UNL     1       1.578   8.989  19.272  0.00  0.00    +0.000 A 
ATOM     30  C   UNL     1       2.201   8.333  18.206  0.00  0.00    +0.000 A 
ATOM     31  C   UNL     1       2.592   6.996  18.341  0.00  0.00    +0.000 A 
ATOM     32  C   UNL     1       2.358   6.322  19.537  0.00  0.00    +0.000 A 
ATOM     33  F   UNL     1       2.780   5.060  19.674  0.00  0.00    +0.000 F 
ATOM     34  C   UNL     1       1.689   6.941  20.583  0.00  0.00    +0.000 A 
ATOM     35  C   UNL     1       1.268   8.258  20.430  0.00  0.00    +0.000 A 
ATOM     36  F   UNL     1       0.603   8.830  21.444  0.00  0.00    +0.000 F 
ENDBRANCH  28  29
ENDBRANCH   4  28
TORSDOF 8
ENDMDL
MODEL 7
REMARK VINA RESULT:      -7.2      5.354      9.230
REMARK  Name = 
REMARK  10 active torsions:
REMARK  status: ('A' for Active; 'I' for Inactive)
REMARK    1  A    between atoms: C_1  and  O_2
REMARK    2  A    between atoms: O_2  and  C_3
REMARK    3  A    between atoms: C_3  and  C_4
REMARK    4  A    between atoms: C_4  and  S_5
REMARK    5  A    between atoms: S_5  and  N_8
REMARK    6  A    between atoms: N_8  and  C_9
REMARK    7  A    between atoms: C_12  and  O_13
REMARK    8  A    between atoms: O_13  and  C_14
REMARK    9  A    between atoms: C_22  and  C_23
REMARK   10  A    between atoms: N_25  and  C_26
REMARK                            x       y       z     vdW  Elec       q    Type
REMARK                         _______ _______ _______ _____ _____    ______ ____
ROOT
ATOM      1  C   UNL     1       1.079  14.623  20.198  0.00  0.00    +0.000 A 
ATOM      2  C   UNL     1       1.930  13.681  20.755  0.00  0.00    +0.000 A 
ATOM      3  C   UNL     1       1.568  12.333  20.762  0.00  0.00    +0.000 A 
ATOM      4  C   UNL     1       0.304  11.908  20.300  0.00  0.00    +0.000 A 
ATOM      5  C   UNL     1      -0.551  12.857  19.703  0.00  0.00    +0.000 A 
ATOM      6  C   UNL     1      -0.152  14.216  19.678  0.00  0.00    +0.000 A 
ENDROOT
BRANCH   5   7
ATOM      7  C   UNL     1      -1.860  12.565  19.058  0.00  0.00    +0.000 A 
ATOM      8  C   UNL     1      -1.839  11.999  17.826  0.00  0.00    +0.000 A 
ATOM      9  N   UNL     1      -2.982  11.457  17.217  0.00  0.00    +0.000 N 
ATOM     10  C   UNL     1      -2.871  10.761  15.949  0.00  0.00    +0.000 C 
ATOM     11  C   UNL     1      -4.242  11.427  17.852  0.00  0.00    +0.000 A 
ATOM     12  O   UNL     1      -5.250  10.924  17.361  0.00  0.00    +0.000 OA
ATOM     13  C   UNL     1      -4.228  12.031  19.159  0.00  0.00    +0.000 A 
ATOM     14  N   UNL     1      -5.269  12.111  20.044  0.00  0.00    +0.000 N 
ATOM     15  C   UNL     1      -4.835  12.737  21.189  0.00  0.00    +0.000 A 
ATOM     16  C   UNL     1      -3.502  13.066  21.027  0.00  0.00    +0.000 A 
ATOM     17  C   UNL     1      -3.118  12.595  19.753  0.00  0.00    +0.000 A 
ATOM     18  H   UNL     1      -6.197  11.742  19.875  0.00  0.00    +0.000 HD
ENDBRANCH   5   7
BRANCH   1  19
ATOM     19  N   UNL     1       1.468  16.005  20.179  0.00  0.00    +0.000 N 
ATOM     20  H   UNL     1       1.874  16.288  21.074  0.00  0.00    +0.000 HD
BRANCH  19  21
ATOM     21  S   UNL     1       2.571  16.441  18.957  0.00  0.00    +0.000 S 
ATOM     22  O   UNL     1       2.262  17.766  18.469  0.00  0.00    +0.000 OA
ATOM     23  O   UNL     1       2.648  15.302  18.068  0.00  0.00    +0.000 OA
BRANCH  21  24
ATOM     24  C   UNL     1       4.099  16.537  19.882  0.00  0.00    +0.000 C 
BRANCH  24  25
ATOM     25  C   UNL     1       5.275  16.510  18.921  0.00  0.00    +0.000 C 
BRANCH  25  27
ATOM     26  C   UNL     1       6.266  14.680  17.813  0.00  0.00    +0.000 C 
ATOM     27  O   UNL     1       5.998  15.284  19.078  0.00  0.00    +0.000 OA
ENDBRANCH  25  27
ENDBRANCH  24  25
ENDBRANCH  21  24
ENDBRANCH  19  21
ENDBRANCH   1  19
BRANCH   4  28
ATOM     28  O   UNL     1      -0.103  10.584  20.395  0.00  0.00    +0.000 OA
BRANCH  28  29
ATOM     29  C   UNL     1       0.681   9.608  19.791  0.00  0.00    +0.000 A 
ATOM     30  C   UNL     1       0.919   9.715  18.417  0.00  0.00    +0.000 A 
ATOM     31  C   UNL     1       1.777   8.808  17.784  0.00  0.00    +0.000 A 
ATOM     32  C   UNL     1       2.391   7.801  18.525  0.00  0.00    +0.000 A 
ATOM     33  F   UNL     1       3.248   6.970  17.921  0.00  0.00    +0.000 F 
ATOM     34  C   UNL     1       2.120   7.647  19.877  0.00  0.00    +0.000 A 
ATOM     35  C   UNL     1       1.236   8.526  20.493  0.00  0.00    +0.000 A 
ATOM     36  F   UNL     1       0.969   8.344  21.795  0.00  0.00    +0.000 F 
ENDBRANCH  28  29
ENDBRANCH   4  28
TORSDOF 8
ENDMDL
MODEL 8
REMARK VINA RESULT:      -7.2      5.189      8.693
REMARK  Name = 
REMARK  10 active torsions:
REMARK  status: ('A' for Active; 'I' for Inactive)
REMARK    1  A    between atoms: C_1  and  O_2
REMARK    2  A    between atoms: O_2  and  C_3
REMARK    3  A    between atoms: C_3  and  C_4
REMARK    4  A    between atoms: C_4  and  S_5
REMARK    5  A    between atoms: S_5  and  N_8
REMARK    6  A    between atoms: N_8  and  C_9
REMARK    7  A    between atoms: C_12  and  O_13
REMARK    8  A    between atoms: O_13  and  C_14
REMARK    9  A    between atoms: C_22  and  C_23
REMARK   10  A    between atoms: N_25  and  C_26
REMARK                            x       y       z     vdW  Elec       q    Type
REMARK                         _______ _______ _______ _____ _____    ______ ____
ROOT
ATOM      1  C   UNL     1      -3.324  11.324  17.889  0.00  0.00    +0.000 A 
ATOM      2  C   UNL     1      -2.817  10.034  17.846  0.00  0.00    +0.000 A 
ATOM      3  C   UNL     1      -1.679   9.708  18.587  0.00  0.00    +0.000 A 
ATOM      4  C   UNL     1      -0.967  10.688  19.311  0.00  0.00    +0.000 A 
ATOM      5  C   UNL     1      -1.497  11.993  19.383  0.00  0.00    +0.000 A 
ATOM      6  C   UNL     1      -2.669  12.295  18.649  0.00  0.00    +0.000 A 
ENDROOT
BRANCH   5   7
ATOM      7  C   UNL     1      -0.945  13.111  20.195  0.00  0.00    +0.000 A 
ATOM      8  C   UNL     1      -1.432  13.275  21.450  0.00  0.00    +0.000 A 
ATOM      9  N   UNL     1      -0.835  14.127  22.393  0.00  0.00    +0.000 N 
ATOM     10  C   UNL     1      -1.335  14.169  23.754  0.00  0.00    +0.000 C 
ATOM     11  C   UNL     1       0.341  14.858  22.123  0.00  0.00    +0.000 A 
ATOM     12  O   UNL     1       0.909  15.578  22.941  0.00  0.00    +0.000 OA
ATOM     13  C   UNL     1       0.835  14.657  20.785  0.00  0.00    +0.000 A 
ATOM     14  N   UNL     1       1.976  15.178  20.238  0.00  0.00    +0.000 N 
ATOM     15  C   UNL     1       2.101  14.720  18.947  0.00  0.00    +0.000 A 
ATOM     16  C   UNL     1       1.021  13.905  18.668  0.00  0.00    +0.000 A 
ATOM     17  C   UNL     1       0.238  13.848  19.840  0.00  0.00    +0.000 A 
ATOM     18  H   UNL     1       2.625  15.782  20.728  0.00  0.00    +0.000 HD
ENDBRANCH   5   7
BRANCH   1  19
ATOM     19  N   UNL     1      -4.505  11.645  17.138  0.00  0.00    +0.000 N 
ATOM     20  H   UNL     1      -4.810  10.851  16.569  0.00  0.00    +0.000 HD
BRANCH  19  21
ATOM     21  S   UNL     1      -5.843  12.159  18.057  0.00  0.00    +0.000 S 
ATOM     22  O   UNL     1      -6.877  12.657  17.180  0.00  0.00    +0.000 OA
ATOM     23  O   UNL     1      -5.301  12.965  19.130  0.00  0.00    +0.000 OA
BRANCH  21  24
ATOM     24  C   UNL     1      -6.408  10.610  18.750  0.00  0.00    +0.000 C 
BRANCH  24  25
ATOM     25  C   UNL     1      -7.247  10.883  19.986  0.00  0.00    +0.000 C 
BRANCH  25  27
ATOM     26  C   UNL     1      -7.255   8.526  20.038  0.00  0.00    +0.000 C 
ATOM     27  O   UNL     1      -7.271   9.719  20.820  0.00  0.00    +0.000 OA
ENDBRANCH  25  27
ENDBRANCH  24  25
ENDBRANCH  21  24
ENDBRANCH  19  21
ENDBRANCH   1  19
BRANCH   4  28
ATOM     28  O   UNL     1       0.221  10.393  19.968  0.00  0.00    +0.000 OA
BRANCH  28  29
ATOM     29  C   UNL     1       1.024   9.381  19.455  0.00  0.00    +0.000 A 
ATOM     30  C   UNL     1       1.512   9.525  18.152  0.00  0.00    +0.000 A 
ATOM     31  C   UNL     1       2.398   8.577  17.630  0.00  0.00    +0.000 A 
ATOM     32  C   UNL     1       2.792   7.492  18.408  0.00  0.00    +0.000 A 
ATOM     33  F   UNL     1       3.678   6.618  17.917  0.00  0.00    +0.000 F 
ATOM     34  C   UNL     1       2.272   7.303  19.680  0.00  0.00    +0.000 A 
ATOM     35  C   UNL     1       1.361   8.227  20.181  0.00  0.00    +0.000 A 
ATOM     36  F   UNL     1       0.852   8.014  21.403  0.00  0.00    +0.000 F 
ENDBRANCH  28  29
ENDBRANCH   4  28
TORSDOF 8
ENDMDL
MODEL 9
REMARK VINA RESULT:      -7.2      4.847      8.283
REMARK  Name = 
REMARK  10 active torsions:
REMARK  status: ('A' for Active; 'I' for Inactive)
REMARK    1  A    between atoms: C_1  and  O_2
REMARK    2  A    between atoms: O_2  and  C_3
REMARK    3  A    between atoms: C_3  and  C_4
REMARK    4  A    between atoms: C_4  and  S_5
REMARK    5  A    between atoms: S_5  and  N_8
REMARK    6  A    between atoms: N_8  and  C_9
REMARK    7  A    between atoms: C_12  and  O_13
REMARK    8  A    between atoms: O_13  and  C_14
REMARK    9  A    between atoms: C_22  and  C_23
REMARK   10  A    between atoms: N_25  and  C_26
REMARK                            x       y       z     vdW  Elec       q    Type
REMARK                         _______ _______ _______ _____ _____    ______ ____
ROOT
ATOM      1  C   UNL     1      -2.401  11.388  17.483  0.00  0.00    +0.000 A 
ATOM      2  C   UNL     1      -1.979  10.091  17.235  0.00  0.00    +0.000 A 
ATOM      3  C   UNL     1      -0.718   9.674  17.669  0.00  0.00    +0.000 A 
ATOM      4  C   UNL     1       0.186  10.573  18.274  0.00  0.00    +0.000 A 
ATOM      5  C   UNL     1      -0.251  11.883  18.557  0.00  0.00    +0.000 A 
ATOM      6  C   UNL     1      -1.545  12.277  18.137  0.00  0.00    +0.000 A 
ENDROOT
BRANCH   5   7
ATOM      7  C   UNL     1       0.524  12.918  19.294  0.00  0.00    +0.000 A 
ATOM      8  C   UNL     1       1.400  13.670  18.584  0.00  0.00    +0.000 A 
ATOM      9  N   UNL     1       2.007  14.825  19.102  0.00  0.00    +0.000 N 
ATOM     10  C   UNL     1       2.844  15.651  18.253  0.00  0.00    +0.000 C 
ATOM     11  C   UNL     1       1.730  15.317  20.395  0.00  0.00    +0.000 A 
ATOM     12  O   UNL     1       2.214  16.346  20.861  0.00  0.00    +0.000 OA
ATOM     13  C   UNL     1       0.792  14.498  21.120  0.00  0.00    +0.000 A 
ATOM     14  N   UNL     1       0.281  14.733  22.368  0.00  0.00    +0.000 N 
ATOM     15  C   UNL     1      -0.603  13.729  22.685  0.00  0.00    +0.000 A 
ATOM     16  C   UNL     1      -0.649  12.840  21.628  0.00  0.00    +0.000 A 
ATOM     17  C   UNL     1       0.215  13.344  20.633  0.00  0.00    +0.000 A 
ATOM     18  H   UNL     1       0.511  15.536  22.941  0.00  0.00    +0.000 HD
ENDBRANCH   5   7
BRANCH   1  19
ATOM     19  N   UNL     1      -3.706  11.802  17.050  0.00  0.00    +0.000 N 
ATOM     20  H   UNL     1      -4.030  11.239  16.260  0.00  0.00    +0.000 HD
BRANCH  19  21
ATOM     21  S   UNL     1      -4.922  11.762  18.241  0.00  0.00    +0.000 S 
ATOM     22  O   UNL     1      -4.475  12.465  19.421  0.00  0.00    +0.000 OA
ATOM     23  O   UNL     1      -5.376  10.390  18.299  0.00  0.00    +0.000 OA
BRANCH  21  24
ATOM     24  C   UNL     1      -6.202  12.744  17.467  0.00  0.00    +0.000 C 
BRANCH  24  25
ATOM     25  C   UNL     1      -6.926  13.558  18.525  0.00  0.00    +0.000 C 
BRANCH  25  27
ATOM     26  C   UNL     1      -7.695  13.007  20.684  0.00  0.00    +0.000 C 
ATOM     27  O   UNL     1      -7.779  12.702  19.293  0.00  0.00    +0.000 OA
ENDBRANCH  25  27
ENDBRANCH  24  25
ENDBRANCH  21  24
ENDBRANCH  19  21
ENDBRANCH   1  19
BRANCH   4  28
ATOM     28  O   UNL     1       1.477  10.191  18.616  0.00  0.00    +0.000 OA
BRANCH  28  29
ATOM     29  C   UNL     1       1.659   8.958  19.230  0.00  0.00    +0.000 A 
ATOM     30  C   UNL     1       1.147   8.784  20.520  0.00  0.00    +0.000 A 
ATOM     31  C   UNL     1       1.226   7.531  21.139  0.00  0.00    +0.000 A 
ATOM     32  C   UNL     1       1.815   6.462  20.469  0.00  0.00    +0.000 A 
ATOM     33  F   UNL     1       1.841   5.257  21.050  0.00  0.00    +0.000 F 
ATOM     34  C   UNL     1       2.380   6.633  19.214  0.00  0.00    +0.000 A 
ATOM     35  C   UNL     1       2.334   7.889  18.618  0.00  0.00    +0.000 A 
ATOM     36  F   UNL     1       2.906   8.039  17.415  0.00  0.00    +0.000 F 
ENDBRANCH  28  29
ENDBRANCH   4  28
TORSDOF 8
ENDMDL
