MODEL 1
REMARK VINA RESULT:      -7.3      0.000      0.000
REMARK  Name = 
REMARK  10 active torsions:
REMARK  status: ('A' for Active; 'I' for Inactive)
REMARK    1  A    between atoms: C_1  and  C_2
REMARK    2  A    between atoms: C_2  and  C_3
REMARK    3  A    between atoms: C_3  and  C_4
REMARK    4  A    between atoms: C_4  and  O_5
REMARK    5  A    between atoms: O_5  and  C_6
REMARK    6  A    between atoms: C_9  and  S_10
REMARK    7  A    between atoms: S_10  and  C_13
REMARK    8  A    between atoms: C_13  and  C_14
REMARK    9  A    between atoms: N_16  and  O_17
REMARK   10  A    between atoms: N_20  and  C_21
REMARK                            x       y       z     vdW  Elec       q    Type
REMARK                         _______ _______ _______ _____ _____    ______ ____
ROOT
ATOM      1  S   UNL     1       2.134   4.183  18.997  0.00  0.00    +0.000 S 
ATOM      2  O   UNL     1       1.978   3.552  20.298  0.00  0.00    +0.000 OA
ATOM      3  O   UNL     1       1.206   3.845  17.932  0.00  0.00    +0.000 OA
ENDROOT
BRANCH   1   4
ATOM      4  C   UNL     1       3.812   3.863  18.421  0.00  0.00    +0.000 C 
ATOM      5  C   UNL     1       4.794   4.901  18.997  0.00  0.00    +0.000 C 
ATOM      6  C   UNL     1       6.183   4.818  18.360  0.00  0.00    +0.000 C 
ATOM      7  N   UNL     1       6.131   4.882  16.897  0.00  0.00    +0.000 NA
ATOM      8  C   UNL     1       7.485   4.713  16.352  0.00  0.00    +0.000 C 
ATOM      9  C   UNL     1       5.238   3.880  16.309  0.00  0.00    +0.000 C 
ATOM     10  C   UNL     1       3.827   3.966  16.883  0.00  0.00    +0.000 C 
BRANCH   4  11
ATOM     11  C   UNL     1       4.162   2.450  18.884  0.00  0.00    +0.000 C 
ATOM     12  O   UNL     1       3.746   1.434  18.322  0.00  0.00    +0.000 OA
ATOM     13  N   UNL     1       4.966   2.343  20.000  0.00  0.00    +0.000 N 
ATOM     14  H   UNL     1       5.677   3.057  20.194  0.00  0.00    +0.000 HD
BRANCH  13  15
ATOM     15  O   UNL     1       5.352   1.018  20.323  0.00  0.00    +0.000 OA
ATOM     16  H   UNL     1       4.672   0.744  20.978  0.00  0.00    +0.000 HD
ENDBRANCH  13  15
ENDBRANCH   4  11
ENDBRANCH   1   4
BRANCH   1  20
ATOM     17  C   UNL     1       1.663   8.708  19.524  0.00  0.00    +0.000 A 
ATOM     18  C   UNL     1       1.981   8.149  18.282  0.00  0.00    +0.000 A 
ATOM     19  C   UNL     1       2.141   6.771  18.140  0.00  0.00    +0.000 A 
ATOM     20  C   UNL     1       1.997   5.939  19.246  0.00  0.00    +0.000 A 
ATOM     21  C   UNL     1       1.650   6.470  20.491  0.00  0.00    +0.000 A 
ATOM     22  C   UNL     1       1.492   7.859  20.625  0.00  0.00    +0.000 A 
BRANCH  17  23
ATOM     23  O   UNL     1       1.483  10.053  19.753  0.00  0.00    +0.000 OA
BRANCH  23  24
ATOM     24  C   UNL     1       0.700  10.723  18.761  0.00  0.00    +0.000 C 
BRANCH  24  25
ATOM     25  C   UNL     1      -0.784  10.403  18.907  0.00  0.00    +0.000 C 
BRANCH  25  27
ATOM     26  C   UNL     1      -2.408  10.947  17.041  0.00  0.00    +0.000 C 
ATOM     27  C   UNL     1      -1.348   9.986  17.547  0.00  0.00    +0.000 C 
ENDBRANCH  25  27
ENDBRANCH  24  25
ENDBRANCH  23  24
ENDBRANCH  17  23
ENDBRANCH   1  20
TORSDOF 8
ENDMDL
MODEL 2
REMARK VINA RESULT:      -7.3      2.871      6.823
REMARK  Name = 
REMARK  10 active torsions:
REMARK  status: ('A' for Active; 'I' for Inactive)
REMARK    1  A    between atoms: C_1  and  C_2
REMARK    2  A    between atoms: C_2  and  C_3
REMARK    3  A    between atoms: C_3  and  C_4
REMARK    4  A    between atoms: C_4  and  O_5
REMARK    5  A    between atoms: O_5  and  C_6
REMARK    6  A    between atoms: C_9  and  S_10
REMARK    7  A    between atoms: S_10  and  C_13
REMARK    8  A    between atoms: C_13  and  C_14
REMARK    9  A    between atoms: N_16  and  O_17
REMARK   10  A    between atoms: N_20  and  C_21
REMARK                            x       y       z     vdW  Elec       q    Type
REMARK                         _______ _______ _______ _____ _____    ______ ____
ROOT
ATOM      1  S   UNL     1       4.310   3.384  18.553  0.00  0.00    +0.000 S 
ATOM      2  O   UNL     1       3.713   2.161  18.040  0.00  0.00    +0.000 OA
ATOM      3  O   UNL     1       5.192   3.311  19.704  0.00  0.00    +0.000 OA
ENDROOT
BRANCH   1   4
ATOM      4  C   UNL     1       2.978   4.542  18.921  0.00  0.00    +0.000 C 
ATOM      5  C   UNL     1       3.258   5.917  18.285  0.00  0.00    +0.000 C 
ATOM      6  C   UNL     1       2.282   6.996  18.757  0.00  0.00    +0.000 C 
ATOM      7  N   UNL     1       2.210   7.085  20.218  0.00  0.00    +0.000 NA
ATOM      8  C   UNL     1       1.197   8.079  20.598  0.00  0.00    +0.000 C 
ATOM      9  C   UNL     1       1.903   5.803  20.857  0.00  0.00    +0.000 C 
ATOM     10  C   UNL     1       2.888   4.711  20.450  0.00  0.00    +0.000 C 
BRANCH   4  11
ATOM     11  C   UNL     1       1.702   3.919  18.357  0.00  0.00    +0.000 C 
ATOM     12  O   UNL     1       1.154   4.319  17.327  0.00  0.00    +0.000 OA
ATOM     13  N   UNL     1       1.152   2.874  19.071  0.00  0.00    +0.000 N 
ATOM     14  H   UNL     1       1.758   2.234  19.598  0.00  0.00    +0.000 HD
BRANCH  13  15
ATOM     15  O   UNL     1       0.035   2.259  18.450  0.00  0.00    +0.000 OA
ATOM     16  H   UNL     1       0.012   1.371  18.870  0.00  0.00    +0.000 HD
ENDBRANCH  13  15
ENDBRANCH   4  11
ENDBRANCH   1   4
BRANCH   1  20
ATOM     17  C   UNL     1       6.884   5.103  15.177  0.00  0.00    +0.000 A 
ATOM     18  C   UNL     1       7.366   5.014  16.488  0.00  0.00    +0.000 A 
ATOM     19  C   UNL     1       6.565   4.507  17.510  0.00  0.00    +0.000 A 
ATOM     20  C   UNL     1       5.264   4.096  17.231  0.00  0.00    +0.000 A 
ATOM     21  C   UNL     1       4.771   4.145  15.925  0.00  0.00    +0.000 A 
ATOM     22  C   UNL     1       5.585   4.658  14.902  0.00  0.00    +0.000 A 
BRANCH  17  23
ATOM     23  O   UNL     1       7.607   5.584  14.110  0.00  0.00    +0.000 OA
BRANCH  23  24
ATOM     24  C   UNL     1       7.998   4.588  13.161  0.00  0.00    +0.000 C 
BRANCH  24  25
ATOM     25  C   UNL     1       7.025   4.519  11.988  0.00  0.00    +0.000 C 
BRANCH  25  27
ATOM     26  C   UNL     1       4.953   3.106  11.631  0.00  0.00    +0.000 C 
ATOM     27  C   UNL     1       6.448   3.104  11.893  0.00  0.00    +0.000 C 
ENDBRANCH  25  27
ENDBRANCH  24  25
ENDBRANCH  23  24
ENDBRANCH  17  23
ENDBRANCH   1  20
TORSDOF 8
ENDMDL
MODEL 3
REMARK VINA RESULT:      -7.2      0.529      1.113
REMARK  Name = 
REMARK  10 active torsions:
REMARK  status: ('A' for Active; 'I' for Inactive)
REMARK    1  A    between atoms: C_1  and  C_2
REMARK    2  A    between atoms: C_2  and  C_3
REMARK    3  A    between atoms: C_3  and  C_4
REMARK    4  A    between atoms: C_4  and  O_5
REMARK    5  A    between atoms: O_5  and  C_6
REMARK    6  A    between atoms: C_9  and  S_10
REMARK    7  A    between atoms: S_10  and  C_13
REMARK    8  A    between atoms: C_13  and  C_14
REMARK    9  A    between atoms: N_16  and  O_17
REMARK   10  A    between atoms: N_20  and  C_21
REMARK                            x       y       z     vdW  Elec       q    Type
REMARK                         _______ _______ _______ _____ _____    ______ ____
ROOT
ATOM      1  S   UNL     1       2.325   4.184  19.660  0.00  0.00    +0.000 S 
ATOM      2  O   UNL     1       2.542   3.908  21.072  0.00  0.00    +0.000 OA
ATOM      3  O   UNL     1       1.231   3.521  18.972  0.00  0.00    +0.000 OA
ENDROOT
BRANCH   1   4
ATOM      4  C   UNL     1       3.857   3.829  18.781  0.00  0.00    +0.000 C 
ATOM      5  C   UNL     1       4.980   4.783  19.233  0.00  0.00    +0.000 C 
ATOM      6  C   UNL     1       6.231   4.681  18.357  0.00  0.00    +0.000 C 
ATOM      7  N   UNL     1       5.930   4.843  16.933  0.00  0.00    +0.000 NA
ATOM      8  C   UNL     1       7.158   4.651  16.149  0.00  0.00    +0.000 C 
ATOM      9  C   UNL     1       4.896   3.922  16.455  0.00  0.00    +0.000 C 
ATOM     10  C   UNL     1       3.612   4.031  17.273  0.00  0.00    +0.000 C 
BRANCH   4  11
ATOM     11  C   UNL     1       4.205   2.375  19.095  0.00  0.00    +0.000 C 
ATOM     12  O   UNL     1       3.718   1.419  18.487  0.00  0.00    +0.000 OA
ATOM     13  N   UNL     1       5.094   2.157  20.127  0.00  0.00    +0.000 N 
ATOM     14  H   UNL     1       5.838   2.837  20.320  0.00  0.00    +0.000 HD
BRANCH  13  15
ATOM     15  O   UNL     1       5.468   0.801  20.306  0.00  0.00    +0.000 OA
ATOM     16  H   UNL     1       4.934   0.526  21.083  0.00  0.00    +0.000 HD
ENDBRANCH  13  15
ENDBRANCH   4  11
ENDBRANCH   1   4
BRANCH   1  20
ATOM     17  C   UNL     1       1.683   8.710  19.384  0.00  0.00    +0.000 A 
ATOM     18  C   UNL     1       1.492   8.020  20.586  0.00  0.00    +0.000 A 
ATOM     19  C   UNL     1       1.672   6.639  20.651  0.00  0.00    +0.000 A 
ATOM     20  C   UNL     1       2.031   5.932  19.507  0.00  0.00    +0.000 A 
ATOM     21  C   UNL     1       2.258   6.603  18.302  0.00  0.00    +0.000 A 
ATOM     22  C   UNL     1       2.073   7.993  18.246  0.00  0.00    +0.000 A 
BRANCH  17  23
ATOM     23  O   UNL     1       1.532  10.069  19.232  0.00  0.00    +0.000 OA
BRANCH  23  24
ATOM     24  C   UNL     1       0.438  10.455  18.397  0.00  0.00    +0.000 C 
BRANCH  24  25
ATOM     25  C   UNL     1      -0.807  10.777  19.217  0.00  0.00    +0.000 C 
BRANCH  25  27
ATOM     26  C   UNL     1      -1.914   9.899  17.115  0.00  0.00    +0.000 C 
ATOM     27  C   UNL     1      -2.020  10.858  18.286  0.00  0.00    +0.000 C 
ENDBRANCH  25  27
ENDBRANCH  24  25
ENDBRANCH  23  24
ENDBRANCH  17  23
ENDBRANCH   1  20
TORSDOF 8
ENDMDL
MODEL 4
REMARK VINA RESULT:      -7.2      2.899      6.796
REMARK  Name = 
REMARK  10 active torsions:
REMARK  status: ('A' for Active; 'I' for Inactive)
REMARK    1  A    between atoms: C_1  and  C_2
REMARK    2  A    between atoms: C_2  and  C_3
REMARK    3  A    between atoms: C_3  and  C_4
REMARK    4  A    between atoms: C_4  and  O_5
REMARK    5  A    between atoms: O_5  and  C_6
REMARK    6  A    between atoms: C_9  and  S_10
REMARK    7  A    between atoms: S_10  and  C_13
REMARK    8  A    between atoms: C_13  and  C_14
REMARK    9  A    between atoms: N_16  and  O_17
REMARK   10  A    between atoms: N_20  and  C_21
REMARK                            x       y       z     vdW  Elec       q    Type
REMARK                         _______ _______ _______ _____ _____    ______ ____
ROOT
ATOM      1  S   UNL     1       4.407   3.526  18.783  0.00  0.00    +0.000 S 
ATOM      2  O   UNL     1       3.817   2.214  18.567  0.00  0.00    +0.000 OA
ATOM      3  O   UNL     1       5.324   3.713  19.893  0.00  0.00    +0.000 OA
ENDROOT
BRANCH   1   4
ATOM      4  C   UNL     1       3.067   4.722  18.935  0.00  0.00    +0.000 C 
ATOM      5  C   UNL     1       3.399   6.015  18.166  0.00  0.00    +0.000 C 
ATOM      6  C   UNL     1       2.406   7.144  18.452  0.00  0.00    +0.000 C 
ATOM      7  N   UNL     1       2.247   7.398  19.886  0.00  0.00    +0.000 NA
ATOM      8  C   UNL     1       1.223   8.432  20.089  0.00  0.00    +0.000 C 
ATOM      9  C   UNL     1       1.889   6.198  20.646  0.00  0.00    +0.000 C 
ATOM     10  C   UNL     1       2.886   5.064  20.427  0.00  0.00    +0.000 C 
BRANCH   4  11
ATOM     11  C   UNL     1       1.821   4.043  18.369  0.00  0.00    +0.000 C 
ATOM     12  O   UNL     1       1.338   4.328  17.270  0.00  0.00    +0.000 OA
ATOM     13  N   UNL     1       1.222   3.083  19.159  0.00  0.00    +0.000 N 
ATOM     14  H   UNL     1       1.790   2.504  19.787  0.00  0.00    +0.000 HD
BRANCH  13  15
ATOM     15  O   UNL     1       0.139   2.406  18.544  0.00  0.00    +0.000 OA
ATOM     16  H   UNL     1      -0.305   3.118  18.033  0.00  0.00    +0.000 HD
ENDBRANCH  13  15
ENDBRANCH   4  11
ENDBRANCH   1   4
BRANCH   1  20
ATOM     17  C   UNL     1       6.610   4.709  14.946  0.00  0.00    +0.000 A 
ATOM     18  C   UNL     1       5.305   4.205  14.911  0.00  0.00    +0.000 A 
ATOM     19  C   UNL     1       4.653   3.830  16.085  0.00  0.00    +0.000 A 
ATOM     20  C   UNL     1       5.309   3.943  17.308  0.00  0.00    +0.000 A 
ATOM     21  C   UNL     1       6.600   4.473  17.372  0.00  0.00    +0.000 A 
ATOM     22  C   UNL     1       7.250   4.847  16.185  0.00  0.00    +0.000 A 
BRANCH  17  23
ATOM     23  O   UNL     1       7.324   5.107  13.839  0.00  0.00    +0.000 OA
BRANCH  23  24
ATOM     24  C   UNL     1       6.684   4.833  12.590  0.00  0.00    +0.000 C 
BRANCH  24  25
ATOM     25  C   UNL     1       7.150   3.506  12.000  0.00  0.00    +0.000 C 
BRANCH  25  27
ATOM     26  C   UNL     1       4.662   3.339  11.558  0.00  0.00    +0.000 C 
ATOM     27  C   UNL     1       5.945   2.577  11.830  0.00  0.00    +0.000 C 
ENDBRANCH  25  27
ENDBRANCH  24  25
ENDBRANCH  23  24
ENDBRANCH  17  23
ENDBRANCH   1  20
TORSDOF 8
ENDMDL
MODEL 5
REMARK VINA RESULT:      -7.0      1.041      1.510
REMARK  Name = 
REMARK  10 active torsions:
REMARK  status: ('A' for Active; 'I' for Inactive)
REMARK    1  A    between atoms: C_1  and  C_2
REMARK    2  A    between atoms: C_2  and  C_3
REMARK    3  A    between atoms: C_3  and  C_4
REMARK    4  A    between atoms: C_4  and  O_5
REMARK    5  A    between atoms: O_5  and  C_6
REMARK    6  A    between atoms: C_9  and  S_10
REMARK    7  A    between atoms: S_10  and  C_13
REMARK    8  A    between atoms: C_13  and  C_14
REMARK    9  A    between atoms: N_16  and  O_17
REMARK   10  A    between atoms: N_20  and  C_21
REMARK                            x       y       z     vdW  Elec       q    Type
REMARK                         _______ _______ _______ _____ _____    ______ ____
ROOT
ATOM      1  S   UNL     1       2.339   4.324  19.633  0.00  0.00    +0.000 S 
ATOM      2  O   UNL     1       2.543   3.992  21.034  0.00  0.00    +0.000 OA
ATOM      3  O   UNL     1       1.220   3.729  18.923  0.00  0.00    +0.000 OA
ENDROOT
BRANCH   1   4
ATOM      4  C   UNL     1       3.857   3.939  18.741  0.00  0.00    +0.000 C 
ATOM      5  C   UNL     1       4.995   4.887  19.166  0.00  0.00    +0.000 C 
ATOM      6  C   UNL     1       6.234   4.757  18.278  0.00  0.00    +0.000 C 
ATOM      7  N   UNL     1       5.919   4.900  16.854  0.00  0.00    +0.000 NA
ATOM      8  C   UNL     1       7.136   4.683  16.059  0.00  0.00    +0.000 C 
ATOM      9  C   UNL     1       4.869   3.983  16.403  0.00  0.00    +0.000 C 
ATOM     10  C   UNL     1       3.596   4.120  17.234  0.00  0.00    +0.000 C 
BRANCH   4  11
ATOM     11  C   UNL     1       4.192   2.485  19.074  0.00  0.00    +0.000 C 
ATOM     12  O   UNL     1       3.712   1.526  18.466  0.00  0.00    +0.000 OA
ATOM     13  N   UNL     1       5.061   2.272  20.125  0.00  0.00    +0.000 N 
ATOM     14  H   UNL     1       5.804   2.951  20.325  0.00  0.00    +0.000 HD
BRANCH  13  15
ATOM     15  O   UNL     1       5.426   0.917  20.322  0.00  0.00    +0.000 OA
ATOM     16  H   UNL     1       5.239   0.775  21.276  0.00  0.00    +0.000 HD
ENDBRANCH  13  15
ENDBRANCH   4  11
ENDBRANCH   1   4
BRANCH   1  20
ATOM     17  C   UNL     1       1.651   8.838  19.275  0.00  0.00    +0.000 A 
ATOM     18  C   UNL     1       2.052   8.073  18.174  0.00  0.00    +0.000 A 
ATOM     19  C   UNL     1       2.277   6.702  18.302  0.00  0.00    +0.000 A 
ATOM     20  C   UNL     1       2.116   6.086  19.540  0.00  0.00    +0.000 A 
ATOM     21  C   UNL     1       1.685   6.823  20.647  0.00  0.00    +0.000 A 
ATOM     22  C   UNL     1       1.462   8.202  20.509  0.00  0.00    +0.000 A 
BRANCH  17  23
ATOM     23  O   UNL     1       1.403  10.190  19.237  0.00  0.00    +0.000 OA
BRANCH  23  24
ATOM     24  C   UNL     1       0.054  10.537  18.913  0.00  0.00    +0.000 C 
BRANCH  24  25
ATOM     25  C   UNL     1      -0.480  11.631  19.831  0.00  0.00    +0.000 C 
BRANCH  25  27
ATOM     26  C   UNL     1      -0.688  11.536  22.354  0.00  0.00    +0.000 C 
ATOM     27  C   UNL     1       0.260  11.573  21.170  0.00  0.00    +0.000 C 
ENDBRANCH  25  27
ENDBRANCH  24  25
ENDBRANCH  23  24
ENDBRANCH  17  23
ENDBRANCH   1  20
TORSDOF 8
ENDMDL
MODEL 6
REMARK VINA RESULT:      -7.0      1.172      1.261
REMARK  Name = 
REMARK  10 active torsions:
REMARK  status: ('A' for Active; 'I' for Inactive)
REMARK    1  A    between atoms: C_1  and  C_2
REMARK    2  A    between atoms: C_2  and  C_3
REMARK    3  A    between atoms: C_3  and  C_4
REMARK    4  A    between atoms: C_4  and  O_5
REMARK    5  A    between atoms: O_5  and  C_6
REMARK    6  A    between atoms: C_9  and  S_10
REMARK    7  A    between atoms: S_10  and  C_13
REMARK    8  A    between atoms: C_13  and  C_14
REMARK    9  A    between atoms: N_16  and  O_17
REMARK   10  A    between atoms: N_20  and  C_21
REMARK                            x       y       z     vdW  Elec       q    Type
REMARK                         _______ _______ _______ _____ _____    ______ ____
ROOT
ATOM      1  S   UNL     1       2.339   4.366  19.599  0.00  0.00    +0.000 S 
ATOM      2  O   UNL     1       2.527   4.042  21.005  0.00  0.00    +0.000 OA
ATOM      3  O   UNL     1       1.222   3.777  18.882  0.00  0.00    +0.000 OA
ENDROOT
BRANCH   1   4
ATOM      4  C   UNL     1       3.862   3.962  18.725  0.00  0.00    +0.000 C 
ATOM      5  C   UNL     1       5.000   4.912  19.142  0.00  0.00    +0.000 C 
ATOM      6  C   UNL     1       6.245   4.765  18.265  0.00  0.00    +0.000 C 
ATOM      7  N   UNL     1       5.941   4.886  16.837  0.00  0.00    +0.000 NA
ATOM      8  C   UNL     1       7.162   4.652  16.055  0.00  0.00    +0.000 C 
ATOM      9  C   UNL     1       4.891   3.966  16.393  0.00  0.00    +0.000 C 
ATOM     10  C   UNL     1       3.612   4.120  17.212  0.00  0.00    +0.000 C 
BRANCH   4  11
ATOM     11  C   UNL     1       4.190   2.513  19.083  0.00  0.00    +0.000 C 
ATOM     12  O   UNL     1       3.699   1.545  18.496  0.00  0.00    +0.000 OA
ATOM     13  N   UNL     1       5.065   2.314  20.131  0.00  0.00    +0.000 N 
ATOM     14  H   UNL     1       5.814   2.991  20.313  0.00  0.00    +0.000 HD
BRANCH  13  15
ATOM     15  O   UNL     1       5.422   0.960  20.351  0.00  0.00    +0.000 OA
ATOM     16  H   UNL     1       5.832   0.698  19.497  0.00  0.00    +0.000 HD
ENDBRANCH  13  15
ENDBRANCH   4  11
ENDBRANCH   1   4
BRANCH   1  20
ATOM     17  C   UNL     1       1.692   8.883  19.207  0.00  0.00    +0.000 A 
ATOM     18  C   UNL     1       2.073   8.104  18.109  0.00  0.00    +0.000 A 
ATOM     19  C   UNL     1       2.286   6.733  18.247  0.00  0.00    +0.000 A 
ATOM     20  C   UNL     1       2.132   6.130  19.492  0.00  0.00    +0.000 A 
ATOM     21  C   UNL     1       1.722   6.881  20.597  0.00  0.00    +0.000 A 
ATOM     22  C   UNL     1       1.511   8.261  20.449  0.00  0.00    +0.000 A 
BRANCH  17  23
ATOM     23  O   UNL     1       1.457  10.238  19.159  0.00  0.00    +0.000 OA
BRANCH  23  24
ATOM     24  C   UNL     1       0.825  10.772  20.325  0.00  0.00    +0.000 C 
BRANCH  24  25
ATOM     25  C   UNL     1       0.773  12.296  20.287  0.00  0.00    +0.000 C 
BRANCH  25  27
ATOM     26  C   UNL     1      -0.453  13.261  18.292  0.00  0.00    +0.000 C 
ATOM     27  C   UNL     1       0.875  12.769  18.834  0.00  0.00    +0.000 C 
ENDBRANCH  25  27
ENDBRANCH  24  25
ENDBRANCH  23  24
ENDBRANCH  17  23
ENDBRANCH   1  20
TORSDOF 8
ENDMDL
MODEL 7
REMARK VINA RESULT:      -6.9      1.118      1.871
REMARK  Name = 
REMARK  10 active torsions:
REMARK  status: ('A' for Active; 'I' for Inactive)
REMARK    1  A    between atoms: C_1  and  C_2
REMARK    2  A    between atoms: C_2  and  C_3
REMARK    3  A    between atoms: C_3  and  C_4
REMARK    4  A    between atoms: C_4  and  O_5
REMARK    5  A    between atoms: O_5  and  C_6
REMARK    6  A    between atoms: C_9  and  S_10
REMARK    7  A    between atoms: S_10  and  C_13
REMARK    8  A    between atoms: C_13  and  C_14
REMARK    9  A    between atoms: N_16  and  O_17
REMARK   10  A    between atoms: N_20  and  C_21
REMARK                            x       y       z     vdW  Elec       q    Type
REMARK                         _______ _______ _______ _____ _____    ______ ____
ROOT
ATOM      1  S   UNL     1       2.307   4.264  19.625  0.00  0.00    +0.000 S 
ATOM      2  O   UNL     1       2.520   3.993  21.038  0.00  0.00    +0.000 OA
ATOM      3  O   UNL     1       1.210   3.608  18.937  0.00  0.00    +0.000 OA
ENDROOT
BRANCH   1   4
ATOM      4  C   UNL     1       3.839   3.894  18.750  0.00  0.00    +0.000 C 
ATOM      5  C   UNL     1       4.962   4.855  19.185  0.00  0.00    +0.000 C 
ATOM      6  C   UNL     1       6.212   4.737  18.310  0.00  0.00    +0.000 C 
ATOM      7  N   UNL     1       5.910   4.875  16.883  0.00  0.00    +0.000 NA
ATOM      8  C   UNL     1       7.137   4.670  16.102  0.00  0.00    +0.000 C 
ATOM      9  C   UNL     1       4.874   3.947  16.422  0.00  0.00    +0.000 C 
ATOM     10  C   UNL     1       3.591   4.071  17.239  0.00  0.00    +0.000 C 
BRANCH   4  11
ATOM     11  C   UNL     1       4.185   2.445  19.087  0.00  0.00    +0.000 C 
ATOM     12  O   UNL     1       3.714   1.480  18.481  0.00  0.00    +0.000 OA
ATOM     13  N   UNL     1       5.054   2.242  20.140  0.00  0.00    +0.000 N 
ATOM     14  H   UNL     1       5.791   2.928  20.340  0.00  0.00    +0.000 HD
BRANCH  13  15
ATOM     15  O   UNL     1       5.430   0.890  20.342  0.00  0.00    +0.000 OA
ATOM     16  H   UNL     1       6.307   0.838  19.902  0.00  0.00    +0.000 HD
ENDBRANCH  13  15
ENDBRANCH   4  11
ENDBRANCH   1   4
BRANCH   1  20
ATOM     17  C   UNL     1       1.702   8.795  19.328  0.00  0.00    +0.000 A 
ATOM     18  C   UNL     1       1.510   8.111  20.534  0.00  0.00    +0.000 A 
ATOM     19  C   UNL     1       1.678   6.729  20.606  0.00  0.00    +0.000 A 
ATOM     20  C   UNL     1       2.028   6.014  19.464  0.00  0.00    +0.000 A 
ATOM     21  C   UNL     1       2.256   6.677  18.255  0.00  0.00    +0.000 A 
ATOM     22  C   UNL     1       2.083   8.069  18.192  0.00  0.00    +0.000 A 
BRANCH  17  23
ATOM     23  O   UNL     1       1.563  10.154  19.170  0.00  0.00    +0.000 OA
BRANCH  23  24
ATOM     24  C   UNL     1       0.351  10.693  19.704  0.00  0.00    +0.000 C 
BRANCH  24  25
ATOM     25  C   UNL     1       0.564  12.086  20.286  0.00  0.00    +0.000 C 
BRANCH  25  27
ATOM     26  C   UNL     1      -0.574  10.815  22.158  0.00  0.00    +0.000 C 
ATOM     27  C   UNL     1      -0.110  12.170  21.658  0.00  0.00    +0.000 C 
ENDBRANCH  25  27
ENDBRANCH  24  25
ENDBRANCH  23  24
ENDBRANCH  17  23
ENDBRANCH   1  20
TORSDOF 8
ENDMDL
MODEL 8
REMARK VINA RESULT:      -6.9      1.068      1.699
REMARK  Name = 
REMARK  10 active torsions:
REMARK  status: ('A' for Active; 'I' for Inactive)
REMARK    1  A    between atoms: C_1  and  C_2
REMARK    2  A    between atoms: C_2  and  C_3
REMARK    3  A    between atoms: C_3  and  C_4
REMARK    4  A    between atoms: C_4  and  O_5
REMARK    5  A    between atoms: O_5  and  C_6
REMARK    6  A    between atoms: C_9  and  S_10
REMARK    7  A    between atoms: S_10  and  C_13
REMARK    8  A    between atoms: C_13  and  C_14
REMARK    9  A    between atoms: N_16  and  O_17
REMARK   10  A    between atoms: N_20  and  C_21
REMARK                            x       y       z     vdW  Elec       q    Type
REMARK                         _______ _______ _______ _____ _____    ______ ____
ROOT
ATOM      1  S   UNL     1       2.125   4.149  18.954  0.00  0.00    +0.000 S 
ATOM      2  O   UNL     1       1.938   3.471  20.227  0.00  0.00    +0.000 OA
ATOM      3  O   UNL     1       1.220   3.853  17.857  0.00  0.00    +0.000 OA
ENDROOT
BRANCH   1   4
ATOM      4  C   UNL     1       3.814   3.846  18.404  0.00  0.00    +0.000 C 
ATOM      5  C   UNL     1       4.777   4.892  18.997  0.00  0.00    +0.000 C 
ATOM      6  C   UNL     1       6.177   4.822  18.382  0.00  0.00    +0.000 C 
ATOM      7  N   UNL     1       6.147   4.887  16.919  0.00  0.00    +0.000 NA
ATOM      8  C   UNL     1       7.512   4.733  16.395  0.00  0.00    +0.000 C 
ATOM      9  C   UNL     1       5.273   3.879  16.315  0.00  0.00    +0.000 C 
ATOM     10  C   UNL     1       3.852   3.950  16.867  0.00  0.00    +0.000 C 
BRANCH   4  11
ATOM     11  C   UNL     1       4.170   2.435  18.872  0.00  0.00    +0.000 C 
ATOM     12  O   UNL     1       3.769   1.416  18.305  0.00  0.00    +0.000 OA
ATOM     13  N   UNL     1       4.962   2.334  19.997  0.00  0.00    +0.000 N 
ATOM     14  H   UNL     1       5.666   3.054  20.198  0.00  0.00    +0.000 HD
BRANCH  13  15
ATOM     15  O   UNL     1       5.355   1.012  20.324  0.00  0.00    +0.000 OA
ATOM     16  H   UNL     1       5.157   0.955  21.285  0.00  0.00    +0.000 HD
ENDBRANCH  13  15
ENDBRANCH   4  11
ENDBRANCH   1   4
BRANCH   1  20
ATOM     17  C   UNL     1       1.649   8.652  19.641  0.00  0.00    +0.000 A 
ATOM     18  C   UNL     1       1.963   8.137  18.378  0.00  0.00    +0.000 A 
ATOM     19  C   UNL     1       2.124   6.765  18.187  0.00  0.00    +0.000 A 
ATOM     20  C   UNL     1       1.986   5.895  19.265  0.00  0.00    +0.000 A 
ATOM     21  C   UNL     1       1.642   6.382  20.529  0.00  0.00    +0.000 A 
ATOM     22  C   UNL     1       1.483   7.765  20.712  0.00  0.00    +0.000 A 
BRANCH  17  23
ATOM     23  O   UNL     1       1.467   9.988  19.916  0.00  0.00    +0.000 OA
BRANCH  23  24
ATOM     24  C   UNL     1       1.159  10.793  18.775  0.00  0.00    +0.000 C 
BRANCH  24  25
ATOM     25  C   UNL     1       1.452  12.267  19.033  0.00  0.00    +0.000 C 
BRANCH  25  27
ATOM     26  C   UNL     1       2.881  14.208  18.254  0.00  0.00    +0.000 C 
ATOM     27  C   UNL     1       2.583  12.727  18.109  0.00  0.00    +0.000 C 
ENDBRANCH  25  27
ENDBRANCH  24  25
ENDBRANCH  23  24
ENDBRANCH  17  23
ENDBRANCH   1  20
TORSDOF 8
ENDMDL
MODEL 9
REMARK VINA RESULT:      -6.9      3.573      6.206
REMARK  Name = 
REMARK  10 active torsions:
REMARK  status: ('A' for Active; 'I' for Inactive)
REMARK    1  A    between atoms: C_1  and  C_2
REMARK    2  A    between atoms: C_2  and  C_3
REMARK    3  A    between atoms: C_3  and  C_4
REMARK    4  A    between atoms: C_4  and  O_5
REMARK    5  A    between atoms: O_5  and  C_6
REMARK    6  A    between atoms: C_9  and  S_10
REMARK    7  A    between atoms: S_10  and  C_13
REMARK    8  A    between atoms: C_13  and  C_14
REMARK    9  A    between atoms: N_16  and  O_17
REMARK   10  A    between atoms: N_20  and  C_21
REMARK                            x       y       z     vdW  Elec       q    Type
REMARK                         _______ _______ _______ _____ _____    ______ ____
ROOT
ATOM      1  S   UNL     1       4.397   3.690  18.546  0.00  0.00    +0.000 S 
ATOM      2  O   UNL     1       4.099   2.948  17.331  0.00  0.00    +0.000 OA
ATOM      3  O   UNL     1       4.912   2.975  19.700  0.00  0.00    +0.000 OA
ENDROOT
BRANCH   1   4
ATOM      4  C   UNL     1       2.907   4.577  19.037  0.00  0.00    +0.000 C 
ATOM      5  C   UNL     1       2.958   6.039  18.552  0.00  0.00    +0.000 C 
ATOM      6  C   UNL     1       1.833   6.895  19.138  0.00  0.00    +0.000 C 
ATOM      7  N   UNL     1       1.773   6.815  20.600  0.00  0.00    +0.000 NA
ATOM      8  C   UNL     1       0.624   7.592  21.086  0.00  0.00    +0.000 C 
ATOM      9  C   UNL     1       1.682   5.441  21.098  0.00  0.00    +0.000 C 
ATOM     10  C   UNL     1       2.819   4.567  20.575  0.00  0.00    +0.000 C 
BRANCH   4  11
ATOM     11  C   UNL     1       1.734   3.825  18.410  0.00  0.00    +0.000 C 
ATOM     12  O   UNL     1       1.121   4.235  17.422  0.00  0.00    +0.000 OA
ATOM     13  N   UNL     1       1.358   2.644  19.016  0.00  0.00    +0.000 N 
ATOM     14  H   UNL     1       2.060   2.055  19.479  0.00  0.00    +0.000 HD
BRANCH  13  15
ATOM     15  O   UNL     1       0.342   1.929  18.333  0.00  0.00    +0.000 OA
ATOM     16  H   UNL     1       0.390   1.036  18.739  0.00  0.00    +0.000 HD
ENDBRANCH  13  15
ENDBRANCH   4  11
ENDBRANCH   1   4
BRANCH   1  20
ATOM     17  C   UNL     1       7.413   6.955  17.443  0.00  0.00    +0.000 A 
ATOM     18  C   UNL     1       6.394   6.578  16.562  0.00  0.00    +0.000 A 
ATOM     19  C   UNL     1       5.494   5.569  16.903  0.00  0.00    +0.000 A 
ATOM     20  C   UNL     1       5.616   4.915  18.126  0.00  0.00    +0.000 A 
ATOM     21  C   UNL     1       6.607   5.295  19.036  0.00  0.00    +0.000 A 
ATOM     22  C   UNL     1       7.509   6.312  18.684  0.00  0.00    +0.000 A 
BRANCH  17  23
ATOM     23  O   UNL     1       8.338   7.942  17.190  0.00  0.00    +0.000 OA
BRANCH  23  24
ATOM     24  C   UNL     1       7.983   9.231  17.697  0.00  0.00    +0.000 C 
BRANCH  24  25
ATOM     25  C   UNL     1       9.006   9.737  18.709  0.00  0.00    +0.000 C 
BRANCH  25  27
ATOM     26  C   UNL     1      10.597  11.537  17.909  0.00  0.00    +0.000 C 
ATOM     27  C   UNL     1       9.231  11.236  18.496  0.00  0.00    +0.000 C 
ENDBRANCH  25  27
ENDBRANCH  24  25
ENDBRANCH  23  24
ENDBRANCH  17  23
ENDBRANCH   1  20
TORSDOF 8
ENDMDL
