MODEL 1
REMARK VINA RESULT:      -9.5      0.000      0.000
REMARK  Name = 
REMARK  4 active torsions:
REMARK  status: ('A' for Active; 'I' for Inactive)
REMARK    1  A    between atoms: C_3  and  C_4
REMARK    2  A    between atoms: N_17  and  C_18
REMARK    3  A    between atoms: N_26  and  C_27
REMARK    4  A    between atoms: C_27  and  C_28
REMARK                            x       y       z     vdW  Elec       q    Type
REMARK                         _______ _______ _______ _____ _____    ______ ____
ROOT
ATOM      1  O   UNL     1       5.422   3.099  17.215  0.00  0.00    +0.000 OA
ATOM      2  C   UNL     1       4.944   4.215  17.379  0.00  0.00    +0.000 A 
ATOM      3  C   UNL     1       4.989   5.230  16.226  0.00  0.00    +0.000 A 
ATOM      4  N   UNL     1       4.345   6.358  16.284  0.00  0.00    +0.000 NA
ATOM      5  C   UNL     1       3.645   6.656  17.458  0.00  0.00    +0.000 A 
ATOM      6  C   UNL     1       2.897   7.801  17.550  0.00  0.00    +0.000 A 
ATOM      7  N   UNL     1       2.208   8.156  18.646  0.00  0.00    +0.000 NA
ATOM      8  C   UNL     1       2.274   7.355  19.718  0.00  0.00    +0.000 A 
ATOM      9  N   UNL     1       1.581   7.673  20.882  0.00  0.00    +0.000 N 
ATOM     10  N   UNL     1       2.968   6.205  19.725  0.00  0.00    +0.000 NA
ATOM     11  C   UNL     1       3.634   5.868  18.598  0.00  0.00    +0.000 A 
ATOM     12  N   UNL     1       4.318   4.628  18.547  0.00  0.00    +0.000 N 
ATOM     13  H   UNL     1       1.674   6.941  21.571  0.00  0.00    +0.000 HD
ENDROOT
BRANCH   3  14
ATOM     14  C   UNL     1       5.760   4.920  14.989  0.00  0.00    +0.000 A 
ATOM     15  C   UNL     1       5.223   3.998  14.079  0.00  0.00    +0.000 A 
ATOM     16  C   UNL     1       5.931   3.674  12.926  0.00  0.00    +0.000 A 
ATOM     17  F   UNL     1       5.419   2.779  12.071  0.00  0.00    +0.000 F 
ATOM     18  C   UNL     1       7.160   4.255  12.650  0.00  0.00    +0.000 A 
ATOM     19  C   UNL     1       7.670   5.187  13.541  0.00  0.00    +0.000 A 
ATOM     20  F   UNL     1       8.850   5.766  13.282  0.00  0.00    +0.000 F 
ATOM     21  C   UNL     1       6.981   5.535  14.699  0.00  0.00    +0.000 A 
ENDBRANCH   3  14
BRANCH   9  22
ATOM     22  C   UNL     1       0.988   8.871  21.305  0.00  0.00    +0.000 A 
ATOM     23  C   UNL     1       0.989  10.039  20.532  0.00  0.00    +0.000 A 
ATOM     24  C   UNL     1       0.331  11.198  20.951  0.00  0.00    +0.000 A 
ATOM     25  C   UNL     1      -0.352  11.208  22.160  0.00  0.00    +0.000 A 
ATOM     26  C   UNL     1      -0.379  10.057  22.943  0.00  0.00    +0.000 A 
ATOM     27  C   UNL     1       0.281   8.898  22.515  0.00  0.00    +0.000 A 
ENDBRANCH   9  22
BRANCH  12  28
ATOM     28  C   UNL     1       4.297   3.738  19.705  0.00  0.00    +0.000 C 
BRANCH  28  29
ATOM     29  C   UNL     1       3.182   2.677  19.711  0.00  0.00    +0.000 C 
ATOM     30  C   UNL     1       2.314   2.664  20.966  0.00  0.00    +0.000 C 
ATOM     31  C   UNL     1       1.058   3.375  20.535  0.00  0.00    +0.000 C 
ATOM     32  C   UNL     1       0.953   2.968  19.086  0.00  0.00    +0.000 C 
ATOM     33  O   UNL     1       2.298   2.938  18.596  0.00  0.00    +0.000 OA
ENDBRANCH  28  29
ENDBRANCH  12  28
TORSDOF 4
ENDMDL
MODEL 2
REMARK VINA RESULT:      -9.4      0.085      1.453
REMARK  Name = 
REMARK  4 active torsions:
REMARK  status: ('A' for Active; 'I' for Inactive)
REMARK    1  A    between atoms: C_3  and  C_4
REMARK    2  A    between atoms: N_17  and  C_18
REMARK    3  A    between atoms: N_26  and  C_27
REMARK    4  A    between atoms: C_27  and  C_28
REMARK                            x       y       z     vdW  Elec       q    Type
REMARK                         _______ _______ _______ _____ _____    ______ ____
ROOT
ATOM      1  O   UNL     1       5.359   3.052  17.226  0.00  0.00    +0.000 OA
ATOM      2  C   UNL     1       4.894   4.174  17.390  0.00  0.00    +0.000 A 
ATOM      3  C   UNL     1       4.944   5.185  16.235  0.00  0.00    +0.000 A 
ATOM      4  N   UNL     1       4.313   6.321  16.294  0.00  0.00    +0.000 NA
ATOM      5  C   UNL     1       3.623   6.629  17.471  0.00  0.00    +0.000 A 
ATOM      6  C   UNL     1       2.888   7.783  17.565  0.00  0.00    +0.000 A 
ATOM      7  N   UNL     1       2.209   8.147  18.665  0.00  0.00    +0.000 NA
ATOM      8  C   UNL     1       2.273   7.348  19.738  0.00  0.00    +0.000 A 
ATOM      9  N   UNL     1       1.590   7.676  20.905  0.00  0.00    +0.000 N 
ATOM     10  N   UNL     1       2.954   6.190  19.744  0.00  0.00    +0.000 NA
ATOM     11  C   UNL     1       3.609   5.844  18.613  0.00  0.00    +0.000 A 
ATOM     12  N   UNL     1       4.279   4.596  18.561  0.00  0.00    +0.000 N 
ATOM     13  H   UNL     1       1.679   6.945  21.595  0.00  0.00    +0.000 HD
ENDROOT
BRANCH   3  14
ATOM     14  C   UNL     1       5.704   4.864  14.994  0.00  0.00    +0.000 A 
ATOM     15  C   UNL     1       6.936   5.498  14.781  0.00  0.00    +0.000 A 
ATOM     16  C   UNL     1       7.657   5.233  13.621  0.00  0.00    +0.000 A 
ATOM     17  F   UNL     1       8.825   5.856  13.416  0.00  0.00    +0.000 F 
ATOM     18  C   UNL     1       7.184   4.341  12.669  0.00  0.00    +0.000 A 
ATOM     19  C   UNL     1       5.979   3.697  12.901  0.00  0.00    +0.000 A 
ATOM     20  F   UNL     1       5.515   2.824  11.998  0.00  0.00    +0.000 F 
ATOM     21  C   UNL     1       5.239   3.938  14.056  0.00  0.00    +0.000 A 
ENDBRANCH   3  14
BRANCH   9  22
ATOM     22  C   UNL     1       1.013   8.882  21.329  0.00  0.00    +0.000 A 
ATOM     23  C   UNL     1       1.078  10.065  20.582  0.00  0.00    +0.000 A 
ATOM     24  C   UNL     1       0.435  11.233  20.998  0.00  0.00    +0.000 A 
ATOM     25  C   UNL     1      -0.298  11.238  22.178  0.00  0.00    +0.000 A 
ATOM     26  C   UNL     1      -0.389  10.072  22.934  0.00  0.00    +0.000 A 
ATOM     27  C   UNL     1       0.257   8.904  22.509  0.00  0.00    +0.000 A 
ENDBRANCH   9  22
BRANCH  12  28
ATOM     28  C   UNL     1       4.255   3.709  19.721  0.00  0.00    +0.000 C 
BRANCH  28  29
ATOM     29  C   UNL     1       3.116   2.675  19.746  0.00  0.00    +0.000 C 
ATOM     30  C   UNL     1       2.304   2.643  21.038  0.00  0.00    +0.000 C 
ATOM     31  C   UNL     1       1.048   3.396  20.684  0.00  0.00    +0.000 C 
ATOM     32  C   UNL     1       0.869   3.036  19.230  0.00  0.00    +0.000 C 
ATOM     33  O   UNL     1       2.190   2.989  18.680  0.00  0.00    +0.000 OA
ENDBRANCH  28  29
ENDBRANCH  12  28
TORSDOF 4
ENDMDL
MODEL 3
REMARK VINA RESULT:      -8.8      3.533      8.293
REMARK  Name = 
REMARK  4 active torsions:
REMARK  status: ('A' for Active; 'I' for Inactive)
REMARK    1  A    between atoms: C_3  and  C_4
REMARK    2  A    between atoms: N_17  and  C_18
REMARK    3  A    between atoms: N_26  and  C_27
REMARK    4  A    between atoms: C_27  and  C_28
REMARK                            x       y       z     vdW  Elec       q    Type
REMARK                         _______ _______ _______ _____ _____    ______ ____
ROOT
ATOM      1  O   UNL     1       2.321   5.906  21.278  0.00  0.00    +0.000 OA
ATOM      2  C   UNL     1       2.672   6.124  20.125  0.00  0.00    +0.000 A 
ATOM      3  C   UNL     1       2.308   7.465  19.469  0.00  0.00    +0.000 A 
ATOM      4  N   UNL     1       2.803   7.817  18.318  0.00  0.00    +0.000 NA
ATOM      5  C   UNL     1       3.642   6.914  17.658  0.00  0.00    +0.000 A 
ATOM      6  C   UNL     1       4.242   7.259  16.475  0.00  0.00    +0.000 A 
ATOM      7  N   UNL     1       5.050   6.441  15.781  0.00  0.00    +0.000 NA
ATOM      8  C   UNL     1       5.262   5.209  16.264  0.00  0.00    +0.000 A 
ATOM      9  N   UNL     1       6.091   4.318  15.587  0.00  0.00    +0.000 N 
ATOM     10  N   UNL     1       4.733   4.779  17.421  0.00  0.00    +0.000 NA
ATOM     11  C   UNL     1       3.940   5.636  18.104  0.00  0.00    +0.000 A 
ATOM     12  N   UNL     1       3.422   5.240  19.361  0.00  0.00    +0.000 N 
ATOM     13  H   UNL     1       6.206   3.462  16.110  0.00  0.00    +0.000 HD
ENDROOT
BRANCH   3  14
ATOM     14  C   UNL     1       1.392   8.412  20.164  0.00  0.00    +0.000 A 
ATOM     15  C   UNL     1       1.367   8.411  21.565  0.00  0.00    +0.000 A 
ATOM     16  C   UNL     1       0.505   9.270  22.240  0.00  0.00    +0.000 A 
ATOM     17  F   UNL     1       0.474   9.251  23.579  0.00  0.00    +0.000 F 
ATOM     18  C   UNL     1      -0.327  10.141  21.552  0.00  0.00    +0.000 A 
ATOM     19  C   UNL     1      -0.274  10.156  20.166  0.00  0.00    +0.000 A 
ATOM     20  F   UNL     1      -1.062  10.999  19.487  0.00  0.00    +0.000 F 
ATOM     21  C   UNL     1       0.582   9.311  19.465  0.00  0.00    +0.000 A 
ENDBRANCH   3  14
BRANCH   9  22
ATOM     22  C   UNL     1       6.585   4.333  14.275  0.00  0.00    +0.000 A 
ATOM     23  C   UNL     1       6.085   3.510  13.259  0.00  0.00    +0.000 A 
ATOM     24  C   UNL     1       6.552   3.596  11.946  0.00  0.00    +0.000 A 
ATOM     25  C   UNL     1       7.534   4.522  11.619  0.00  0.00    +0.000 A 
ATOM     26  C   UNL     1       8.042   5.362  12.608  0.00  0.00    +0.000 A 
ATOM     27  C   UNL     1       7.566   5.271  13.922  0.00  0.00    +0.000 A 
ENDBRANCH   9  22
BRANCH  12  28
ATOM     28  C   UNL     1       3.747   3.921  19.899  0.00  0.00    +0.000 C 
BRANCH  28  29
ATOM     29  C   UNL     1       2.749   2.799  19.562  0.00  0.00    +0.000 C 
ATOM     30  C   UNL     1       1.727   2.498  20.655  0.00  0.00    +0.000 C 
ATOM     31  C   UNL     1       0.477   3.184  20.167  0.00  0.00    +0.000 C 
ATOM     32  C   UNL     1       0.606   3.037  18.671  0.00  0.00    +0.000 C 
ATOM     33  O   UNL     1       2.001   3.192  18.388  0.00  0.00    +0.000 OA
ENDBRANCH  28  29
ENDBRANCH  12  28
TORSDOF 4
ENDMDL
MODEL 4
REMARK VINA RESULT:      -8.8      3.551      8.273
REMARK  Name = 
REMARK  4 active torsions:
REMARK  status: ('A' for Active; 'I' for Inactive)
REMARK    1  A    between atoms: C_3  and  C_4
REMARK    2  A    between atoms: N_17  and  C_18
REMARK    3  A    between atoms: N_26  and  C_27
REMARK    4  A    between atoms: C_27  and  C_28
REMARK                            x       y       z     vdW  Elec       q    Type
REMARK                         _______ _______ _______ _____ _____    ______ ____
ROOT
ATOM      1  O   UNL     1       2.310   5.868  21.433  0.00  0.00    +0.000 OA
ATOM      2  C   UNL     1       2.635   6.102  20.275  0.00  0.00    +0.000 A 
ATOM      3  C   UNL     1       2.239   7.444  19.640  0.00  0.00    +0.000 A 
ATOM      4  N   UNL     1       2.704   7.815  18.483  0.00  0.00    +0.000 NA
ATOM      5  C   UNL     1       3.543   6.930  17.797  0.00  0.00    +0.000 A 
ATOM      6  C   UNL     1       4.113   7.296  16.605  0.00  0.00    +0.000 A 
ATOM      7  N   UNL     1       4.918   6.496  15.887  0.00  0.00    +0.000 NA
ATOM      8  C   UNL     1       5.159   5.263  16.354  0.00  0.00    +0.000 A 
ATOM      9  N   UNL     1       5.986   4.392  15.651  0.00  0.00    +0.000 N 
ATOM     10  N   UNL     1       4.660   4.815  17.517  0.00  0.00    +0.000 NA
ATOM     11  C   UNL     1       3.869   5.653  18.224  0.00  0.00    +0.000 A 
ATOM     12  N   UNL     1       3.382   5.238  19.488  0.00  0.00    +0.000 N 
ATOM     13  H   UNL     1       6.124   3.532  16.163  0.00  0.00    +0.000 HD
ENDROOT
BRANCH   3  14
ATOM     14  C   UNL     1       1.323   8.371  20.363  0.00  0.00    +0.000 A 
ATOM     15  C   UNL     1       0.527   9.246  19.611  0.00  0.00    +0.000 A 
ATOM     16  C   UNL     1      -0.321  10.137  20.260  0.00  0.00    +0.000 A 
ATOM     17  F   UNL     1      -1.066  10.983  19.536  0.00  0.00    +0.000 F 
ATOM     18  C   UNL     1      -0.405  10.171  21.645  0.00  0.00    +0.000 A 
ATOM     19  C   UNL     1       0.365   9.282  22.380  0.00  0.00    +0.000 A 
ATOM     20  F   UNL     1       0.286   9.294  23.717  0.00  0.00    +0.000 F 
ATOM     21  C   UNL     1       1.218   8.375  21.757  0.00  0.00    +0.000 A 
ENDBRANCH   3  14
BRANCH   9  22
ATOM     22  C   UNL     1       6.454   4.427  14.330  0.00  0.00    +0.000 A 
ATOM     23  C   UNL     1       7.497   5.261  13.909  0.00  0.00    +0.000 A 
ATOM     24  C   UNL     1       7.986   5.223  12.601  0.00  0.00    +0.000 A 
ATOM     25  C   UNL     1       7.439   4.337  11.682  0.00  0.00    +0.000 A 
ATOM     26  C   UNL     1       6.408   3.488  12.077  0.00  0.00    +0.000 A 
ATOM     27  C   UNL     1       5.925   3.530  13.390  0.00  0.00    +0.000 A 
ENDBRANCH   9  22
BRANCH  12  28
ATOM     28  C   UNL     1       3.737   3.918  20.006  0.00  0.00    +0.000 C 
BRANCH  28  29
ATOM     29  C   UNL     1       2.750   2.785  19.676  0.00  0.00    +0.000 C 
ATOM     30  C   UNL     1       1.672   2.545  20.730  0.00  0.00    +0.000 C 
ATOM     31  C   UNL     1       0.453   3.210  20.145  0.00  0.00    +0.000 C 
ATOM     32  C   UNL     1       0.656   2.985  18.667  0.00  0.00    +0.000 C 
ATOM     33  O   UNL     1       2.064   3.119  18.447  0.00  0.00    +0.000 OA
ENDBRANCH  28  29
ENDBRANCH  12  28
TORSDOF 4
ENDMDL
MODEL 5
REMARK VINA RESULT:      -8.8      6.093     10.900
REMARK  Name = 
REMARK  4 active torsions:
REMARK  status: ('A' for Active; 'I' for Inactive)
REMARK    1  A    between atoms: C_3  and  C_4
REMARK    2  A    between atoms: N_17  and  C_18
REMARK    3  A    between atoms: N_26  and  C_27
REMARK    4  A    between atoms: C_27  and  C_28
REMARK                            x       y       z     vdW  Elec       q    Type
REMARK                         _______ _______ _______ _____ _____    ______ ____
ROOT
ATOM      1  O   UNL     1      -2.642  12.626  20.122  0.00  0.00    +0.000 OA
ATOM      2  C   UNL     1      -1.679  11.917  20.389  0.00  0.00    +0.000 A 
ATOM      3  C   UNL     1      -1.215  11.796  21.849  0.00  0.00    +0.000 A 
ATOM      4  N   UNL     1      -0.317  10.927  22.209  0.00  0.00    +0.000 NA
ATOM      5  C   UNL     1       0.264  10.131  21.217  0.00  0.00    +0.000 A 
ATOM      6  C   UNL     1       1.168   9.155  21.549  0.00  0.00    +0.000 A 
ATOM      7  N   UNL     1       1.773   8.361  20.650  0.00  0.00    +0.000 NA
ATOM      8  C   UNL     1       1.491   8.551  19.354  0.00  0.00    +0.000 A 
ATOM      9  N   UNL     1       2.088   7.757  18.378  0.00  0.00    +0.000 N 
ATOM     10  N   UNL     1       0.610   9.469  18.926  0.00  0.00    +0.000 NA
ATOM     11  C   UNL     1       0.005  10.238  19.860  0.00  0.00    +0.000 A 
ATOM     12  N   UNL     1      -0.981  11.169  19.451  0.00  0.00    +0.000 N 
ATOM     13  H   UNL     1       1.724   7.974  17.462  0.00  0.00    +0.000 HD
ENDROOT
BRANCH   3  14
ATOM     14  C   UNL     1      -1.818  12.666  22.898  0.00  0.00    +0.000 A 
ATOM     15  C   UNL     1      -3.038  12.278  23.469  0.00  0.00    +0.000 A 
ATOM     16  C   UNL     1      -3.633  13.081  24.436  0.00  0.00    +0.000 A 
ATOM     17  F   UNL     1      -4.808  12.713  24.964  0.00  0.00    +0.000 F 
ATOM     18  C   UNL     1      -3.037  14.261  24.857  0.00  0.00    +0.000 A 
ATOM     19  C   UNL     1      -1.816  14.622  24.308  0.00  0.00    +0.000 A 
ATOM     20  F   UNL     1      -1.222  15.752  24.713  0.00  0.00    +0.000 F 
ATOM     21  C   UNL     1      -1.194  13.835  23.343  0.00  0.00    +0.000 A 
ENDBRANCH   3  14
BRANCH   9  22
ATOM     22  C   UNL     1       3.203   6.908  18.434  0.00  0.00    +0.000 A 
ATOM     23  C   UNL     1       3.325   5.866  19.361  0.00  0.00    +0.000 A 
ATOM     24  C   UNL     1       4.417   4.994  19.348  0.00  0.00    +0.000 A 
ATOM     25  C   UNL     1       5.414   5.147  18.393  0.00  0.00    +0.000 A 
ATOM     26  C   UNL     1       5.312   6.168  17.451  0.00  0.00    +0.000 A 
ATOM     27  C   UNL     1       4.213   7.037  17.470  0.00  0.00    +0.000 A 
ENDBRANCH   9  22
BRANCH  12  28
ATOM     28  C   UNL     1      -1.326  11.288  18.036  0.00  0.00    +0.000 C 
BRANCH  28  29
ATOM     29  C   UNL     1      -2.356  10.270  17.513  0.00  0.00    +0.000 C 
ATOM     30  C   UNL     1      -3.784  10.798  17.405  0.00  0.00    +0.000 C 
ATOM     31  C   UNL     1      -3.944  11.085  15.934  0.00  0.00    +0.000 C 
ATOM     32  C   UNL     1      -3.089  10.008  15.313  0.00  0.00    +0.000 C 
ATOM     33  O   UNL     1      -1.960   9.864  16.182  0.00  0.00    +0.000 OA
ENDBRANCH  28  29
ENDBRANCH  12  28
TORSDOF 4
ENDMDL
MODEL 6
REMARK VINA RESULT:      -8.7      6.125     10.960
REMARK  Name = 
REMARK  4 active torsions:
REMARK  status: ('A' for Active; 'I' for Inactive)
REMARK    1  A    between atoms: C_3  and  C_4
REMARK    2  A    between atoms: N_17  and  C_18
REMARK    3  A    between atoms: N_26  and  C_27
REMARK    4  A    between atoms: C_27  and  C_28
REMARK                            x       y       z     vdW  Elec       q    Type
REMARK                         _______ _______ _______ _____ _____    ______ ____
ROOT
ATOM      1  O   UNL     1      -2.689  12.680  19.980  0.00  0.00    +0.000 OA
ATOM      2  C   UNL     1      -1.738  11.951  20.240  0.00  0.00    +0.000 A 
ATOM      3  C   UNL     1      -1.320  11.756  21.706  0.00  0.00    +0.000 A 
ATOM      4  N   UNL     1      -0.439  10.863  22.050  0.00  0.00    +0.000 NA
ATOM      5  C   UNL     1       0.168  10.113  21.037  0.00  0.00    +0.000 A 
ATOM      6  C   UNL     1       1.055   9.115  21.348  0.00  0.00    +0.000 A 
ATOM      7  N   UNL     1       1.682   8.362  20.430  0.00  0.00    +0.000 NA
ATOM      8  C   UNL     1       1.441   8.616  19.136  0.00  0.00    +0.000 A 
ATOM      9  N   UNL     1       2.063   7.867  18.142  0.00  0.00    +0.000 N 
ATOM     10  N   UNL     1       0.579   9.562  18.729  0.00  0.00    +0.000 NA
ATOM     11  C   UNL     1      -0.049  10.288  19.680  0.00  0.00    +0.000 A 
ATOM     12  N   UNL     1      -1.017  11.246  19.288  0.00  0.00    +0.000 N 
ATOM     13  H   UNL     1       1.727   8.131  17.227  0.00  0.00    +0.000 HD
ENDROOT
BRANCH   3  14
ATOM     14  C   UNL     1      -1.949  12.578  22.778  0.00  0.00    +0.000 A 
ATOM     15  C   UNL     1      -1.325  13.775  23.156  0.00  0.00    +0.000 A 
ATOM     16  C   UNL     1      -1.879  14.551  24.169  0.00  0.00    +0.000 A 
ATOM     17  F   UNL     1      -1.267  15.685  24.537  0.00  0.00    +0.000 F 
ATOM     18  C   UNL     1      -3.048  14.169  24.810  0.00  0.00    +0.000 A 
ATOM     19  C   UNL     1      -3.674  12.998  24.410  0.00  0.00    +0.000 A 
ATOM     20  F   UNL     1      -4.811  12.622  25.011  0.00  0.00    +0.000 F 
ATOM     21  C   UNL     1      -3.146  12.205  23.395  0.00  0.00    +0.000 A 
ENDBRANCH   3  14
BRANCH   9  22
ATOM     22  C   UNL     1       3.170   7.008  18.189  0.00  0.00    +0.000 A 
ATOM     23  C   UNL     1       4.280   7.144  17.346  0.00  0.00    +0.000 A 
ATOM     24  C   UNL     1       5.398   6.314  17.464  0.00  0.00    +0.000 A 
ATOM     25  C   UNL     1       5.429   5.328  18.441  0.00  0.00    +0.000 A 
ATOM     26  C   UNL     1       4.343   5.179  19.301  0.00  0.00    +0.000 A 
ATOM     27  C   UNL     1       3.227   6.016  19.178  0.00  0.00    +0.000 A 
ENDBRANCH   9  22
BRANCH  12  28
ATOM     28  C   UNL     1      -1.319  11.436  17.871  0.00  0.00    +0.000 C 
BRANCH  28  29
ATOM     29  C   UNL     1      -2.221  10.366  17.232  0.00  0.00    +0.000 C 
ATOM     30  C   UNL     1      -3.666  10.365  17.725  0.00  0.00    +0.000 C 
ATOM     31  C   UNL     1      -4.417  11.060  16.618  0.00  0.00    +0.000 C 
ATOM     32  C   UNL     1      -3.641  10.629  15.398  0.00  0.00    +0.000 C 
ATOM     33  O   UNL     1      -2.268  10.602  15.805  0.00  0.00    +0.000 OA
ENDBRANCH  28  29
ENDBRANCH  12  28
TORSDOF 4
ENDMDL
MODEL 7
REMARK VINA RESULT:      -8.6      3.582      8.300
REMARK  Name = 
REMARK  4 active torsions:
REMARK  status: ('A' for Active; 'I' for Inactive)
REMARK    1  A    between atoms: C_3  and  C_4
REMARK    2  A    between atoms: N_17  and  C_18
REMARK    3  A    between atoms: N_26  and  C_27
REMARK    4  A    between atoms: C_27  and  C_28
REMARK                            x       y       z     vdW  Elec       q    Type
REMARK                         _______ _______ _______ _____ _____    ______ ____
ROOT
ATOM      1  O   UNL     1       2.187   6.099  21.486  0.00  0.00    +0.000 OA
ATOM      2  C   UNL     1       2.536   6.283  20.326  0.00  0.00    +0.000 A 
ATOM      3  C   UNL     1       2.177   7.608  19.634  0.00  0.00    +0.000 A 
ATOM      4  N   UNL     1       2.670   7.926  18.473  0.00  0.00    +0.000 NA
ATOM      5  C   UNL     1       3.502   7.000  17.835  0.00  0.00    +0.000 A 
ATOM      6  C   UNL     1       4.100   7.310  16.641  0.00  0.00    +0.000 A 
ATOM      7  N   UNL     1       4.901   6.468  15.967  0.00  0.00    +0.000 NA
ATOM      8  C   UNL     1       5.109   5.249  16.484  0.00  0.00    +0.000 A 
ATOM      9  N   UNL     1       5.931   4.336  15.829  0.00  0.00    +0.000 N 
ATOM     10  N   UNL     1       4.582   4.854  17.654  0.00  0.00    +0.000 NA
ATOM     11  C   UNL     1       3.795   5.733  18.315  0.00  0.00    +0.000 A 
ATOM     12  N   UNL     1       3.279   5.376  19.584  0.00  0.00    +0.000 N 
ATOM     13  H   UNL     1       6.044   3.494  16.375  0.00  0.00    +0.000 HD
ENDROOT
BRANCH   3  14
ATOM     14  C   UNL     1       1.268   8.578  20.305  0.00  0.00    +0.000 A 
ATOM     15  C   UNL     1       0.543   9.476  19.510  0.00  0.00    +0.000 A 
ATOM     16  C   UNL     1      -0.298  10.408  20.111  0.00  0.00    +0.000 A 
ATOM     17  F   UNL     1      -0.974  11.274  19.346  0.00  0.00    +0.000 F 
ATOM     18  C   UNL     1      -0.442  10.461  21.490  0.00  0.00    +0.000 A 
ATOM     19  C   UNL     1       0.256   9.549  22.268  0.00  0.00    +0.000 A 
ATOM     20  F   UNL     1       0.118   9.580  23.600  0.00  0.00    +0.000 F 
ATOM     21  C   UNL     1       1.100   8.603  21.693  0.00  0.00    +0.000 A 
ENDBRANCH   3  14
BRANCH   9  22
ATOM     22  C   UNL     1       6.422   4.313  14.516  0.00  0.00    +0.000 A 
ATOM     23  C   UNL     1       5.858   3.527  13.503  0.00  0.00    +0.000 A 
ATOM     24  C   UNL     1       6.327   3.577  12.187  0.00  0.00    +0.000 A 
ATOM     25  C   UNL     1       7.374   4.427  11.857  0.00  0.00    +0.000 A 
ATOM     26  C   UNL     1       7.945   5.228  12.842  0.00  0.00    +0.000 A 
ATOM     27  C   UNL     1       7.469   5.174  14.158  0.00  0.00    +0.000 A 
ENDBRANCH   9  22
BRANCH  12  28
ATOM     28  C   UNL     1       3.599   4.070  20.157  0.00  0.00    +0.000 C 
BRANCH  28  29
ATOM     29  C   UNL     1       2.595   2.945  19.854  0.00  0.00    +0.000 C 
ATOM     30  C   UNL     1       1.223   3.417  19.381  0.00  0.00    +0.000 C 
ATOM     31  C   UNL     1       1.271   3.204  17.890  0.00  0.00    +0.000 C 
ATOM     32  C   UNL     1       2.142   1.977  17.780  0.00  0.00    +0.000 C 
ATOM     33  O   UNL     1       3.139   2.119  18.798  0.00  0.00    +0.000 OA
ENDBRANCH  28  29
ENDBRANCH  12  28
TORSDOF 4
ENDMDL
MODEL 8
REMARK VINA RESULT:      -8.4      0.758      1.025
REMARK  Name = 
REMARK  4 active torsions:
REMARK  status: ('A' for Active; 'I' for Inactive)
REMARK    1  A    between atoms: C_3  and  C_4
REMARK    2  A    between atoms: N_17  and  C_18
REMARK    3  A    between atoms: N_26  and  C_27
REMARK    4  A    between atoms: C_27  and  C_28
REMARK                            x       y       z     vdW  Elec       q    Type
REMARK                         _______ _______ _______ _____ _____    ______ ____
ROOT
ATOM      1  O   UNL     1       5.828   3.360  17.268  0.00  0.00    +0.000 OA
ATOM      2  C   UNL     1       5.246   4.433  17.375  0.00  0.00    +0.000 A 
ATOM      3  C   UNL     1       5.135   5.354  16.150  0.00  0.00    +0.000 A 
ATOM      4  N   UNL     1       4.383   6.415  16.161  0.00  0.00    +0.000 NA
ATOM      5  C   UNL     1       3.711   6.734  17.345  0.00  0.00    +0.000 A 
ATOM      6  C   UNL     1       2.856   7.804  17.393  0.00  0.00    +0.000 A 
ATOM      7  N   UNL     1       2.185   8.175  18.496  0.00  0.00    +0.000 NA
ATOM      8  C   UNL     1       2.383   7.470  19.619  0.00  0.00    +0.000 A 
ATOM      9  N   UNL     1       1.715   7.808  20.792  0.00  0.00    +0.000 N 
ATOM     10  N   UNL     1       3.189   6.397  19.673  0.00  0.00    +0.000 NA
ATOM     11  C   UNL     1       3.833   6.040  18.539  0.00  0.00    +0.000 A 
ATOM     12  N   UNL     1       4.636   4.873  18.542  0.00  0.00    +0.000 N 
ATOM     13  H   UNL     1       1.914   7.145  21.526  0.00  0.00    +0.000 HD
ENDROOT
BRANCH   3  14
ATOM     14  C   UNL     1       5.875   5.025  14.899  0.00  0.00    +0.000 A 
ATOM     15  C   UNL     1       5.321   4.083  14.022  0.00  0.00    +0.000 A 
ATOM     16  C   UNL     1       6.000   3.741  12.857  0.00  0.00    +0.000 A 
ATOM     17  F   UNL     1       5.473   2.827  12.032  0.00  0.00    +0.000 F 
ATOM     18  C   UNL     1       7.218   4.324  12.538  0.00  0.00    +0.000 A 
ATOM     19  C   UNL     1       7.746   5.277  13.397  0.00  0.00    +0.000 A 
ATOM     20  F   UNL     1       8.914   5.857  13.097  0.00  0.00    +0.000 F 
ATOM     21  C   UNL     1       7.085   5.642  14.567  0.00  0.00    +0.000 A 
ENDBRANCH   3  14
BRANCH   9  22
ATOM     22  C   UNL     1       1.024   8.973  21.157  0.00  0.00    +0.000 A 
ATOM     23  C   UNL     1       0.849  10.061  20.294  0.00  0.00    +0.000 A 
ATOM     24  C   UNL     1       0.097  11.179  20.663  0.00  0.00    +0.000 A 
ATOM     25  C   UNL     1      -0.506  11.226  21.913  0.00  0.00    +0.000 A 
ATOM     26  C   UNL     1      -0.358  10.152  22.788  0.00  0.00    +0.000 A 
ATOM     27  C   UNL     1       0.396   9.034  22.409  0.00  0.00    +0.000 A 
ENDBRANCH   9  22
BRANCH  12  28
ATOM     28  C   UNL     1       4.759   4.079  19.762  0.00  0.00    +0.000 C 
BRANCH  28  29
ATOM     29  C   UNL     1       3.737   2.940  19.922  0.00  0.00    +0.000 C 
ATOM     30  C   UNL     1       2.458   3.104  19.104  0.00  0.00    +0.000 C 
ATOM     31  C   UNL     1       2.671   2.183  17.929  0.00  0.00    +0.000 C 
ATOM     32  C   UNL     1       3.479   1.070  18.550  0.00  0.00    +0.000 C 
ATOM     33  O   UNL     1       4.355   1.707  19.487  0.00  0.00    +0.000 OA
ENDBRANCH  28  29
ENDBRANCH  12  28
TORSDOF 4
ENDMDL
MODEL 9
REMARK VINA RESULT:      -8.2      3.712      8.350
REMARK  Name = 
REMARK  4 active torsions:
REMARK  status: ('A' for Active; 'I' for Inactive)
REMARK    1  A    between atoms: C_3  and  C_4
REMARK    2  A    between atoms: N_17  and  C_18
REMARK    3  A    between atoms: N_26  and  C_27
REMARK    4  A    between atoms: C_27  and  C_28
REMARK                            x       y       z     vdW  Elec       q    Type
REMARK                         _______ _______ _______ _____ _____    ______ ____
ROOT
ATOM      1  O   UNL     1       1.425   7.098  21.295  0.00  0.00    +0.000 OA
ATOM      2  C   UNL     1       1.886   7.162  20.161  0.00  0.00    +0.000 A 
ATOM      3  C   UNL     1       1.665   8.436  19.331  0.00  0.00    +0.000 A 
ATOM      4  N   UNL     1       2.277   8.625  18.198  0.00  0.00    +0.000 NA
ATOM      5  C   UNL     1       3.108   7.607  17.721  0.00  0.00    +0.000 A 
ATOM      6  C   UNL     1       3.827   7.780  16.566  0.00  0.00    +0.000 A 
ATOM      7  N   UNL     1       4.635   6.844  16.043  0.00  0.00    +0.000 NA
ATOM      8  C   UNL     1       4.727   5.667  16.677  0.00  0.00    +0.000 A 
ATOM      9  N   UNL     1       5.551   4.660  16.180  0.00  0.00    +0.000 N 
ATOM     10  N   UNL     1       4.076   5.403  17.821  0.00  0.00    +0.000 NA
ATOM     11  C   UNL     1       3.286   6.375  18.330  0.00  0.00    +0.000 A 
ATOM     12  N   UNL     1       2.639   6.157  19.571  0.00  0.00    +0.000 N 
ATOM     13  H   UNL     1       5.566   3.865  16.803  0.00  0.00    +0.000 HD
ENDROOT
BRANCH   3  14
ATOM     14  C   UNL     1       0.757   9.505  19.830  0.00  0.00    +0.000 A 
ATOM     15  C   UNL     1      -0.026  10.206  18.903  0.00  0.00    +0.000 A 
ATOM     16  C   UNL     1      -0.867  11.224  19.339  0.00  0.00    +0.000 A 
ATOM     17  F   UNL     1      -1.599  11.901  18.444  0.00  0.00    +0.000 F 
ATOM     18  C   UNL     1      -0.957  11.557  20.683  0.00  0.00    +0.000 A 
ATOM     19  C   UNL     1      -0.201  10.839  21.597  0.00  0.00    +0.000 A 
ATOM     20  F   UNL     1      -0.285  11.140  22.900  0.00  0.00    +0.000 F 
ATOM     21  C   UNL     1       0.645   9.811  21.190  0.00  0.00    +0.000 A 
ENDBRANCH   3  14
BRANCH   9  22
ATOM     22  C   UNL     1       6.154   4.496  14.925  0.00  0.00    +0.000 A 
ATOM     23  C   UNL     1       5.600   3.710  13.907  0.00  0.00    +0.000 A 
ATOM     24  C   UNL     1       6.190   3.622  12.644  0.00  0.00    +0.000 A 
ATOM     25  C   UNL     1       7.353   4.330  12.371  0.00  0.00    +0.000 A 
ATOM     26  C   UNL     1       7.919   5.128  13.362  0.00  0.00    +0.000 A 
ATOM     27  C   UNL     1       7.320   5.214  14.625  0.00  0.00    +0.000 A 
ENDBRANCH   9  22
BRANCH  12  28
ATOM     28  C   UNL     1       2.832   4.893  20.279  0.00  0.00    +0.000 C 
BRANCH  28  29
ATOM     29  C   UNL     1       1.711   3.853  20.105  0.00  0.00    +0.000 C 
ATOM     30  C   UNL     1       1.136   3.757  18.694  0.00  0.00    +0.000 C 
ATOM     31  C   UNL     1       1.794   2.524  18.129  0.00  0.00    +0.000 C 
ATOM     32  C   UNL     1       1.928   1.654  19.355  0.00  0.00    +0.000 C 
ATOM     33  O   UNL     1       2.244   2.548  20.428  0.00  0.00    +0.000 OA
ENDBRANCH  28  29
ENDBRANCH  12  28
TORSDOF 4
ENDMDL
