MODEL 1
REMARK VINA RESULT:      -7.6      0.000      0.000
REMARK  Name = 
REMARK  7 active torsions:
REMARK  status: ('A' for Active; 'I' for Inactive)
REMARK    1  A    between atoms: C_1  and  C_2
REMARK    2  A    between atoms: C_2  and  C_3
REMARK    3  A    between atoms: C_2  and  O_4
REMARK    4  A    between atoms: O_4  and  C_5
REMARK    5  A    between atoms: N_7  and  C_8
REMARK    6  A    between atoms: C_11  and  O_12
REMARK    7  A    between atoms: O_12  and  C_13
REMARK                            x       y       z     vdW  Elec       q    Type
REMARK                         _______ _______ _______ _____ _____    ______ ____
ROOT
ATOM      1  C   UNL     1       0.095   9.920  19.030  0.00  0.00    +0.000 A 
ATOM      2  C   UNL     1       0.359   9.325  20.268  0.00  0.00    +0.000 A 
ATOM      3  C   UNL     1       1.336   8.339  20.396  0.00  0.00    +0.000 A 
ATOM      4  C   UNL     1       2.062   7.928  19.284  0.00  0.00    +0.000 A 
ATOM      5  C   UNL     1       1.852   8.557  18.054  0.00  0.00    +0.000 A 
ATOM      6  C   UNL     1       0.841   9.518  17.918  0.00  0.00    +0.000 A 
ENDROOT
BRANCH   1   9
ATOM      7  C   UNL     1      -2.125  10.725  18.310  0.00  0.00    +0.000 C 
ATOM      8  O   UNL     1      -2.593   9.667  17.905  0.00  0.00    +0.000 OA
ATOM      9  N   UNL     1      -0.889  10.914  18.859  0.00  0.00    +0.000 N 
ATOM     10  H   UNL     1      -0.733  11.829  19.261  0.00  0.00    +0.000 HD
BRANCH   7  11
ATOM     11  O   UNL     1      -2.836  11.894  18.329  0.00  0.00    +0.000 OA
BRANCH  11  13
ATOM     12  C   UNL     1      -4.657  12.633  19.734  0.00  0.00    +0.000 C 
ATOM     13  C   UNL     1      -4.240  11.702  18.598  0.00  0.00    +0.000 C 
ATOM     14  C   UNL     1      -5.033  11.996  17.333  0.00  0.00    +0.000 C 
ENDBRANCH  11  13
ENDBRANCH   7  11
ENDBRANCH   1   9
BRANCH   4  15
ATOM     15  O   UNL     1       2.988   6.942  19.521  0.00  0.00    +0.000 OA
BRANCH  15  16
ATOM     16  C   UNL     1       2.782   5.667  19.052  0.00  0.00    +0.000 A 
ATOM     17  C   UNL     1       3.575   5.285  17.968  0.00  0.00    +0.000 A 
ATOM     18  F   UNL     1       4.483   6.138  17.467  0.00  0.00    +0.000 F 
ATOM     19  C   UNL     1       3.438   4.026  17.394  0.00  0.00    +0.000 A 
ATOM     20  F   UNL     1       4.201   3.678  16.350  0.00  0.00    +0.000 F 
ATOM     21  C   UNL     1       2.504   3.134  17.899  0.00  0.00    +0.000 A 
ATOM     22  F   UNL     1       2.342   1.933  17.326  0.00  0.00    +0.000 F 
ATOM     23  C   UNL     1       1.742   3.482  19.003  0.00  0.00    +0.000 A 
ATOM     24  F   UNL     1       0.841   2.621  19.496  0.00  0.00    +0.000 F 
ATOM     25  C   UNL     1       1.903   4.729  19.600  0.00  0.00    +0.000 A 
ATOM     26  F   UNL     1       1.194   4.998  20.704  0.00  0.00    +0.000 F 
ENDBRANCH  15  16
ENDBRANCH   4  15
TORSDOF 5
ENDMDL
MODEL 2
REMARK VINA RESULT:      -7.6      1.440      1.941
REMARK  Name = 
REMARK  7 active torsions:
REMARK  status: ('A' for Active; 'I' for Inactive)
REMARK    1  A    between atoms: C_1  and  C_2
REMARK    2  A    between atoms: C_2  and  C_3
REMARK    3  A    between atoms: C_2  and  O_4
REMARK    4  A    between atoms: O_4  and  C_5
REMARK    5  A    between atoms: N_7  and  C_8
REMARK    6  A    between atoms: C_11  and  O_12
REMARK    7  A    between atoms: O_12  and  C_13
REMARK                            x       y       z     vdW  Elec       q    Type
REMARK                         _______ _______ _______ _____ _____    ______ ____
ROOT
ATOM      1  C   UNL     1       0.898   9.639  19.207  0.00  0.00    +0.000 A 
ATOM      2  C   UNL     1       1.692   8.975  18.266  0.00  0.00    +0.000 A 
ATOM      3  C   UNL     1       2.379   7.810  18.602  0.00  0.00    +0.000 A 
ATOM      4  C   UNL     1       2.288   7.292  19.889  0.00  0.00    +0.000 A 
ATOM      5  C   UNL     1       1.450   7.910  20.820  0.00  0.00    +0.000 A 
ATOM      6  C   UNL     1       0.792   9.104  20.494  0.00  0.00    +0.000 A 
ENDROOT
BRANCH   1   9
ATOM      7  C   UNL     1      -1.038  10.891  18.323  0.00  0.00    +0.000 C 
ATOM      8  O   UNL     1      -1.744   9.946  17.989  0.00  0.00    +0.000 OA
ATOM      9  N   UNL     1       0.194  10.822  18.908  0.00  0.00    +0.000 N 
ATOM     10  H   UNL     1       0.563  11.706  19.236  0.00  0.00    +0.000 HD
BRANCH   7  11
ATOM     11  O   UNL     1      -1.437  12.194  18.209  0.00  0.00    +0.000 OA
BRANCH  11  13
ATOM     12  C   UNL     1      -0.389  14.319  18.680  0.00  0.00    +0.000 C 
ATOM     13  C   UNL     1      -0.955  13.034  19.278  0.00  0.00    +0.000 C 
ATOM     14  C   UNL     1      -2.104  13.335  20.230  0.00  0.00    +0.000 C 
ENDBRANCH  11  13
ENDBRANCH   7  11
ENDBRANCH   1   9
BRANCH   4  15
ATOM     15  O   UNL     1       3.016   6.150  20.113  0.00  0.00    +0.000 OA
BRANCH  15  16
ATOM     16  C   UNL     1       2.755   5.007  19.396  0.00  0.00    +0.000 A 
ATOM     17  C   UNL     1       3.763   4.601  18.519  0.00  0.00    +0.000 A 
ATOM     18  F   UNL     1       4.905   5.303  18.437  0.00  0.00    +0.000 F 
ATOM     19  C   UNL     1       3.602   3.471  17.723  0.00  0.00    +0.000 A 
ATOM     20  F   UNL     1       4.576   3.100  16.882  0.00  0.00    +0.000 F 
ATOM     21  C   UNL     1       2.429   2.736  17.796  0.00  0.00    +0.000 A 
ATOM     22  F   UNL     1       2.254   1.668  17.005  0.00  0.00    +0.000 F 
ATOM     23  C   UNL     1       1.439   3.101  18.695  0.00  0.00    +0.000 A 
ATOM     24  F   UNL     1       0.306   2.390  18.771  0.00  0.00    +0.000 F 
ATOM     25  C   UNL     1       1.614   4.211  19.517  0.00  0.00    +0.000 A 
ATOM     26  F   UNL     1       0.661   4.488  20.416  0.00  0.00    +0.000 F 
ENDBRANCH  15  16
ENDBRANCH   4  15
TORSDOF 5
ENDMDL
MODEL 3
REMARK VINA RESULT:      -7.6      1.083      1.265
REMARK  Name = 
REMARK  7 active torsions:
REMARK  status: ('A' for Active; 'I' for Inactive)
REMARK    1  A    between atoms: C_1  and  C_2
REMARK    2  A    between atoms: C_2  and  C_3
REMARK    3  A    between atoms: C_2  and  O_4
REMARK    4  A    between atoms: O_4  and  C_5
REMARK    5  A    between atoms: N_7  and  C_8
REMARK    6  A    between atoms: C_11  and  O_12
REMARK    7  A    between atoms: O_12  and  C_13
REMARK                            x       y       z     vdW  Elec       q    Type
REMARK                         _______ _______ _______ _____ _____    ______ ____
ROOT
ATOM      1  C   UNL     1       0.604   9.756  19.413  0.00  0.00    +0.000 A 
ATOM      2  C   UNL     1       0.700   9.100  20.645  0.00  0.00    +0.000 A 
ATOM      3  C   UNL     1       1.506   7.972  20.795  0.00  0.00    +0.000 A 
ATOM      4  C   UNL     1       2.225   7.478  19.713  0.00  0.00    +0.000 A 
ATOM      5  C   UNL     1       2.187   8.160  18.494  0.00  0.00    +0.000 A 
ATOM      6  C   UNL     1       1.345   9.269  18.332  0.00  0.00    +0.000 A 
ENDROOT
BRANCH   1   9
ATOM      7  C   UNL     1      -1.438  10.905  18.634  0.00  0.00    +0.000 C 
ATOM      8  O   UNL     1      -2.055   9.935  18.209  0.00  0.00    +0.000 OA
ATOM      9  N   UNL     1      -0.204  10.894  19.220  0.00  0.00    +0.000 N 
ATOM     10  H   UNL     1       0.084  11.773  19.630  0.00  0.00    +0.000 HD
BRANCH   7  11
ATOM     11  O   UNL     1      -1.954  12.171  18.638  0.00  0.00    +0.000 OA
BRANCH  11  13
ATOM     12  C   UNL     1      -1.499  14.084  20.042  0.00  0.00    +0.000 C 
ATOM     13  C   UNL     1      -2.146  12.704  19.965  0.00  0.00    +0.000 C 
ATOM     14  C   UNL     1      -3.637  12.783  20.258  0.00  0.00    +0.000 C 
ENDBRANCH  11  13
ENDBRANCH   7  11
ENDBRANCH   1   9
BRANCH   4  15
ATOM     15  O   UNL     1       2.973   6.357  19.969  0.00  0.00    +0.000 OA
BRANCH  15  16
ATOM     16  C   UNL     1       2.726   5.186  19.293  0.00  0.00    +0.000 A 
ATOM     17  C   UNL     1       3.691   4.814  18.354  0.00  0.00    +0.000 A 
ATOM     18  F   UNL     1       4.784   5.574  18.179  0.00  0.00    +0.000 F 
ATOM     19  C   UNL     1       3.537   3.661  17.592  0.00  0.00    +0.000 A 
ATOM     20  F   UNL     1       4.468   3.324  16.691  0.00  0.00    +0.000 F 
ATOM     21  C   UNL     1       2.413   2.866  17.761  0.00  0.00    +0.000 A 
ATOM     22  F   UNL     1       2.242   1.774  17.003  0.00  0.00    +0.000 F 
ATOM     23  C   UNL     1       1.470   3.198  18.721  0.00  0.00    +0.000 A 
ATOM     24  F   UNL     1       0.385   2.430  18.889  0.00  0.00    +0.000 F 
ATOM     25  C   UNL     1       1.641   4.333  19.508  0.00  0.00    +0.000 A 
ATOM     26  F   UNL     1       0.739   4.579  20.468  0.00  0.00    +0.000 F 
ENDBRANCH  15  16
ENDBRANCH   4  15
TORSDOF 5
ENDMDL
MODEL 4
REMARK VINA RESULT:      -7.6      5.855      7.488
REMARK  Name = 
REMARK  7 active torsions:
REMARK  status: ('A' for Active; 'I' for Inactive)
REMARK    1  A    between atoms: C_1  and  C_2
REMARK    2  A    between atoms: C_2  and  C_3
REMARK    3  A    between atoms: C_2  and  O_4
REMARK    4  A    between atoms: O_4  and  C_5
REMARK    5  A    between atoms: N_7  and  C_8
REMARK    6  A    between atoms: C_11  and  O_12
REMARK    7  A    between atoms: O_12  and  C_13
REMARK                            x       y       z     vdW  Elec       q    Type
REMARK                         _______ _______ _______ _____ _____    ______ ____
ROOT
ATOM      1  C   UNL     1       6.250   6.980  17.147  0.00  0.00    +0.000 A 
ATOM      2  C   UNL     1       4.901   7.096  17.500  0.00  0.00    +0.000 A 
ATOM      3  C   UNL     1       4.073   5.976  17.546  0.00  0.00    +0.000 A 
ATOM      4  C   UNL     1       4.581   4.720  17.233  0.00  0.00    +0.000 A 
ATOM      5  C   UNL     1       5.940   4.581  16.940  0.00  0.00    +0.000 A 
ATOM      6  C   UNL     1       6.761   5.713  16.853  0.00  0.00    +0.000 A 
ENDROOT
BRANCH   1   9
ATOM      7  C   UNL     1       8.151   8.344  17.936  0.00  0.00    +0.000 C 
ATOM      8  O   UNL     1       8.515   7.644  18.874  0.00  0.00    +0.000 OA
ATOM      9  N   UNL     1       7.116   8.089  17.082  0.00  0.00    +0.000 N 
ATOM     10  H   UNL     1       7.053   8.712  16.287  0.00  0.00    +0.000 HD
BRANCH   7  11
ATOM     11  O   UNL     1       8.803   9.487  17.565  0.00  0.00    +0.000 OA
BRANCH  11  13
ATOM     12  C   UNL     1       9.740  10.566  19.512  0.00  0.00    +0.000 C 
ATOM     13  C   UNL     1       8.609  10.579  18.487  0.00  0.00    +0.000 C 
ATOM     14  C   UNL     1       8.593  11.888  17.710  0.00  0.00    +0.000 C 
ENDBRANCH  11  13
ENDBRANCH   7  11
ENDBRANCH   1   9
BRANCH   4  15
ATOM     15  O   UNL     1       3.675   3.690  17.297  0.00  0.00    +0.000 OA
BRANCH  15  16
ATOM     16  C   UNL     1       3.083   3.358  18.493  0.00  0.00    +0.000 A 
ATOM     17  C   UNL     1       1.712   3.612  18.580  0.00  0.00    +0.000 A 
ATOM     18  F   UNL     1       1.057   4.126  17.527  0.00  0.00    +0.000 F 
ATOM     19  C   UNL     1       1.011   3.338  19.749  0.00  0.00    +0.000 A 
ATOM     20  F   UNL     1      -0.302   3.595  19.818  0.00  0.00    +0.000 F 
ATOM     21  C   UNL     1       1.673   2.809  20.845  0.00  0.00    +0.000 A 
ATOM     22  F   UNL     1       1.009   2.578  21.987  0.00  0.00    +0.000 F 
ATOM     23  C   UNL     1       3.024   2.509  20.758  0.00  0.00    +0.000 A 
ATOM     24  F   UNL     1       3.667   1.993  21.815  0.00  0.00    +0.000 F 
ATOM     25  C   UNL     1       3.720   2.749  19.577  0.00  0.00    +0.000 A 
ATOM     26  F   UNL     1       5.007   2.384  19.515  0.00  0.00    +0.000 F 
ENDBRANCH  15  16
ENDBRANCH   4  15
TORSDOF 5
ENDMDL
MODEL 5
REMARK VINA RESULT:      -7.6      1.149      1.715
REMARK  Name = 
REMARK  7 active torsions:
REMARK  status: ('A' for Active; 'I' for Inactive)
REMARK    1  A    between atoms: C_1  and  C_2
REMARK    2  A    between atoms: C_2  and  C_3
REMARK    3  A    between atoms: C_2  and  O_4
REMARK    4  A    between atoms: O_4  and  C_5
REMARK    5  A    between atoms: N_7  and  C_8
REMARK    6  A    between atoms: C_11  and  O_12
REMARK    7  A    between atoms: O_12  and  C_13
REMARK                            x       y       z     vdW  Elec       q    Type
REMARK                         _______ _______ _______ _____ _____    ______ ____
ROOT
ATOM      1  C   UNL     1       0.633   9.894  19.218  0.00  0.00    +0.000 A 
ATOM      2  C   UNL     1       1.319   9.381  18.112  0.00  0.00    +0.000 A 
ATOM      3  C   UNL     1       2.134   8.258  18.231  0.00  0.00    +0.000 A 
ATOM      4  C   UNL     1       2.282   7.630  19.463  0.00  0.00    +0.000 A 
ATOM      5  C   UNL     1       1.554   8.093  20.562  0.00  0.00    +0.000 A 
ATOM      6  C   UNL     1       0.767   9.248  20.450  0.00  0.00    +0.000 A 
ENDROOT
BRANCH   1   9
ATOM      7  C   UNL     1      -1.483  11.050  18.687  0.00  0.00    +0.000 C 
ATOM      8  O   UNL     1      -2.140  10.087  18.308  0.00  0.00    +0.000 OA
ATOM      9  N   UNL     1      -0.195  11.031  19.138  0.00  0.00    +0.000 N 
ATOM     10  H   UNL     1       0.133  11.902  19.537  0.00  0.00    +0.000 HD
BRANCH   7  11
ATOM     11  O   UNL     1      -2.000  12.313  18.776  0.00  0.00    +0.000 OA
BRANCH  11  13
ATOM     12  C   UNL     1      -1.964  13.976  20.528  0.00  0.00    +0.000 C 
ATOM     13  C   UNL     1      -2.519  12.625  20.085  0.00  0.00    +0.000 C 
ATOM     14  C   UNL     1      -4.040  12.655  20.022  0.00  0.00    +0.000 C 
ENDBRANCH  11  13
ENDBRANCH   7  11
ENDBRANCH   1   9
BRANCH   4  15
ATOM     15  O   UNL     1       3.119   6.542  19.470  0.00  0.00    +0.000 OA
BRANCH  15  16
ATOM     16  C   UNL     1       2.607   5.270  19.365  0.00  0.00    +0.000 A 
ATOM     17  C   UNL     1       2.743   4.665  18.114  0.00  0.00    +0.000 A 
ATOM     18  F   UNL     1       3.362   5.317  17.117  0.00  0.00    +0.000 F 
ATOM     19  C   UNL     1       2.242   3.389  17.882  0.00  0.00    +0.000 A 
ATOM     20  F   UNL     1       2.373   2.826  16.674  0.00  0.00    +0.000 F 
ATOM     21  C   UNL     1       1.598   2.703  18.901  0.00  0.00    +0.000 A 
ATOM     22  F   UNL     1       1.081   1.487  18.672  0.00  0.00    +0.000 F 
ATOM     23  C   UNL     1       1.497   3.272  20.161  0.00  0.00    +0.000 A 
ATOM     24  F   UNL     1       0.879   2.611  21.149  0.00  0.00    +0.000 F 
ATOM     25  C   UNL     1       2.029   4.536  20.403  0.00  0.00    +0.000 A 
ATOM     26  F   UNL     1       1.967   5.020  21.651  0.00  0.00    +0.000 F 
ENDBRANCH  15  16
ENDBRANCH   4  15
TORSDOF 5
ENDMDL
MODEL 6
REMARK VINA RESULT:      -7.5      5.918      7.436
REMARK  Name = 
REMARK  7 active torsions:
REMARK  status: ('A' for Active; 'I' for Inactive)
REMARK    1  A    between atoms: C_1  and  C_2
REMARK    2  A    between atoms: C_2  and  C_3
REMARK    3  A    between atoms: C_2  and  O_4
REMARK    4  A    between atoms: O_4  and  C_5
REMARK    5  A    between atoms: N_7  and  C_8
REMARK    6  A    between atoms: C_11  and  O_12
REMARK    7  A    between atoms: O_12  and  C_13
REMARK                            x       y       z     vdW  Elec       q    Type
REMARK                         _______ _______ _______ _____ _____    ______ ____
ROOT
ATOM      1  C   UNL     1       6.327   6.914  17.118  0.00  0.00    +0.000 A 
ATOM      2  C   UNL     1       4.959   7.000  17.400  0.00  0.00    +0.000 A 
ATOM      3  C   UNL     1       4.166   5.856  17.458  0.00  0.00    +0.000 A 
ATOM      4  C   UNL     1       4.727   4.604  17.229  0.00  0.00    +0.000 A 
ATOM      5  C   UNL     1       6.102   4.498  17.008  0.00  0.00    +0.000 A 
ATOM      6  C   UNL     1       6.891   5.652  16.908  0.00  0.00    +0.000 A 
ENDROOT
BRANCH   1   9
ATOM      7  C   UNL     1       8.160   8.361  17.919  0.00  0.00    +0.000 C 
ATOM      8  O   UNL     1       8.517   7.703  18.889  0.00  0.00    +0.000 OA
ATOM      9  N   UNL     1       7.160   8.047  17.043  0.00  0.00    +0.000 N 
ATOM     10  H   UNL     1       7.102   8.642  16.226  0.00  0.00    +0.000 HD
BRANCH   7  11
ATOM     11  O   UNL     1       8.788   9.512  17.530  0.00  0.00    +0.000 OA
BRANCH  11  13
ATOM     12  C   UNL     1       9.861  10.671  19.357  0.00  0.00    +0.000 C 
ATOM     13  C   UNL     1       8.623  10.596  18.468  0.00  0.00    +0.000 C 
ATOM     14  C   UNL     1       8.425  11.893  17.698  0.00  0.00    +0.000 C 
ENDBRANCH  11  13
ENDBRANCH   7  11
ENDBRANCH   1   9
BRANCH   4  15
ATOM     15  O   UNL     1       3.852   3.549  17.298  0.00  0.00    +0.000 OA
BRANCH  15  16
ATOM     16  C   UNL     1       3.083   3.355  18.421  0.00  0.00    +0.000 A 
ATOM     17  C   UNL     1       3.749   2.816  19.524  0.00  0.00    +0.000 A 
ATOM     18  F   UNL     1       5.062   2.545  19.449  0.00  0.00    +0.000 F 
ATOM     19  C   UNL     1       3.069   2.554  20.708  0.00  0.00    +0.000 A 
ATOM     20  F   UNL     1       3.721   2.030  21.754  0.00  0.00    +0.000 F 
ATOM     21  C   UNL     1       1.713   2.827  20.801  0.00  0.00    +0.000 A 
ATOM     22  F   UNL     1       1.045   2.542  21.928  0.00  0.00    +0.000 F 
ATOM     23  C   UNL     1       1.049   3.405  19.731  0.00  0.00    +0.000 A 
ATOM     24  F   UNL     1      -0.261   3.674  19.818  0.00  0.00    +0.000 F 
ATOM     25  C   UNL     1       1.737   3.700  18.557  0.00  0.00    +0.000 A 
ATOM     26  F   UNL     1       1.071   4.317  17.572  0.00  0.00    +0.000 F 
ENDBRANCH  15  16
ENDBRANCH   4  15
TORSDOF 5
ENDMDL
MODEL 7
REMARK VINA RESULT:      -7.5      0.171      2.128
REMARK  Name = 
REMARK  7 active torsions:
REMARK  status: ('A' for Active; 'I' for Inactive)
REMARK    1  A    between atoms: C_1  and  C_2
REMARK    2  A    between atoms: C_2  and  C_3
REMARK    3  A    between atoms: C_2  and  O_4
REMARK    4  A    between atoms: O_4  and  C_5
REMARK    5  A    between atoms: N_7  and  C_8
REMARK    6  A    between atoms: C_11  and  O_12
REMARK    7  A    between atoms: O_12  and  C_13
REMARK                            x       y       z     vdW  Elec       q    Type
REMARK                         _______ _______ _______ _____ _____    ______ ____
ROOT
ATOM      1  C   UNL     1       0.019   9.966  19.106  0.00  0.00    +0.000 A 
ATOM      2  C   UNL     1       0.256   9.386  20.357  0.00  0.00    +0.000 A 
ATOM      3  C   UNL     1       1.230   8.403  20.518  0.00  0.00    +0.000 A 
ATOM      4  C   UNL     1       1.981   7.978  19.427  0.00  0.00    +0.000 A 
ATOM      5  C   UNL     1       1.798   8.593  18.186  0.00  0.00    +0.000 A 
ATOM      6  C   UNL     1       0.790   9.551  18.016  0.00  0.00    +0.000 A 
ENDROOT
BRANCH   1   9
ATOM      7  C   UNL     1      -2.166  10.771  18.286  0.00  0.00    +0.000 C 
ATOM      8  O   UNL     1      -2.606   9.718  17.839  0.00  0.00    +0.000 OA
ATOM      9  N   UNL     1      -0.961  10.957  18.901  0.00  0.00    +0.000 N 
ATOM     10  H   UNL     1      -0.832  11.866  19.325  0.00  0.00    +0.000 HD
BRANCH   7  11
ATOM     11  O   UNL     1      -2.884  11.935  18.287  0.00  0.00    +0.000 OA
BRANCH  11  13
ATOM     12  C   UNL     1      -4.537  12.679  19.885  0.00  0.00    +0.000 C 
ATOM     13  C   UNL     1      -4.255  11.758  18.700  0.00  0.00    +0.000 C 
ATOM     14  C   UNL     1      -5.172  12.080  17.529  0.00  0.00    +0.000 C 
ENDBRANCH  11  13
ENDBRANCH   7  11
ENDBRANCH   1   9
BRANCH   4  15
ATOM     15  O   UNL     1       2.902   6.996  19.697  0.00  0.00    +0.000 OA
BRANCH  15  16
ATOM     16  C   UNL     1       2.827   5.780  19.062  0.00  0.00    +0.000 A 
ATOM     17  C   UNL     1       1.954   4.852  19.635  0.00  0.00    +0.000 A 
ATOM     18  F   UNL     1       1.239   5.184  20.721  0.00  0.00    +0.000 F 
ATOM     19  C   UNL     1       1.812   3.579  19.093  0.00  0.00    +0.000 A 
ATOM     20  F   UNL     1       0.977   2.698  19.659  0.00  0.00    +0.000 F 
ATOM     21  C   UNL     1       2.544   3.219  17.971  0.00  0.00    +0.000 A 
ATOM     22  F   UNL     1       2.439   1.982  17.467  0.00  0.00    +0.000 F 
ATOM     23  C   UNL     1       3.379   4.145  17.365  0.00  0.00    +0.000 A 
ATOM     24  F   UNL     1       4.085   3.802  16.279  0.00  0.00    +0.000 F 
ATOM     25  C   UNL     1       3.495   5.431  17.886  0.00  0.00    +0.000 A 
ATOM     26  F   UNL     1       4.262   6.312  17.231  0.00  0.00    +0.000 F 
ENDBRANCH  15  16
ENDBRANCH   4  15
TORSDOF 5
ENDMDL
MODEL 8
REMARK VINA RESULT:      -7.5      1.471      1.795
REMARK  Name = 
REMARK  7 active torsions:
REMARK  status: ('A' for Active; 'I' for Inactive)
REMARK    1  A    between atoms: C_1  and  C_2
REMARK    2  A    between atoms: C_2  and  C_3
REMARK    3  A    between atoms: C_2  and  O_4
REMARK    4  A    between atoms: O_4  and  C_5
REMARK    5  A    between atoms: N_7  and  C_8
REMARK    6  A    between atoms: C_11  and  O_12
REMARK    7  A    between atoms: O_12  and  C_13
REMARK                            x       y       z     vdW  Elec       q    Type
REMARK                         _______ _______ _______ _____ _____    ______ ____
ROOT
ATOM      1  C   UNL     1       0.871   9.831  19.053  0.00  0.00    +0.000 A 
ATOM      2  C   UNL     1       0.987   9.133  20.260  0.00  0.00    +0.000 A 
ATOM      3  C   UNL     1       1.787   7.996  20.356  0.00  0.00    +0.000 A 
ATOM      4  C   UNL     1       2.481   7.534  19.244  0.00  0.00    +0.000 A 
ATOM      5  C   UNL     1       2.424   8.257  18.049  0.00  0.00    +0.000 A 
ATOM      6  C   UNL     1       1.587   9.375  17.942  0.00  0.00    +0.000 A 
ENDROOT
BRANCH   1   9
ATOM      7  C   UNL     1      -1.156  11.028  18.310  0.00  0.00    +0.000 C 
ATOM      8  O   UNL     1      -1.768  10.086  17.819  0.00  0.00    +0.000 OA
ATOM      9  N   UNL     1       0.067  10.979  18.914  0.00  0.00    +0.000 N 
ATOM     10  H   UNL     1       0.349  11.832  19.381  0.00  0.00    +0.000 HD
BRANCH   7  11
ATOM     11  O   UNL     1      -1.671  12.292  18.381  0.00  0.00    +0.000 OA
BRANCH  11  13
ATOM     12  C   UNL     1      -0.568  14.325  19.080  0.00  0.00    +0.000 C 
ATOM     13  C   UNL     1      -1.224  13.026  19.540  0.00  0.00    +0.000 C 
ATOM     14  C   UNL     1      -2.418  13.307  20.441  0.00  0.00    +0.000 C 
ENDBRANCH  11  13
ENDBRANCH   7  11
ENDBRANCH   1   9
BRANCH   4  15
ATOM     15  O   UNL     1       3.227   6.399  19.448  0.00  0.00    +0.000 OA
BRANCH  15  16
ATOM     16  C   UNL     1       2.646   5.158  19.343  0.00  0.00    +0.000 A 
ATOM     17  C   UNL     1       2.759   4.541  18.095  0.00  0.00    +0.000 A 
ATOM     18  F   UNL     1       3.422   5.152  17.101  0.00  0.00    +0.000 F 
ATOM     19  C   UNL     1       2.190   3.293  17.864  0.00  0.00    +0.000 A 
ATOM     20  F   UNL     1       2.300   2.719  16.659  0.00  0.00    +0.000 F 
ATOM     21  C   UNL     1       1.501   2.648  18.880  0.00  0.00    +0.000 A 
ATOM     22  F   UNL     1       0.919   1.462  18.652  0.00  0.00    +0.000 F 
ATOM     23  C   UNL     1       1.421   3.228  20.137  0.00  0.00    +0.000 A 
ATOM     24  F   UNL     1       0.759   2.606  21.122  0.00  0.00    +0.000 F 
ATOM     25  C   UNL     1       2.020   4.461  20.379  0.00  0.00    +0.000 A 
ATOM     26  F   UNL     1       1.974   4.953  21.624  0.00  0.00    +0.000 F 
ENDBRANCH  15  16
ENDBRANCH   4  15
TORSDOF 5
ENDMDL
MODEL 9
REMARK VINA RESULT:      -7.4      1.364      2.689
REMARK  Name = 
REMARK  7 active torsions:
REMARK  status: ('A' for Active; 'I' for Inactive)
REMARK    1  A    between atoms: C_1  and  C_2
REMARK    2  A    between atoms: C_2  and  C_3
REMARK    3  A    between atoms: C_2  and  O_4
REMARK    4  A    between atoms: O_4  and  C_5
REMARK    5  A    between atoms: N_7  and  C_8
REMARK    6  A    between atoms: C_11  and  O_12
REMARK    7  A    between atoms: O_12  and  C_13
REMARK                            x       y       z     vdW  Elec       q    Type
REMARK                         _______ _______ _______ _____ _____    ______ ____
ROOT
ATOM      1  C   UNL     1       0.642   9.754  19.517  0.00  0.00    +0.000 A 
ATOM      2  C   UNL     1       0.614   9.074  20.740  0.00  0.00    +0.000 A 
ATOM      3  C   UNL     1       1.351   7.907  20.928  0.00  0.00    +0.000 A 
ATOM      4  C   UNL     1       2.124   7.395  19.892  0.00  0.00    +0.000 A 
ATOM      5  C   UNL     1       2.210   8.096  18.687  0.00  0.00    +0.000 A 
ATOM      6  C   UNL     1       1.437   9.247  18.485  0.00  0.00    +0.000 A 
ENDROOT
BRANCH   1   9
ATOM      7  C   UNL     1      -1.234  11.027  18.540  0.00  0.00    +0.000 C 
ATOM      8  O   UNL     1      -1.819  10.109  17.977  0.00  0.00    +0.000 OA
ATOM      9  N   UNL     1      -0.094  10.932  19.286  0.00  0.00    +0.000 N 
ATOM     10  H   UNL     1       0.163  11.774  19.785  0.00  0.00    +0.000 HD
BRANCH   7  11
ATOM     11  O   UNL     1      -1.704  12.311  18.552  0.00  0.00    +0.000 OA
BRANCH  11  13
ATOM     12  C   UNL     1      -0.261  14.245  18.668  0.00  0.00    +0.000 C 
ATOM     13  C   UNL     1      -0.992  13.170  19.467  0.00  0.00    +0.000 C 
ATOM     14  C   UNL     1      -1.985  13.793  20.438  0.00  0.00    +0.000 C 
ENDBRANCH  11  13
ENDBRANCH   7  11
ENDBRANCH   1   9
BRANCH   4  15
ATOM     15  O   UNL     1       2.797   6.233  20.182  0.00  0.00    +0.000 OA
BRANCH  15  16
ATOM     16  C   UNL     1       2.728   5.158  19.328  0.00  0.00    +0.000 A 
ATOM     17  C   UNL     1       1.642   4.301  19.523  0.00  0.00    +0.000 A 
ATOM     18  F   UNL     1       0.740   4.567  20.481  0.00  0.00    +0.000 F 
ATOM     19  C   UNL     1       1.481   3.167  18.735  0.00  0.00    +0.000 A 
ATOM     20  F   UNL     1       0.439   2.351  18.941  0.00  0.00    +0.000 F 
ATOM     21  C   UNL     1       2.405   2.877  17.742  0.00  0.00    +0.000 A 
ATOM     22  F   UNL     1       2.273   1.765  17.005  0.00  0.00    +0.000 F 
ATOM     23  C   UNL     1       3.460   3.743  17.507  0.00  0.00    +0.000 A 
ATOM     24  F   UNL     1       4.353   3.468  16.546  0.00  0.00    +0.000 F 
ATOM     25  C   UNL     1       3.604   4.897  18.273  0.00  0.00    +0.000 A 
ATOM     26  F   UNL     1       4.600   5.739  17.968  0.00  0.00    +0.000 F 
ENDBRANCH  15  16
ENDBRANCH   4  15
TORSDOF 5
ENDMDL
