MODEL 1
REMARK VINA RESULT:      -7.5      0.000      0.000
REMARK  Name = 
REMARK  8 active torsions:
REMARK  status: ('A' for Active; 'I' for Inactive)
REMARK    1  A    between atoms: C_1  and  C_2
REMARK    2  A    between atoms: C_2  and  C_3
REMARK    3  A    between atoms: C_2  and  C_4
REMARK    4  A    between atoms: C_2  and  S_5
REMARK    5  A    between atoms: S_5  and  C_8
REMARK    6  A    between atoms: C_11  and  C_12
REMARK    7  A    between atoms: C_14  and  N_15
REMARK    8  A    between atoms: C_24  and  O_25
REMARK                            x       y       z     vdW  Elec       q    Type
REMARK                         _______ _______ _______ _____ _____    ______ ____
ROOT
ATOM      1  C   UNL     1       4.973   3.712  17.352  0.00  0.00    +0.000 A 
ATOM      2  C   UNL     1       5.051   3.667  16.002  0.00  0.00    +0.000 A 
ATOM      3  N   UNL     1       6.080   4.335  15.331  0.00  0.00    +0.000 N 
ATOM      4  C   UNL     1       6.445   4.359  13.984  0.00  0.00    +0.000 A 
ATOM      5  C   UNL     1       7.509   5.252  13.945  0.00  0.00    +0.000 A 
ATOM      6  N   UNL     1       7.836   5.727  15.182  0.00  0.00    +0.000 NA
ATOM      7  C   UNL     1       6.993   5.148  16.002  0.00  0.00    +0.000 A 
ATOM      8  C   UNL     1       6.902   5.222  17.419  0.00  0.00    +0.000 A 
ATOM      9  C   UNL     1       5.960   4.517  18.073  0.00  0.00    +0.000 A 
ENDROOT
BRANCH   4  10
ATOM     10  C   UNL     1       5.868   3.593  12.868  0.00  0.00    +0.000 A 
ATOM     11  C   UNL     1       6.413   2.348  12.524  0.00  0.00    +0.000 A 
ATOM     12  C   UNL     1       5.829   1.588  11.517  0.00  0.00    +0.000 A 
ATOM     13  N   UNL     1       4.754   1.995  10.833  0.00  0.00    +0.000 NA
ATOM     14  C   UNL     1       4.235   3.187  11.181  0.00  0.00    +0.000 A 
ATOM     15 CL   UNL     1       2.849   3.652  10.282  0.00  0.00    +0.000 Cl
ATOM     16  C   UNL     1       4.728   4.006  12.183  0.00  0.00    +0.000 A 
BRANCH  12  17
ATOM     17  N   UNL     1       6.303   0.312  11.234  0.00  0.00    +0.000 N 
ATOM     18  H   UNL     1       5.699  -0.206  10.608  0.00  0.00    +0.000 HD
ATOM     19  H   UNL     1       6.445  -0.170  12.120  0.00  0.00    +0.000 HD
ENDBRANCH  12  17
ENDBRANCH   4  10
BRANCH   1  20
ATOM     20  S   UNL     1       3.647   2.848  18.125  0.00  0.00    +0.000 S 
ATOM     21  O   UNL     1       4.169   2.222  19.329  0.00  0.00    +0.000 OA
ATOM     22  O   UNL     1       2.957   2.010  17.160  0.00  0.00    +0.000 OA
BRANCH  20  24
ATOM     23  C   UNL     1       2.627   4.395  20.188  0.00  0.00    +0.000 C 
ATOM     24  C   UNL     1       2.484   4.151  18.677  0.00  0.00    +0.000 C 
ATOM     25  C   UNL     1       1.051   3.655  18.394  0.00  0.00    +0.000 C 
ATOM     26  C   UNL     1       2.695   5.469  17.921  0.00  0.00    +0.000 C 
ENDBRANCH  20  24
ENDBRANCH   1  20
BRANCH   9  27
ATOM     27  O   UNL     1       5.888   4.497  19.442  0.00  0.00    +0.000 OA
ATOM     28  H   UNL     1       6.773   4.335  19.815  0.00  0.00    +0.000 HD
ENDBRANCH   9  27
TORSDOF 5
ENDMDL
MODEL 2
REMARK VINA RESULT:      -7.2      1.134      1.684
REMARK  Name = 
REMARK  8 active torsions:
REMARK  status: ('A' for Active; 'I' for Inactive)
REMARK    1  A    between atoms: C_1  and  C_2
REMARK    2  A    between atoms: C_2  and  C_3
REMARK    3  A    between atoms: C_2  and  C_4
REMARK    4  A    between atoms: C_2  and  S_5
REMARK    5  A    between atoms: S_5  and  C_8
REMARK    6  A    between atoms: C_11  and  C_12
REMARK    7  A    between atoms: C_14  and  N_15
REMARK    8  A    between atoms: C_24  and  O_25
REMARK                            x       y       z     vdW  Elec       q    Type
REMARK                         _______ _______ _______ _____ _____    ______ ____
ROOT
ATOM      1  C   UNL     1       5.131   3.856  17.416  0.00  0.00    +0.000 A 
ATOM      2  C   UNL     1       5.138   3.744  16.067  0.00  0.00    +0.000 A 
ATOM      3  N   UNL     1       6.129   4.378  15.311  0.00  0.00    +0.000 N 
ATOM      4  C   UNL     1       6.423   4.336  13.948  0.00  0.00    +0.000 A 
ATOM      5  C   UNL     1       7.482   5.226  13.810  0.00  0.00    +0.000 A 
ATOM      6  N   UNL     1       7.872   5.761  15.003  0.00  0.00    +0.000 NA
ATOM      7  C   UNL     1       7.074   5.223  15.893  0.00  0.00    +0.000 A 
ATOM      8  C   UNL     1       7.057   5.366  17.307  0.00  0.00    +0.000 A 
ATOM      9  C   UNL     1       6.152   4.694  18.043  0.00  0.00    +0.000 A 
ENDROOT
BRANCH   4  10
ATOM     10  C   UNL     1       5.790   3.517  12.902  0.00  0.00    +0.000 A 
ATOM     11  C   UNL     1       4.699   4.026  12.186  0.00  0.00    +0.000 A 
ATOM     12  C   UNL     1       4.141   3.285  11.150  0.00  0.00    +0.000 A 
ATOM     13  N   UNL     1       4.594   2.077  10.797  0.00  0.00    +0.000 NA
ATOM     14  C   UNL     1       5.650   1.605  11.487  0.00  0.00    +0.000 A 
ATOM     15 CL   UNL     1       6.199   0.059  10.982  0.00  0.00    +0.000 Cl
ATOM     16  C   UNL     1       6.288   2.275  12.516  0.00  0.00    +0.000 A 
BRANCH  12  17
ATOM     17  N   UNL     1       3.121   3.822  10.371  0.00  0.00    +0.000 N 
ATOM     18  H   UNL     1       2.381   4.241  10.921  0.00  0.00    +0.000 HD
ATOM     19  H   UNL     1       2.777   3.085   9.759  0.00  0.00    +0.000 HD
ENDBRANCH  12  17
ENDBRANCH   4  10
BRANCH   1  20
ATOM     20  S   UNL     1       3.848   3.031  18.298  0.00  0.00    +0.000 S 
ATOM     21  O   UNL     1       4.400   2.590  19.569  0.00  0.00    +0.000 OA
ATOM     22  O   UNL     1       3.204   2.043  17.450  0.00  0.00    +0.000 OA
BRANCH  20  24
ATOM     23  C   UNL     1       2.571   4.592  20.200  0.00  0.00    +0.000 C 
ATOM     24  C   UNL     1       2.621   4.333  18.686  0.00  0.00    +0.000 C 
ATOM     25  C   UNL     1       1.237   3.828  18.229  0.00  0.00    +0.000 C 
ATOM     26  C   UNL     1       2.920   5.645  17.950  0.00  0.00    +0.000 C 
ENDBRANCH  20  24
ENDBRANCH   1  20
BRANCH   9  27
ATOM     27  O   UNL     1       6.152   4.741  19.414  0.00  0.00    +0.000 OA
ATOM     28  H   UNL     1       6.141   5.669  19.710  0.00  0.00    +0.000 HD
ENDBRANCH   9  27
TORSDOF 5
ENDMDL
MODEL 3
REMARK VINA RESULT:      -6.9      1.277      1.660
REMARK  Name = 
REMARK  8 active torsions:
REMARK  status: ('A' for Active; 'I' for Inactive)
REMARK    1  A    between atoms: C_1  and  C_2
REMARK    2  A    between atoms: C_2  and  C_3
REMARK    3  A    between atoms: C_2  and  C_4
REMARK    4  A    between atoms: C_2  and  S_5
REMARK    5  A    between atoms: S_5  and  C_8
REMARK    6  A    between atoms: C_11  and  C_12
REMARK    7  A    between atoms: C_14  and  N_15
REMARK    8  A    between atoms: C_24  and  O_25
REMARK                            x       y       z     vdW  Elec       q    Type
REMARK                         _______ _______ _______ _____ _____    ______ ____
ROOT
ATOM      1  C   UNL     1       4.267   4.514  17.144  0.00  0.00    +0.000 A 
ATOM      2  C   UNL     1       4.543   4.283  15.839  0.00  0.00    +0.000 A 
ATOM      3  N   UNL     1       5.772   4.673  15.297  0.00  0.00    +0.000 N 
ATOM      4  C   UNL     1       6.339   4.462  14.040  0.00  0.00    +0.000 A 
ATOM      5  C   UNL     1       7.546   5.146  14.102  0.00  0.00    +0.000 A 
ATOM      6  N   UNL     1       7.762   5.712  15.325  0.00  0.00    +0.000 NA
ATOM      7  C   UNL     1       6.708   5.397  16.036  0.00  0.00    +0.000 A 
ATOM      8  C   UNL     1       6.415   5.665  17.401  0.00  0.00    +0.000 A 
ATOM      9  C   UNL     1       5.266   5.222  17.944  0.00  0.00    +0.000 A 
ENDROOT
BRANCH   4  10
ATOM     10  C   UNL     1       5.806   3.670  12.920  0.00  0.00    +0.000 A 
ATOM     11  C   UNL     1       6.401   2.445  12.590  0.00  0.00    +0.000 A 
ATOM     12  C   UNL     1       5.859   1.659  11.579  0.00  0.00    +0.000 A 
ATOM     13  N   UNL     1       4.780   2.023  10.878  0.00  0.00    +0.000 NA
ATOM     14  C   UNL     1       4.213   3.197  11.212  0.00  0.00    +0.000 A 
ATOM     15 CL   UNL     1       2.824   3.607  10.290  0.00  0.00    +0.000 Cl
ATOM     16  C   UNL     1       4.662   4.038  12.216  0.00  0.00    +0.000 A 
BRANCH  12  17
ATOM     17  N   UNL     1       6.384   0.399  11.310  0.00  0.00    +0.000 N 
ATOM     18  H   UNL     1       5.672  -0.292  11.107  0.00  0.00    +0.000 HD
ATOM     19  H   UNL     1       6.968   0.131  12.099  0.00  0.00    +0.000 HD
ENDBRANCH  12  17
ENDBRANCH   4  10
BRANCH   1  20
ATOM     20  S   UNL     1       2.697   3.996  17.752  0.00  0.00    +0.000 S 
ATOM     21  O   UNL     1       1.901   3.569  16.613  0.00  0.00    +0.000 OA
ATOM     22  O   UNL     1       2.140   5.003  18.639  0.00  0.00    +0.000 OA
BRANCH  20  24
ATOM     23  C   UNL     1       3.911   1.512  17.946  0.00  0.00    +0.000 C 
ATOM     24  C   UNL     1       3.039   2.494  18.742  0.00  0.00    +0.000 C 
ATOM     25  C   UNL     1       1.688   1.815  19.050  0.00  0.00    +0.000 C 
ATOM     26  C   UNL     1       3.723   2.826  20.075  0.00  0.00    +0.000 C 
ENDBRANCH  20  24
ENDBRANCH   1  20
BRANCH   9  27
ATOM     27  O   UNL     1       4.980   5.390  19.275  0.00  0.00    +0.000 OA
ATOM     28  H   UNL     1       4.148   5.887  19.372  0.00  0.00    +0.000 HD
ENDBRANCH   9  27
TORSDOF 5
ENDMDL
MODEL 4
REMARK VINA RESULT:      -6.7      1.722      2.371
REMARK  Name = 
REMARK  8 active torsions:
REMARK  status: ('A' for Active; 'I' for Inactive)
REMARK    1  A    between atoms: C_1  and  C_2
REMARK    2  A    between atoms: C_2  and  C_3
REMARK    3  A    between atoms: C_2  and  C_4
REMARK    4  A    between atoms: C_2  and  S_5
REMARK    5  A    between atoms: S_5  and  C_8
REMARK    6  A    between atoms: C_11  and  C_12
REMARK    7  A    between atoms: C_14  and  N_15
REMARK    8  A    between atoms: C_24  and  O_25
REMARK                            x       y       z     vdW  Elec       q    Type
REMARK                         _______ _______ _______ _____ _____    ______ ____
ROOT
ATOM      1  C   UNL     1       4.241   4.541  17.251  0.00  0.00    +0.000 A 
ATOM      2  C   UNL     1       4.488   4.280  15.946  0.00  0.00    +0.000 A 
ATOM      3  N   UNL     1       5.697   4.675  15.364  0.00  0.00    +0.000 N 
ATOM      4  C   UNL     1       6.235   4.439  14.099  0.00  0.00    +0.000 A 
ATOM      5  C   UNL     1       7.433   5.143  14.112  0.00  0.00    +0.000 A 
ATOM      6  N   UNL     1       7.669   5.745  15.314  0.00  0.00    +0.000 NA
ATOM      7  C   UNL     1       6.638   5.432  16.059  0.00  0.00    +0.000 A 
ATOM      8  C   UNL     1       6.375   5.733  17.423  0.00  0.00    +0.000 A 
ATOM      9  C   UNL     1       5.247   5.286  18.007  0.00  0.00    +0.000 A 
ENDROOT
BRANCH   4  10
ATOM     10  C   UNL     1       5.688   3.609  13.013  0.00  0.00    +0.000 A 
ATOM     11  C   UNL     1       4.614   4.084  12.249  0.00  0.00    +0.000 A 
ATOM     12  C   UNL     1       4.139   3.336  11.178  0.00  0.00    +0.000 A 
ATOM     13  N   UNL     1       4.656   2.152  10.835  0.00  0.00    +0.000 NA
ATOM     14  C   UNL     1       5.694   1.712  11.571  0.00  0.00    +0.000 A 
ATOM     15 CL   UNL     1       6.328   0.196  11.077  0.00  0.00    +0.000 Cl
ATOM     16  C   UNL     1       6.254   2.393  12.639  0.00  0.00    +0.000 A 
BRANCH  12  17
ATOM     17  N   UNL     1       3.138   3.843  10.356  0.00  0.00    +0.000 N 
ATOM     18  H   UNL     1       2.289   3.291  10.378  0.00  0.00    +0.000 HD
ATOM     19  H   UNL     1       3.520   3.924   9.415  0.00  0.00    +0.000 HD
ENDBRANCH  12  17
ENDBRANCH   4  10
BRANCH   1  20
ATOM     20  S   UNL     1       2.695   4.015  17.912  0.00  0.00    +0.000 S 
ATOM     21  O   UNL     1       1.847   3.625  16.797  0.00  0.00    +0.000 OA
ATOM     22  O   UNL     1       2.184   4.999  18.851  0.00  0.00    +0.000 OA
BRANCH  20  24
ATOM     23  C   UNL     1       3.780   1.464  17.940  0.00  0.00    +0.000 C 
ATOM     24  C   UNL     1       3.068   2.484  18.843  0.00  0.00    +0.000 C 
ATOM     25  C   UNL     1       1.729   1.876  19.309  0.00  0.00    +0.000 C 
ATOM     26  C   UNL     1       3.928   2.759  20.084  0.00  0.00    +0.000 C 
ENDBRANCH  20  24
ENDBRANCH   1  20
BRANCH   9  27
ATOM     27  O   UNL     1       4.992   5.485  19.340  0.00  0.00    +0.000 OA
ATOM     28  H   UNL     1       5.313   4.722  19.853  0.00  0.00    +0.000 HD
ENDBRANCH   9  27
TORSDOF 5
ENDMDL
MODEL 5
REMARK VINA RESULT:      -6.6      5.043      8.126
REMARK  Name = 
REMARK  8 active torsions:
REMARK  status: ('A' for Active; 'I' for Inactive)
REMARK    1  A    between atoms: C_1  and  C_2
REMARK    2  A    between atoms: C_2  and  C_3
REMARK    3  A    between atoms: C_2  and  C_4
REMARK    4  A    between atoms: C_2  and  S_5
REMARK    5  A    between atoms: S_5  and  C_8
REMARK    6  A    between atoms: C_11  and  C_12
REMARK    7  A    between atoms: C_14  and  N_15
REMARK    8  A    between atoms: C_24  and  O_25
REMARK                            x       y       z     vdW  Elec       q    Type
REMARK                         _______ _______ _______ _____ _____    ______ ____
ROOT
ATOM      1  C   UNL     1       4.832   4.888  18.892  0.00  0.00    +0.000 A 
ATOM      2  C   UNL     1       3.879   5.827  19.097  0.00  0.00    +0.000 A 
ATOM      3  N   UNL     1       2.713   5.508  19.799  0.00  0.00    +0.000 N 
ATOM      4  C   UNL     1       1.647   6.298  20.233  0.00  0.00    +0.000 A 
ATOM      5  C   UNL     1       0.776   5.386  20.817  0.00  0.00    +0.000 A 
ATOM      6  N   UNL     1       1.268   4.113  20.805  0.00  0.00    +0.000 NA
ATOM      7  C   UNL     1       2.437   4.207  20.220  0.00  0.00    +0.000 A 
ATOM      8  C   UNL     1       3.422   3.209  19.985  0.00  0.00    +0.000 A 
ATOM      9  C   UNL     1       4.580   3.532  19.379  0.00  0.00    +0.000 A 
ENDROOT
BRANCH   4  10
ATOM     10  C   UNL     1       1.493   7.758  20.133  0.00  0.00    +0.000 A 
ATOM     11  C   UNL     1       1.846   8.414  18.946  0.00  0.00    +0.000 A 
ATOM     12  C   UNL     1       1.636   9.783  18.820  0.00  0.00    +0.000 A 
ATOM     13  N   UNL     1       1.114  10.529  19.800  0.00  0.00    +0.000 NA
ATOM     14  C   UNL     1       0.771   9.884  20.930  0.00  0.00    +0.000 A 
ATOM     15 CL   UNL     1       0.091  10.886  22.146  0.00  0.00    +0.000 Cl
ATOM     16  C   UNL     1       0.916   8.523  21.143  0.00  0.00    +0.000 A 
BRANCH  12  17
ATOM     17  N   UNL     1       1.893  10.426  17.614  0.00  0.00    +0.000 N 
ATOM     18  H   UNL     1       1.887   9.797  16.820  0.00  0.00    +0.000 HD
ATOM     19  H   UNL     1       2.778  10.921  17.708  0.00  0.00    +0.000 HD
ENDBRANCH  12  17
ENDBRANCH   4  10
BRANCH   1  20
ATOM     20  S   UNL     1       6.272   5.366  17.996  0.00  0.00    +0.000 S 
ATOM     21  O   UNL     1       7.326   4.417  18.315  0.00  0.00    +0.000 OA
ATOM     22  O   UNL     1       6.542   6.781  18.186  0.00  0.00    +0.000 OA
BRANCH  20  24
ATOM     23  C   UNL     1       7.114   4.797  15.417  0.00  0.00    +0.000 C 
ATOM     24  C   UNL     1       5.849   5.102  16.234  0.00  0.00    +0.000 C 
ATOM     25  C   UNL     1       5.221   6.405  15.699  0.00  0.00    +0.000 C 
ATOM     26  C   UNL     1       4.832   3.968  16.050  0.00  0.00    +0.000 C 
ENDBRANCH  20  24
ENDBRANCH   1  20
BRANCH   9  27
ATOM     27  O   UNL     1       5.588   2.619  19.206  0.00  0.00    +0.000 OA
ATOM     28  H   UNL     1       6.405   2.949  19.621  0.00  0.00    +0.000 HD
ENDBRANCH   9  27
TORSDOF 5
ENDMDL
MODEL 6
REMARK VINA RESULT:      -6.4      5.317      8.324
REMARK  Name = 
REMARK  8 active torsions:
REMARK  status: ('A' for Active; 'I' for Inactive)
REMARK    1  A    between atoms: C_1  and  C_2
REMARK    2  A    between atoms: C_2  and  C_3
REMARK    3  A    between atoms: C_2  and  C_4
REMARK    4  A    between atoms: C_2  and  S_5
REMARK    5  A    between atoms: S_5  and  C_8
REMARK    6  A    between atoms: C_11  and  C_12
REMARK    7  A    between atoms: C_14  and  N_15
REMARK    8  A    between atoms: C_24  and  O_25
REMARK                            x       y       z     vdW  Elec       q    Type
REMARK                         _______ _______ _______ _____ _____    ______ ____
ROOT
ATOM      1  C   UNL     1       4.098   4.899  17.582  0.00  0.00    +0.000 A 
ATOM      2  C   UNL     1       3.262   5.704  18.279  0.00  0.00    +0.000 A 
ATOM      3  N   UNL     1       2.322   5.156  19.156  0.00  0.00    +0.000 N 
ATOM      4  C   UNL     1       1.436   5.751  20.055  0.00  0.00    +0.000 A 
ATOM      5  C   UNL     1       0.731   4.678  20.586  0.00  0.00    +0.000 A 
ATOM      6  N   UNL     1       1.167   3.478  20.103  0.00  0.00    +0.000 NA
ATOM      7  C   UNL     1       2.135   3.778  19.272  0.00  0.00    +0.000 A 
ATOM      8  C   UNL     1       2.992   2.926  18.525  0.00  0.00    +0.000 A 
ATOM      9  C   UNL     1       3.950   3.452  17.739  0.00  0.00    +0.000 A 
ENDROOT
BRANCH   4  10
ATOM     10  C   UNL     1       1.300   7.177  20.393  0.00  0.00    +0.000 A 
ATOM     11  C   UNL     1       1.545   8.150  19.415  0.00  0.00    +0.000 A 
ATOM     12  C   UNL     1       1.350   9.495  19.709  0.00  0.00    +0.000 A 
ATOM     13  N   UNL     1       0.942   9.923  20.908  0.00  0.00    +0.000 NA
ATOM     14  C   UNL     1       0.700   8.977  21.834  0.00  0.00    +0.000 A 
ATOM     15 CL   UNL     1       0.163   9.582  23.349  0.00  0.00    +0.000 Cl
ATOM     16  C   UNL     1       0.841   7.615  21.633  0.00  0.00    +0.000 A 
BRANCH  12  17
ATOM     17  N   UNL     1       1.498  10.460  18.718  0.00  0.00    +0.000 N 
ATOM     18  H   UNL     1       2.144  10.184  17.988  0.00  0.00    +0.000 HD
ATOM     19  H   UNL     1       1.775  11.329  19.169  0.00  0.00    +0.000 HD
ENDBRANCH  12  17
ENDBRANCH   4  10
BRANCH   1  20
ATOM     20  S   UNL     1       5.253   5.664  16.494  0.00  0.00    +0.000 S 
ATOM     21  O   UNL     1       4.823   7.037  16.288  0.00  0.00    +0.000 OA
ATOM     22  O   UNL     1       5.475   4.832  15.324  0.00  0.00    +0.000 OA
BRANCH  20  24
ATOM     23  C   UNL     1       7.534   7.080  17.184  0.00  0.00    +0.000 C 
ATOM     24  C   UNL     1       6.820   5.743  17.438  0.00  0.00    +0.000 C 
ATOM     25  C   UNL     1       7.728   4.600  16.943  0.00  0.00    +0.000 C 
ATOM     26  C   UNL     1       6.595   5.559  18.944  0.00  0.00    +0.000 C 
ENDBRANCH  20  24
ENDBRANCH   1  20
BRANCH   9  27
ATOM     27  O   UNL     1       4.849   2.665  17.064  0.00  0.00    +0.000 OA
ATOM     28  H   UNL     1       5.703   3.127  16.997  0.00  0.00    +0.000 HD
ENDBRANCH   9  27
TORSDOF 5
ENDMDL
MODEL 7
REMARK VINA RESULT:      -6.2      4.692      7.227
REMARK  Name = 
REMARK  8 active torsions:
REMARK  status: ('A' for Active; 'I' for Inactive)
REMARK    1  A    between atoms: C_1  and  C_2
REMARK    2  A    between atoms: C_2  and  C_3
REMARK    3  A    between atoms: C_2  and  C_4
REMARK    4  A    between atoms: C_2  and  S_5
REMARK    5  A    between atoms: S_5  and  C_8
REMARK    6  A    between atoms: C_11  and  C_12
REMARK    7  A    between atoms: C_14  and  N_15
REMARK    8  A    between atoms: C_24  and  O_25
REMARK                            x       y       z     vdW  Elec       q    Type
REMARK                         _______ _______ _______ _____ _____    ______ ____
ROOT
ATOM      1  C   UNL     1       2.726   3.830  18.433  0.00  0.00    +0.000 A 
ATOM      2  C   UNL     1       2.485   5.142  18.659  0.00  0.00    +0.000 A 
ATOM      3  N   UNL     1       3.214   6.122  17.979  0.00  0.00    +0.000 N 
ATOM      4  C   UNL     1       3.093   7.511  17.947  0.00  0.00    +0.000 A 
ATOM      5  C   UNL     1       4.147   7.917  17.137  0.00  0.00    +0.000 A 
ATOM      6  N   UNL     1       4.861   6.863  16.645  0.00  0.00    +0.000 NA
ATOM      7  C   UNL     1       4.275   5.798  17.133  0.00  0.00    +0.000 A 
ATOM      8  C   UNL     1       4.552   4.422  16.910  0.00  0.00    +0.000 A 
ATOM      9  C   UNL     1       3.799   3.476  17.503  0.00  0.00    +0.000 A 
ENDROOT
BRANCH   4  10
ATOM     10  C   UNL     1       2.070   8.354  18.587  0.00  0.00    +0.000 A 
ATOM     11  C   UNL     1       1.269   9.193  17.800  0.00  0.00    +0.000 A 
ATOM     12  C   UNL     1       0.255   9.938  18.390  0.00  0.00    +0.000 A 
ATOM     13  N   UNL     1       0.002   9.906  19.703  0.00  0.00    +0.000 NA
ATOM     14  C   UNL     1       0.772   9.088  20.445  0.00  0.00    +0.000 A 
ATOM     15 CL   UNL     1       0.393   9.075  22.119  0.00  0.00    +0.000 Cl
ATOM     16  C   UNL     1       1.789   8.290  19.949  0.00  0.00    +0.000 A 
BRANCH  12  17
ATOM     17  N   UNL     1      -0.606  10.699  17.606  0.00  0.00    +0.000 N 
ATOM     18  H   UNL     1      -1.518  10.274  17.492  0.00  0.00    +0.000 HD
ATOM     19  H   UNL     1      -0.146  10.869  16.714  0.00  0.00    +0.000 HD
ENDBRANCH  12  17
ENDBRANCH   4  10
BRANCH   1  20
ATOM     20  S   UNL     1       1.768   2.655  19.331  0.00  0.00    +0.000 S 
ATOM     21  O   UNL     1       2.217   1.328  18.941  0.00  0.00    +0.000 OA
ATOM     22  O   UNL     1       0.352   2.961  19.215  0.00  0.00    +0.000 OA
BRANCH  20  24
ATOM     23  C   UNL     1       2.359   4.371  21.426  0.00  0.00    +0.000 C 
ATOM     24  C   UNL     1       2.255   2.877  21.082  0.00  0.00    +0.000 C 
ATOM     25  C   UNL     1       3.643   2.232  21.270  0.00  0.00    +0.000 C 
ATOM     26  C   UNL     1       1.274   2.195  22.044  0.00  0.00    +0.000 C 
ENDBRANCH  20  24
ENDBRANCH   1  20
BRANCH   9  27
ATOM     27  O   UNL     1       3.980   2.140  17.253  0.00  0.00    +0.000 OA
ATOM     28  H   UNL     1       4.255   1.688  18.071  0.00  0.00    +0.000 HD
ENDBRANCH   9  27
TORSDOF 5
ENDMDL
MODEL 8
REMARK VINA RESULT:      -6.2     10.680     13.051
REMARK  Name = 
REMARK  8 active torsions:
REMARK  status: ('A' for Active; 'I' for Inactive)
REMARK    1  A    between atoms: C_1  and  C_2
REMARK    2  A    between atoms: C_2  and  C_3
REMARK    3  A    between atoms: C_2  and  C_4
REMARK    4  A    between atoms: C_2  and  S_5
REMARK    5  A    between atoms: S_5  and  C_8
REMARK    6  A    between atoms: C_11  and  C_12
REMARK    7  A    between atoms: C_14  and  N_15
REMARK    8  A    between atoms: C_24  and  O_25
REMARK                            x       y       z     vdW  Elec       q    Type
REMARK                         _______ _______ _______ _____ _____    ______ ____
ROOT
ATOM      1  C   UNL     1      -1.049  12.307  19.930  0.00  0.00    +0.000 A 
ATOM      2  C   UNL     1      -2.245  12.219  19.301  0.00  0.00    +0.000 A 
ATOM      3  N   UNL     1      -2.457  11.244  18.321  0.00  0.00    +0.000 N 
ATOM      4  C   UNL     1      -3.602  10.876  17.614  0.00  0.00    +0.000 A 
ATOM      5  C   UNL     1      -3.152   9.888  16.747  0.00  0.00    +0.000 A 
ATOM      6  N   UNL     1      -1.827   9.607  16.919  0.00  0.00    +0.000 NA
ATOM      7  C   UNL     1      -1.433  10.405  17.882  0.00  0.00    +0.000 A 
ATOM      8  C   UNL     1      -0.167  10.509  18.520  0.00  0.00    +0.000 A 
ATOM      9  C   UNL     1       0.016  11.393  19.518  0.00  0.00    +0.000 A 
ENDROOT
BRANCH   4  10
ATOM     10  C   UNL     1      -4.974  11.382  17.771  0.00  0.00    +0.000 A 
ATOM     11  C   UNL     1      -5.799  10.856  18.774  0.00  0.00    +0.000 A 
ATOM     12  C   UNL     1      -7.072  11.380  18.973  0.00  0.00    +0.000 A 
ATOM     13  N   UNL     1      -7.569  12.375  18.232  0.00  0.00    +0.000 NA
ATOM     14  C   UNL     1      -6.763  12.878  17.279  0.00  0.00    +0.000 A 
ATOM     15 CL   UNL     1      -7.447  14.163  16.370  0.00  0.00    +0.000 Cl
ATOM     16  C   UNL     1      -5.474  12.443  17.019  0.00  0.00    +0.000 A 
BRANCH  12  17
ATOM     17  N   UNL     1      -7.860  10.930  20.027  0.00  0.00    +0.000 N 
ATOM     18  H   UNL     1      -8.844  10.878  19.793  0.00  0.00    +0.000 HD
ATOM     19  H   UNL     1      -7.685  11.537  20.826  0.00  0.00    +0.000 HD
ENDBRANCH  12  17
ENDBRANCH   4  10
BRANCH   1  20
ATOM     20  S   UNL     1      -0.858  13.563  21.151  0.00  0.00    +0.000 S 
ATOM     21  O   UNL     1      -1.625  14.720  20.719  0.00  0.00    +0.000 OA
ATOM     22  O   UNL     1       0.547  13.752  21.469  0.00  0.00    +0.000 OA
BRANCH  20  24
ATOM     23  C   UNL     1      -3.216  12.877  22.436  0.00  0.00    +0.000 C 
ATOM     24  C   UNL     1      -1.694  12.911  22.643  0.00  0.00    +0.000 C 
ATOM     25  C   UNL     1      -1.379  13.864  23.815  0.00  0.00    +0.000 C 
ATOM     26  C   UNL     1      -1.195  11.509  23.017  0.00  0.00    +0.000 C 
ENDBRANCH  20  24
ENDBRANCH   1  20
BRANCH   9  27
ATOM     27  O   UNL     1       1.196  11.470  20.212  0.00  0.00    +0.000 OA
ATOM     28  H   UNL     1       1.616  10.593  20.242  0.00  0.00    +0.000 HD
ENDBRANCH   9  27
TORSDOF 5
ENDMDL
MODEL 9
REMARK VINA RESULT:      -6.1     10.572     12.608
REMARK  Name = 
REMARK  8 active torsions:
REMARK  status: ('A' for Active; 'I' for Inactive)
REMARK    1  A    between atoms: C_1  and  C_2
REMARK    2  A    between atoms: C_2  and  C_3
REMARK    3  A    between atoms: C_2  and  C_4
REMARK    4  A    between atoms: C_2  and  S_5
REMARK    5  A    between atoms: S_5  and  C_8
REMARK    6  A    between atoms: C_11  and  C_12
REMARK    7  A    between atoms: C_14  and  N_15
REMARK    8  A    between atoms: C_24  and  O_25
REMARK                            x       y       z     vdW  Elec       q    Type
REMARK                         _______ _______ _______ _____ _____    ______ ____
ROOT
ATOM      1  C   UNL     1       9.091  14.003  18.190  0.00  0.00    +0.000 A 
ATOM      2  C   UNL     1       7.818  14.227  18.589  0.00  0.00    +0.000 A 
ATOM      3  N   UNL     1       7.315  15.530  18.646  0.00  0.00    +0.000 N 
ATOM      4  C   UNL     1       6.035  16.018  18.912  0.00  0.00    +0.000 A 
ATOM      5  C   UNL     1       6.193  17.398  18.878  0.00  0.00    +0.000 A 
ATOM      6  N   UNL     1       7.468  17.769  18.563  0.00  0.00    +0.000 NA
ATOM      7  C   UNL     1       8.118  16.643  18.399  0.00  0.00    +0.000 A 
ATOM      8  C   UNL     1       9.465  16.417  18.004  0.00  0.00    +0.000 A 
ATOM      9  C   UNL     1       9.928  15.160  17.873  0.00  0.00    +0.000 A 
ENDROOT
BRANCH   4  10
ATOM     10  C   UNL     1       4.796  15.257  19.139  0.00  0.00    +0.000 A 
ATOM     11  C   UNL     1       4.349  14.351  18.168  0.00  0.00    +0.000 A 
ATOM     12  C   UNL     1       3.219  13.578  18.407  0.00  0.00    +0.000 A 
ATOM     13  N   UNL     1       2.510  13.661  19.538  0.00  0.00    +0.000 NA
ATOM     14  C   UNL     1       2.957  14.527  20.466  0.00  0.00    +0.000 A 
ATOM     15 CL   UNL     1       2.018  14.581  21.902  0.00  0.00    +0.000 Cl
ATOM     16  C   UNL     1       4.082  15.323  20.333  0.00  0.00    +0.000 A 
BRANCH  12  17
ATOM     17  N   UNL     1       2.823  12.609  17.491  0.00  0.00    +0.000 N 
ATOM     18  H   UNL     1       2.767  11.682  17.894  0.00  0.00    +0.000 HD
ATOM     19  H   UNL     1       3.465  12.647  16.701  0.00  0.00    +0.000 HD
ENDBRANCH  12  17
ENDBRANCH   4  10
BRANCH   1  20
ATOM     20  S   UNL     1       9.654  12.333  18.148  0.00  0.00    +0.000 S 
ATOM     21  O   UNL     1      10.745  12.259  17.190  0.00  0.00    +0.000 OA
ATOM     22  O   UNL     1       8.533  11.424  17.984  0.00  0.00    +0.000 OA
BRANCH  20  24
ATOM     23  C   UNL     1      11.869  11.645  19.666  0.00  0.00    +0.000 C 
ATOM     24  C   UNL     1      10.389  12.035  19.798  0.00  0.00    +0.000 C 
ATOM     25  C   UNL     1       9.628  10.860  20.448  0.00  0.00    +0.000 C 
ATOM     26  C   UNL     1      10.259  13.257  20.717  0.00  0.00    +0.000 C 
ENDBRANCH  20  24
ENDBRANCH   1  20
BRANCH   9  27
ATOM     27  O   UNL     1      11.195  14.896  17.417  0.00  0.00    +0.000 OA
ATOM     28  H   UNL     1      11.622  15.726  17.139  0.00  0.00    +0.000 HD
ENDBRANCH   9  27
TORSDOF 5
ENDMDL
