MODEL 1
REMARK VINA RESULT:      -8.4      0.000      0.000
REMARK  Name = 
REMARK  11 active torsions:
REMARK  status: ('A' for Active; 'I' for Inactive)
REMARK    1  A    between atoms: C_1  and  O_2
REMARK    2  A    between atoms: O_2  and  C_3
REMARK    3  A    between atoms: C_8  and  O_9
REMARK    4  A    between atoms: O_9  and  C_10
REMARK    5  A    between atoms: C_13  and  N_14
REMARK    6  A    between atoms: N_14  and  C_15
REMARK    7  A    between atoms: C_15  and  C_16
REMARK    8  A    between atoms: C_16  and  C_17
REMARK    9  A    between atoms: C_17  and  C_18
REMARK   10  A    between atoms: C_18  and  C_19
REMARK   11  A    between atoms: N_21  and  C_22
REMARK                            x       y       z     vdW  Elec       q    Type
REMARK                         _______ _______ _______ _____ _____    ______ ____
ROOT
ATOM      1  C   UNL     1       1.564   8.264  21.587  0.00  0.00    +0.000 C 
ENDROOT
BRANCH   1   2
ATOM      2  C   UNL     1       0.324   8.955  22.171  0.00  0.00    +0.000 C 
BRANCH   2   3
ATOM      3  C   UNL     1       0.342  10.486  22.091  0.00  0.00    +0.000 C 
BRANCH   3   4
ATOM      4  N   UNL     1      -0.948  11.026  21.668  0.00  0.00    +0.000 NA
ATOM      5  H   UNL     1      -1.597  10.271  21.457  0.00  0.00    +0.000 HD
BRANCH   4  14
ATOM      6  C   UNL     1      -2.735  10.237  17.053  0.00  0.00    +0.000 A 
ATOM      7  C   UNL     1      -1.401   9.885  17.312  0.00  0.00    +0.000 A 
ATOM      8  C   UNL     1      -0.729  10.419  18.404  0.00  0.00    +0.000 A 
ATOM      9  C   UNL     1      -1.403  11.296  19.240  0.00  0.00    +0.000 A 
ATOM     10  C   UNL     1      -2.736  11.687  18.984  0.00  0.00    +0.000 A 
ATOM     11  C   UNL     1      -3.424  11.153  17.892  0.00  0.00    +0.000 A 
ATOM     12  C   UNL     1      -3.175  12.619  20.078  0.00  0.00    +0.000 C 
ATOM     13  C   UNL     1      -1.834  13.086  20.659  0.00  0.00    +0.000 C 
ATOM     14  C   UNL     1      -0.855  11.911  20.505  0.00  0.00    +0.000 C 
BRANCH   6  16
ATOM     15  C   UNL     1      -3.042  10.286  14.689  0.00  0.00    +0.000 C 
ATOM     16  O   UNL     1      -3.429   9.771  15.957  0.00  0.00    +0.000 OA
ENDBRANCH   6  16
BRANCH  11  17
ATOM     17  O   UNL     1      -4.726  11.368  17.532  0.00  0.00    +0.000 OA
ATOM     18  C   UNL     1      -5.784  10.845  18.306  0.00  0.00    +0.000 C 
ENDBRANCH  11  17
ENDBRANCH   4  14
ENDBRANCH   3   4
ENDBRANCH   2   3
ENDBRANCH   1   2
BRANCH   1  19
ATOM     19  C   UNL     1       1.456   8.005  20.082  0.00  0.00    +0.000 C 
BRANCH  19  20
ATOM     20  C   UNL     1       2.320   6.876  19.635  0.00  0.00    +0.000 A 
ATOM     21  C   UNL     1       3.411   6.965  18.801  0.00  0.00    +0.000 A 
ATOM     22  N   UNL     1       3.898   5.704  18.535  0.00  0.00    +0.000 N 
ATOM     23  C   UNL     1       3.174   4.782  19.291  0.00  0.00    +0.000 A 
ATOM     24  C   UNL     1       3.324   3.393  19.483  0.00  0.00    +0.000 A 
ATOM     25  C   UNL     1       2.437   2.726  20.325  0.00  0.00    +0.000 A 
ATOM     26  C   UNL     1       1.434   3.419  20.983  0.00  0.00    +0.000 A 
ATOM     27  C   UNL     1       1.296   4.799  20.816  0.00  0.00    +0.000 A 
ATOM     28  C   UNL     1       2.181   5.496  19.975  0.00  0.00    +0.000 A 
BRANCH  22  29
ATOM     29  C   UNL     1       4.950   5.444  17.614  0.00  0.00    +0.000 A 
ATOM     30  C   UNL     1       4.736   5.661  16.244  0.00  0.00    +0.000 A 
ATOM     31  C   UNL     1       5.746   5.377  15.327  0.00  0.00    +0.000 A 
ATOM     32  C   UNL     1       6.957   4.867  15.778  0.00  0.00    +0.000 A 
ATOM     33  F   UNL     1       7.921   4.580  14.892  0.00  0.00    +0.000 F 
ATOM     34  C   UNL     1       7.179   4.636  17.129  0.00  0.00    +0.000 A 
ATOM     35  C   UNL     1       6.174   4.923  18.053  0.00  0.00    +0.000 A 
ENDBRANCH  22  29
ENDBRANCH  19  20
ENDBRANCH   1  19
TORSDOF 9
ENDMDL
MODEL 2
REMARK VINA RESULT:      -8.3      7.380      9.983
REMARK  Name = 
REMARK  11 active torsions:
REMARK  status: ('A' for Active; 'I' for Inactive)
REMARK    1  A    between atoms: C_1  and  O_2
REMARK    2  A    between atoms: O_2  and  C_3
REMARK    3  A    between atoms: C_8  and  O_9
REMARK    4  A    between atoms: O_9  and  C_10
REMARK    5  A    between atoms: C_13  and  N_14
REMARK    6  A    between atoms: N_14  and  C_15
REMARK    7  A    between atoms: C_15  and  C_16
REMARK    8  A    between atoms: C_16  and  C_17
REMARK    9  A    between atoms: C_17  and  C_18
REMARK   10  A    between atoms: C_18  and  C_19
REMARK   11  A    between atoms: N_21  and  C_22
REMARK                            x       y       z     vdW  Elec       q    Type
REMARK                         _______ _______ _______ _____ _____    ______ ____
ROOT
ATOM      1  C   UNL     1       8.070   8.068  17.475  0.00  0.00    +0.000 C 
ENDROOT
BRANCH   1   2
ATOM      2  C   UNL     1       8.000   9.433  18.174  0.00  0.00    +0.000 C 
BRANCH   2   3
ATOM      3  C   UNL     1       9.275   9.839  18.924  0.00  0.00    +0.000 C 
BRANCH   3   4
ATOM      4  N   UNL     1      10.064  10.812  18.172  0.00  0.00    +0.000 NA
ATOM      5  H   UNL     1      10.726  10.338  17.562  0.00  0.00    +0.000 HD
BRANCH   4  14
ATOM      6  C   UNL     1      10.702  15.733  17.474  0.00  0.00    +0.000 A 
ATOM      7  C   UNL     1      11.702  14.866  17.004  0.00  0.00    +0.000 A 
ATOM      8  C   UNL     1      11.798  13.569  17.492  0.00  0.00    +0.000 A 
ATOM      9  C   UNL     1      10.882  13.143  18.442  0.00  0.00    +0.000 A 
ATOM     10  C   UNL     1       9.885  14.006  18.949  0.00  0.00    +0.000 A 
ATOM     11  C   UNL     1       9.776  15.310  18.463  0.00  0.00    +0.000 A 
ATOM     12  C   UNL     1       9.052  13.238  19.936  0.00  0.00    +0.000 C 
ATOM     13  C   UNL     1       9.972  12.062  20.287  0.00  0.00    +0.000 C 
ATOM     14  C   UNL     1      10.793  11.753  19.025  0.00  0.00    +0.000 C 
BRANCH   6  16
ATOM     15  C   UNL     1      11.644  17.923  17.437  0.00  0.00    +0.000 C 
ATOM     16  O   UNL     1      10.596  17.042  17.054  0.00  0.00    +0.000 OA
ENDBRANCH   6  16
BRANCH  11  17
ATOM     17  O   UNL     1       8.842  16.254  18.791  0.00  0.00    +0.000 OA
ATOM     18  C   UNL     1       7.510  16.138  18.339  0.00  0.00    +0.000 C 
ENDBRANCH  11  17
ENDBRANCH   4  14
ENDBRANCH   3   4
ENDBRANCH   2   3
ENDBRANCH   1   2
BRANCH   1  19
ATOM     19  C   UNL     1       8.044   6.890  18.453  0.00  0.00    +0.000 C 
BRANCH  19  20
ATOM     20  C   UNL     1       6.845   6.024  18.269  0.00  0.00    +0.000 A 
ATOM     21  C   UNL     1       5.857   5.791  19.198  0.00  0.00    +0.000 A 
ATOM     22  N   UNL     1       4.965   4.863  18.708  0.00  0.00    +0.000 N 
ATOM     23  C   UNL     1       5.321   4.560  17.392  0.00  0.00    +0.000 A 
ATOM     24  C   UNL     1       4.698   3.771  16.404  0.00  0.00    +0.000 A 
ATOM     25  C   UNL     1       5.296   3.662  15.150  0.00  0.00    +0.000 A 
ATOM     26  C   UNL     1       6.473   4.336  14.869  0.00  0.00    +0.000 A 
ATOM     27  C   UNL     1       7.081   5.139  15.836  0.00  0.00    +0.000 A 
ATOM     28  C   UNL     1       6.496   5.269  17.108  0.00  0.00    +0.000 A 
BRANCH  22  29
ATOM     29  C   UNL     1       3.893   4.321  19.468  0.00  0.00    +0.000 A 
ATOM     30  C   UNL     1       4.038   3.055  20.059  0.00  0.00    +0.000 A 
ATOM     31  C   UNL     1       2.984   2.497  20.777  0.00  0.00    +0.000 A 
ATOM     32  C   UNL     1       1.788   3.194  20.893  0.00  0.00    +0.000 A 
ATOM     33  F   UNL     1       0.769   2.647  21.572  0.00  0.00    +0.000 F 
ATOM     34  C   UNL     1       1.625   4.441  20.305  0.00  0.00    +0.000 A 
ATOM     35  C   UNL     1       2.679   5.009  19.588  0.00  0.00    +0.000 A 
ENDBRANCH  22  29
ENDBRANCH  19  20
ENDBRANCH   1  19
TORSDOF 9
ENDMDL
MODEL 3
REMARK VINA RESULT:      -8.3      7.612     10.319
REMARK  Name = 
REMARK  11 active torsions:
REMARK  status: ('A' for Active; 'I' for Inactive)
REMARK    1  A    between atoms: C_1  and  O_2
REMARK    2  A    between atoms: O_2  and  C_3
REMARK    3  A    between atoms: C_8  and  O_9
REMARK    4  A    between atoms: O_9  and  C_10
REMARK    5  A    between atoms: C_13  and  N_14
REMARK    6  A    between atoms: N_14  and  C_15
REMARK    7  A    between atoms: C_15  and  C_16
REMARK    8  A    between atoms: C_16  and  C_17
REMARK    9  A    between atoms: C_17  and  C_18
REMARK   10  A    between atoms: C_18  and  C_19
REMARK   11  A    between atoms: N_21  and  C_22
REMARK                            x       y       z     vdW  Elec       q    Type
REMARK                         _______ _______ _______ _____ _____    ______ ____
ROOT
ATOM      1  C   UNL     1       8.131   7.928  17.378  0.00  0.00    +0.000 C 
ENDROOT
BRANCH   1   2
ATOM      2  C   UNL     1       7.835   9.259  18.083  0.00  0.00    +0.000 C 
BRANCH   2   3
ATOM      3  C   UNL     1       9.043   9.905  18.773  0.00  0.00    +0.000 C 
BRANCH   3   4
ATOM      4  N   UNL     1       9.495  11.104  18.070  0.00  0.00    +0.000 NA
ATOM      5  H   UNL     1       9.543  10.933  17.068  0.00  0.00    +0.000 HD
BRANCH   4  14
ATOM      6  C   UNL     1      11.047  15.856  18.427  0.00  0.00    +0.000 A 
ATOM      7  C   UNL     1      11.353  15.149  17.252  0.00  0.00    +0.000 A 
ATOM      8  C   UNL     1      11.315  13.760  17.234  0.00  0.00    +0.000 A 
ATOM      9  C   UNL     1      10.959  13.087  18.392  0.00  0.00    +0.000 A 
ATOM     10  C   UNL     1      10.674  13.774  19.592  0.00  0.00    +0.000 A 
ATOM     11  C   UNL     1      10.705  15.170  19.622  0.00  0.00    +0.000 A 
ATOM     12  C   UNL     1      10.306  12.763  20.641  0.00  0.00    +0.000 C 
ATOM     13  C   UNL     1      10.892  11.470  20.060  0.00  0.00    +0.000 C 
ATOM     14  C   UNL     1      10.797  11.592  18.531  0.00  0.00    +0.000 C 
BRANCH   6  16
ATOM     15  C   UNL     1      11.564  17.916  17.345  0.00  0.00    +0.000 C 
ATOM     16  O   UNL     1      11.116  17.230  18.507  0.00  0.00    +0.000 OA
ENDBRANCH   6  16
BRANCH  11  17
ATOM     17  O   UNL     1      10.399  15.995  20.669  0.00  0.00    +0.000 OA
ATOM     18  C   UNL     1       9.059  16.183  21.073  0.00  0.00    +0.000 C 
ENDBRANCH  11  17
ENDBRANCH   4  14
ENDBRANCH   3   4
ENDBRANCH   2   3
ENDBRANCH   1   2
BRANCH   1  19
ATOM     19  C   UNL     1       7.793   6.706  18.235  0.00  0.00    +0.000 C 
BRANCH  19  20
ATOM     20  C   UNL     1       6.704   5.878  17.643  0.00  0.00    +0.000 A 
ATOM     21  C   UNL     1       5.534   5.505  18.263  0.00  0.00    +0.000 A 
ATOM     22  N   UNL     1       4.818   4.664  17.441  0.00  0.00    +0.000 N 
ATOM     23  C   UNL     1       5.485   4.567  16.218  0.00  0.00    +0.000 A 
ATOM     24  C   UNL     1       5.142   3.939  15.003  0.00  0.00    +0.000 A 
ATOM     25  C   UNL     1       6.022   4.024  13.926  0.00  0.00    +0.000 A 
ATOM     26  C   UNL     1       7.207   4.733  14.039  0.00  0.00    +0.000 A 
ATOM     27  C   UNL     1       7.540   5.378  15.231  0.00  0.00    +0.000 A 
ATOM     28  C   UNL     1       6.667   5.311  16.332  0.00  0.00    +0.000 A 
BRANCH  22  29
ATOM     29  C   UNL     1       3.617   4.011  17.834  0.00  0.00    +0.000 A 
ATOM     30  C   UNL     1       3.668   2.675  18.263  0.00  0.00    +0.000 A 
ATOM     31  C   UNL     1       2.495   2.012  18.618  0.00  0.00    +0.000 A 
ATOM     32  C   UNL     1       1.279   2.677  18.530  0.00  0.00    +0.000 A 
ATOM     33  F   UNL     1       0.150   2.032  18.857  0.00  0.00    +0.000 F 
ATOM     34  C   UNL     1       1.211   3.995  18.096  0.00  0.00    +0.000 A 
ATOM     35  C   UNL     1       2.383   4.667  17.744  0.00  0.00    +0.000 A 
ENDBRANCH  22  29
ENDBRANCH  19  20
ENDBRANCH   1  19
TORSDOF 9
ENDMDL
MODEL 4
REMARK VINA RESULT:      -8.3      6.840      9.612
REMARK  Name = 
REMARK  11 active torsions:
REMARK  status: ('A' for Active; 'I' for Inactive)
REMARK    1  A    between atoms: C_1  and  O_2
REMARK    2  A    between atoms: O_2  and  C_3
REMARK    3  A    between atoms: C_8  and  O_9
REMARK    4  A    between atoms: O_9  and  C_10
REMARK    5  A    between atoms: C_13  and  N_14
REMARK    6  A    between atoms: N_14  and  C_15
REMARK    7  A    between atoms: C_15  and  C_16
REMARK    8  A    between atoms: C_16  and  C_17
REMARK    9  A    between atoms: C_17  and  C_18
REMARK   10  A    between atoms: C_18  and  C_19
REMARK   11  A    between atoms: N_21  and  C_22
REMARK                            x       y       z     vdW  Elec       q    Type
REMARK                         _______ _______ _______ _____ _____    ______ ____
ROOT
ATOM      1  C   UNL     1       7.363   6.513  17.165  0.00  0.00    +0.000 C 
ENDROOT
BRANCH   1   2
ATOM      2  C   UNL     1       7.260   7.999  17.537  0.00  0.00    +0.000 C 
BRANCH   2   3
ATOM      3  C   UNL     1       8.422   8.534  18.382  0.00  0.00    +0.000 C 
BRANCH   3   4
ATOM      4  N   UNL     1       8.666   9.954  18.137  0.00  0.00    +0.000 NA
ATOM      5  H   UNL     1       8.772  10.130  17.141  0.00  0.00    +0.000 HD
BRANCH   4  14
ATOM      6  C   UNL     1      10.390  14.659  18.196  0.00  0.00    +0.000 A 
ATOM      7  C   UNL     1      10.928  13.772  17.250  0.00  0.00    +0.000 A 
ATOM      8  C   UNL     1      10.805  12.399  17.420  0.00  0.00    +0.000 A 
ATOM      9  C   UNL     1      10.132  11.921  18.534  0.00  0.00    +0.000 A 
ATOM     10  C   UNL     1       9.607  12.793  19.513  0.00  0.00    +0.000 A 
ATOM     11  C   UNL     1       9.720  14.175  19.351  0.00  0.00    +0.000 A 
ATOM     12  C   UNL     1       8.927  11.966  20.567  0.00  0.00    +0.000 C 
ATOM     13  C   UNL     1       9.551  10.583  20.343  0.00  0.00    +0.000 C 
ATOM     14  C   UNL     1       9.844  10.471  18.838  0.00  0.00    +0.000 C 
BRANCH   6  16
ATOM     15  C   UNL     1      11.101  16.525  16.893  0.00  0.00    +0.000 C 
ATOM     16  O   UNL     1      10.526  16.027  18.095  0.00  0.00    +0.000 OA
ENDBRANCH   6  16
BRANCH  11  17
ATOM     17  O   UNL     1       9.221  15.160  20.158  0.00  0.00    +0.000 OA
ATOM     18  C   UNL     1       7.843  15.468  20.153  0.00  0.00    +0.000 C 
ENDBRANCH  11  17
ENDBRANCH   4  14
ENDBRANCH   3   4
ENDBRANCH   2   3
ENDBRANCH   1   2
BRANCH   1  19
ATOM     19  C   UNL     1       6.222   6.040  16.260  0.00  0.00    +0.000 C 
BRANCH  19  20
ATOM     20  C   UNL     1       4.895   6.102  16.936  0.00  0.00    +0.000 A 
ATOM     21  C   UNL     1       4.229   7.243  17.321  0.00  0.00    +0.000 A 
ATOM     22  N   UNL     1       3.080   6.905  18.001  0.00  0.00    +0.000 N 
ATOM     23  C   UNL     1       2.941   5.516  17.971  0.00  0.00    +0.000 A 
ATOM     24  C   UNL     1       1.908   4.662  18.408  0.00  0.00    +0.000 A 
ATOM     25  C   UNL     1       2.047   3.287  18.230  0.00  0.00    +0.000 A 
ATOM     26  C   UNL     1       3.172   2.766  17.612  0.00  0.00    +0.000 A 
ATOM     27  C   UNL     1       4.186   3.610  17.154  0.00  0.00    +0.000 A 
ATOM     28  C   UNL     1       4.069   5.002  17.319  0.00  0.00    +0.000 A 
BRANCH  22  29
ATOM     29  C   UNL     1       2.228   7.854  18.631  0.00  0.00    +0.000 A 
ATOM     30  C   UNL     1       1.982   7.752  20.009  0.00  0.00    +0.000 A 
ATOM     31  C   UNL     1       1.122   8.653  20.632  0.00  0.00    +0.000 A 
ATOM     32  C   UNL     1       0.503   9.641  19.879  0.00  0.00    +0.000 A 
ATOM     33  F   UNL     1      -0.336  10.498  20.478  0.00  0.00    +0.000 F 
ATOM     34  C   UNL     1       0.727   9.749  18.512  0.00  0.00    +0.000 A 
ATOM     35  C   UNL     1       1.592   8.852  17.883  0.00  0.00    +0.000 A 
ENDBRANCH  22  29
ENDBRANCH  19  20
ENDBRANCH   1  19
TORSDOF 9
ENDMDL
MODEL 5
REMARK VINA RESULT:      -8.2      4.614      9.282
REMARK  Name = 
REMARK  11 active torsions:
REMARK  status: ('A' for Active; 'I' for Inactive)
REMARK    1  A    between atoms: C_1  and  O_2
REMARK    2  A    between atoms: O_2  and  C_3
REMARK    3  A    between atoms: C_8  and  O_9
REMARK    4  A    between atoms: O_9  and  C_10
REMARK    5  A    between atoms: C_13  and  N_14
REMARK    6  A    between atoms: N_14  and  C_15
REMARK    7  A    between atoms: C_15  and  C_16
REMARK    8  A    between atoms: C_16  and  C_17
REMARK    9  A    between atoms: C_17  and  C_18
REMARK   10  A    between atoms: C_18  and  C_19
REMARK   11  A    between atoms: N_21  and  C_22
REMARK                            x       y       z     vdW  Elec       q    Type
REMARK                         _______ _______ _______ _____ _____    ______ ____
ROOT
ATOM      1  C   UNL     1       1.004   3.880  20.820  0.00  0.00    +0.000 C 
ENDROOT
BRANCH   1   2
ATOM      2  C   UNL     1       0.460   3.634  19.406  0.00  0.00    +0.000 C 
BRANCH   2   3
ATOM      3  C   UNL     1       1.193   2.545  18.613  0.00  0.00    +0.000 C 
BRANCH   3   4
ATOM      4  N   UNL     1       1.975   3.105  17.513  0.00  0.00    +0.000 NA
ATOM      5  H   UNL     1       1.482   2.987  16.630  0.00  0.00    +0.000 HD
BRANCH   4  14
ATOM      6  C   UNL     1       6.383   5.487  17.471  0.00  0.00    +0.000 A 
ATOM      7  C   UNL     1       5.779   5.197  16.237  0.00  0.00    +0.000 A 
ATOM      8  C   UNL     1       4.794   4.221  16.145  0.00  0.00    +0.000 A 
ATOM      9  C   UNL     1       4.410   3.550  17.295  0.00  0.00    +0.000 A 
ATOM     10  C   UNL     1       5.021   3.805  18.543  0.00  0.00    +0.000 A 
ATOM     11  C   UNL     1       6.010   4.786  18.649  0.00  0.00    +0.000 A 
ATOM     12  C   UNL     1       4.367   2.935  19.578  0.00  0.00    +0.000 C 
ATOM     13  C   UNL     1       3.712   1.848  18.717  0.00  0.00    +0.000 C 
ATOM     14  C   UNL     1       3.311   2.518  17.393  0.00  0.00    +0.000 C 
BRANCH   6  16
ATOM     15  C   UNL     1       7.074   7.762  17.293  0.00  0.00    +0.000 C 
ATOM     16  O   UNL     1       7.396   6.412  17.604  0.00  0.00    +0.000 OA
ENDBRANCH   6  16
BRANCH  11  17
ATOM     17  O   UNL     1       6.660   5.206  19.776  0.00  0.00    +0.000 OA
ATOM     18  C   UNL     1       8.048   5.459  19.757  0.00  0.00    +0.000 C 
ENDBRANCH  11  17
ENDBRANCH   4  14
ENDBRANCH   3   4
ENDBRANCH   2   3
ENDBRANCH   1   2
BRANCH   1  19
ATOM     19  C   UNL     1       2.250   4.769  20.839  0.00  0.00    +0.000 C 
BRANCH  19  20
ATOM     20  C   UNL     1       1.931   6.202  20.581  0.00  0.00    +0.000 A 
ATOM     21  C   UNL     1       1.259   7.053  21.428  0.00  0.00    +0.000 A 
ATOM     22  N   UNL     1       1.066   8.269  20.811  0.00  0.00    +0.000 N 
ATOM     23  C   UNL     1       1.714   8.245  19.575  0.00  0.00    +0.000 A 
ATOM     24  C   UNL     1       1.927   9.242  18.601  0.00  0.00    +0.000 A 
ATOM     25  C   UNL     1       2.635   8.920  17.446  0.00  0.00    +0.000 A 
ATOM     26  C   UNL     1       3.144   7.644  17.264  0.00  0.00    +0.000 A 
ATOM     27  C   UNL     1       2.958   6.659  18.236  0.00  0.00    +0.000 A 
ATOM     28  C   UNL     1       2.249   6.960  19.413  0.00  0.00    +0.000 A 
BRANCH  22  29
ATOM     29  C   UNL     1       0.304   9.328  21.376  0.00  0.00    +0.000 A 
ATOM     30  C   UNL     1      -0.001   9.302  22.747  0.00  0.00    +0.000 A 
ATOM     31  C   UNL     1      -0.776  10.315  23.307  0.00  0.00    +0.000 A 
ATOM     32  C   UNL     1      -1.254  11.339  22.500  0.00  0.00    +0.000 A 
ATOM     33  F   UNL     1      -2.012  12.304  23.038  0.00  0.00    +0.000 F 
ATOM     34  C   UNL     1      -0.970  11.372  21.140  0.00  0.00    +0.000 A 
ATOM     35  C   UNL     1      -0.190  10.364  20.573  0.00  0.00    +0.000 A 
ENDBRANCH  22  29
ENDBRANCH  19  20
ENDBRANCH   1  19
TORSDOF 9
ENDMDL
MODEL 6
REMARK VINA RESULT:      -8.2      6.593      9.337
REMARK  Name = 
REMARK  11 active torsions:
REMARK  status: ('A' for Active; 'I' for Inactive)
REMARK    1  A    between atoms: C_1  and  O_2
REMARK    2  A    between atoms: O_2  and  C_3
REMARK    3  A    between atoms: C_8  and  O_9
REMARK    4  A    between atoms: O_9  and  C_10
REMARK    5  A    between atoms: C_13  and  N_14
REMARK    6  A    between atoms: N_14  and  C_15
REMARK    7  A    between atoms: C_15  and  C_16
REMARK    8  A    between atoms: C_16  and  C_17
REMARK    9  A    between atoms: C_17  and  C_18
REMARK   10  A    between atoms: C_18  and  C_19
REMARK   11  A    between atoms: N_21  and  C_22
REMARK                            x       y       z     vdW  Elec       q    Type
REMARK                         _______ _______ _______ _____ _____    ______ ____
ROOT
ATOM      1  C   UNL     1       8.283   7.140  18.930  0.00  0.00    +0.000 C 
ENDROOT
BRANCH   1   2
ATOM      2  C   UNL     1       7.645   7.846  17.726  0.00  0.00    +0.000 C 
BRANCH   2   3
ATOM      3  C   UNL     1       8.045   9.316  17.554  0.00  0.00    +0.000 C 
BRANCH   3   4
ATOM      4  N   UNL     1       8.799   9.814  18.702  0.00  0.00    +0.000 NA
ATOM      5  H   UNL     1       8.165  10.111  19.442  0.00  0.00    +0.000 HD
BRANCH   4  14
ATOM      6  C   UNL     1       7.940  14.723  19.228  0.00  0.00    +0.000 A 
ATOM      7  C   UNL     1       7.664  14.136  17.983  0.00  0.00    +0.000 A 
ATOM      8  C   UNL     1       8.228  12.914  17.638  0.00  0.00    +0.000 A 
ATOM      9  C   UNL     1       9.059  12.281  18.550  0.00  0.00    +0.000 A 
ATOM     10  C   UNL     1       9.373  12.865  19.796  0.00  0.00    +0.000 A 
ATOM     11  C   UNL     1       8.809  14.091  20.156  0.00  0.00    +0.000 A 
ATOM     12  C   UNL     1      10.270  11.923  20.549  0.00  0.00    +0.000 C 
ATOM     13  C   UNL     1      10.811  11.029  19.425  0.00  0.00    +0.000 C 
ATOM     14  C   UNL     1       9.696  10.924  18.372  0.00  0.00    +0.000 C 
BRANCH   6  16
ATOM     15  C   UNL     1       7.408  16.958  18.589  0.00  0.00    +0.000 C 
ATOM     16  O   UNL     1       7.441  15.954  19.596  0.00  0.00    +0.000 OA
ENDBRANCH   6  16
BRANCH  11  17
ATOM     17  O   UNL     1       8.950  14.767  21.336  0.00  0.00    +0.000 OA
ATOM     18  C   UNL     1      10.180  15.368  21.681  0.00  0.00    +0.000 C 
ENDBRANCH  11  17
ENDBRANCH   4  14
ENDBRANCH   3   4
ENDBRANCH   2   3
ENDBRANCH   1   2
BRANCH   1  19
ATOM     19  C   UNL     1       8.260   5.613  18.814  0.00  0.00    +0.000 C 
BRANCH  19  20
ATOM     20  C   UNL     1       7.006   5.109  18.188  0.00  0.00    +0.000 A 
ATOM     21  C   UNL     1       5.833   4.806  18.840  0.00  0.00    +0.000 A 
ATOM     22  N   UNL     1       4.926   4.276  17.949  0.00  0.00    +0.000 N 
ATOM     23  C   UNL     1       5.482   4.329  16.669  0.00  0.00    +0.000 A 
ATOM     24  C   UNL     1       4.954   4.027  15.397  0.00  0.00    +0.000 A 
ATOM     25  C   UNL     1       5.760   4.192  14.274  0.00  0.00    +0.000 A 
ATOM     26  C   UNL     1       7.055   4.666  14.399  0.00  0.00    +0.000 A 
ATOM     27  C   UNL     1       7.576   4.990  15.653  0.00  0.00    +0.000 A 
ATOM     28  C   UNL     1       6.781   4.837  16.803  0.00  0.00    +0.000 A 
BRANCH  22  29
ATOM     29  C   UNL     1       3.659   3.755  18.329  0.00  0.00    +0.000 A 
ATOM     30  C   UNL     1       3.482   2.364  18.410  0.00  0.00    +0.000 A 
ATOM     31  C   UNL     1       2.237   1.838  18.747  0.00  0.00    +0.000 A 
ATOM     32  C   UNL     1       1.173   2.698  18.988  0.00  0.00    +0.000 A 
ATOM     33  F   UNL     1      -0.028   2.190  19.297  0.00  0.00    +0.000 F 
ATOM     34  C   UNL     1       1.329   4.075  18.901  0.00  0.00    +0.000 A 
ATOM     35  C   UNL     1       2.576   4.609  18.569  0.00  0.00    +0.000 A 
ENDBRANCH  22  29
ENDBRANCH  19  20
ENDBRANCH   1  19
TORSDOF 9
ENDMDL
MODEL 7
REMARK VINA RESULT:      -8.2      6.944      9.413
REMARK  Name = 
REMARK  11 active torsions:
REMARK  status: ('A' for Active; 'I' for Inactive)
REMARK    1  A    between atoms: C_1  and  O_2
REMARK    2  A    between atoms: O_2  and  C_3
REMARK    3  A    between atoms: C_8  and  O_9
REMARK    4  A    between atoms: O_9  and  C_10
REMARK    5  A    between atoms: C_13  and  N_14
REMARK    6  A    between atoms: N_14  and  C_15
REMARK    7  A    between atoms: C_15  and  C_16
REMARK    8  A    between atoms: C_16  and  C_17
REMARK    9  A    between atoms: C_17  and  C_18
REMARK   10  A    between atoms: C_18  and  C_19
REMARK   11  A    between atoms: N_21  and  C_22
REMARK                            x       y       z     vdW  Elec       q    Type
REMARK                         _______ _______ _______ _____ _____    ______ ____
ROOT
ATOM      1  C   UNL     1       7.635   8.703  17.667  0.00  0.00    +0.000 C 
ENDROOT
BRANCH   1   2
ATOM      2  C   UNL     1       8.733   9.727  17.985  0.00  0.00    +0.000 C 
BRANCH   2   3
ATOM      3  C   UNL     1       9.130   9.810  19.464  0.00  0.00    +0.000 C 
BRANCH   3   4
ATOM      4  N   UNL     1       9.370  11.187  19.888  0.00  0.00    +0.000 NA
ATOM      5  H   UNL     1       8.507  11.612  20.221  0.00  0.00    +0.000 HD
BRANCH   4  14
ATOM      6  C   UNL     1       7.908  15.773  18.494  0.00  0.00    +0.000 A 
ATOM      7  C   UNL     1       7.383  14.674  17.796  0.00  0.00    +0.000 A 
ATOM      8  C   UNL     1       8.016  13.438  17.847  0.00  0.00    +0.000 A 
ATOM      9  C   UNL     1       9.167  13.308  18.608  0.00  0.00    +0.000 A 
ATOM     10  C   UNL     1       9.729  14.405  19.296  0.00  0.00    +0.000 A 
ATOM     11  C   UNL     1       9.100  15.651  19.257  0.00  0.00    +0.000 A 
ATOM     12  C   UNL     1      10.947  13.928  20.035  0.00  0.00    +0.000 C 
ATOM     13  C   UNL     1      11.278  12.623  19.300  0.00  0.00    +0.000 C 
ATOM     14  C   UNL     1       9.939  12.029  18.834  0.00  0.00    +0.000 C 
BRANCH   6  16
ATOM     15  C   UNL     1       6.021  17.159  18.945  0.00  0.00    +0.000 C 
ATOM     16  O   UNL     1       7.343  17.029  18.437  0.00  0.00    +0.000 OA
ENDBRANCH   6  16
BRANCH  11  17
ATOM     17  O   UNL     1       9.464  16.798  19.907  0.00  0.00    +0.000 OA
ATOM     18  C   UNL     1       9.246  16.941  21.295  0.00  0.00    +0.000 C 
ENDBRANCH  11  17
ENDBRANCH   4  14
ENDBRANCH   3   4
ENDBRANCH   2   3
ENDBRANCH   1   2
BRANCH   1  19
ATOM     19  C   UNL     1       7.970   7.291  18.156  0.00  0.00    +0.000 C 
BRANCH  19  20
ATOM     20  C   UNL     1       6.832   6.344  17.984  0.00  0.00    +0.000 A 
ATOM     21  C   UNL     1       5.847   6.077  18.906  0.00  0.00    +0.000 A 
ATOM     22  N   UNL     1       5.024   5.079  18.434  0.00  0.00    +0.000 N 
ATOM     23  C   UNL     1       5.420   4.757  17.135  0.00  0.00    +0.000 A 
ATOM     24  C   UNL     1       4.865   3.898  16.164  0.00  0.00    +0.000 A 
ATOM     25  C   UNL     1       5.488   3.788  14.923  0.00  0.00    +0.000 A 
ATOM     26  C   UNL     1       6.624   4.527  14.636  0.00  0.00    +0.000 A 
ATOM     27  C   UNL     1       7.163   5.398  15.584  0.00  0.00    +0.000 A 
ATOM     28  C   UNL     1       6.551   5.531  16.844  0.00  0.00    +0.000 A 
BRANCH  22  29
ATOM     29  C   UNL     1       3.977   4.493  19.198  0.00  0.00    +0.000 A 
ATOM     30  C   UNL     1       4.137   3.193  19.704  0.00  0.00    +0.000 A 
ATOM     31  C   UNL     1       3.106   2.594  20.424  0.00  0.00    +0.000 A 
ATOM     32  C   UNL     1       1.918   3.285  20.624  0.00  0.00    +0.000 A 
ATOM     33  F   UNL     1       0.922   2.700  21.303  0.00  0.00    +0.000 F 
ATOM     34  C   UNL     1       1.740   4.566  20.119  0.00  0.00    +0.000 A 
ATOM     35  C   UNL     1       2.771   5.175  19.402  0.00  0.00    +0.000 A 
ENDBRANCH  22  29
ENDBRANCH  19  20
ENDBRANCH   1  19
TORSDOF 9
ENDMDL
MODEL 8
REMARK VINA RESULT:      -8.1      4.022      9.277
REMARK  Name = 
REMARK  11 active torsions:
REMARK  status: ('A' for Active; 'I' for Inactive)
REMARK    1  A    between atoms: C_1  and  O_2
REMARK    2  A    between atoms: O_2  and  C_3
REMARK    3  A    between atoms: C_8  and  O_9
REMARK    4  A    between atoms: O_9  and  C_10
REMARK    5  A    between atoms: C_13  and  N_14
REMARK    6  A    between atoms: N_14  and  C_15
REMARK    7  A    between atoms: C_15  and  C_16
REMARK    8  A    between atoms: C_16  and  C_17
REMARK    9  A    between atoms: C_17  and  C_18
REMARK   10  A    between atoms: C_18  and  C_19
REMARK   11  A    between atoms: N_21  and  C_22
REMARK                            x       y       z     vdW  Elec       q    Type
REMARK                         _______ _______ _______ _____ _____    ______ ____
ROOT
ATOM      1  C   UNL     1      -0.446   9.631  22.857  0.00  0.00    +0.000 C 
ENDROOT
BRANCH   1   2
ATOM      2  C   UNL     1       0.975   9.352  22.346  0.00  0.00    +0.000 C 
BRANCH   2   3
ATOM      3  C   UNL     1       1.046   8.720  20.951  0.00  0.00    +0.000 C 
BRANCH   3   4
ATOM      4  N   UNL     1       2.021   7.633  20.894  0.00  0.00    +0.000 NA
ATOM      5  H   UNL     1       2.950   7.998  20.695  0.00  0.00    +0.000 HD
BRANCH   4  14
ATOM      6  C   UNL     1       5.185   4.903  18.127  0.00  0.00    +0.000 A 
ATOM      7  C   UNL     1       4.673   6.085  17.569  0.00  0.00    +0.000 A 
ATOM      8  C   UNL     1       3.524   6.671  18.086  0.00  0.00    +0.000 A 
ATOM      9  C   UNL     1       2.900   6.073  19.170  0.00  0.00    +0.000 A 
ATOM     10  C   UNL     1       3.380   4.869  19.731  0.00  0.00    +0.000 A 
ATOM     11  C   UNL     1       4.536   4.274  19.223  0.00  0.00    +0.000 A 
ATOM     12  C   UNL     1       2.500   4.503  20.892  0.00  0.00    +0.000 C 
ATOM     13  C   UNL     1       1.234   5.321  20.606  0.00  0.00    +0.000 C 
ATOM     14  C   UNL     1       1.692   6.608  19.901  0.00  0.00    +0.000 C 
BRANCH   6  16
ATOM     15  C   UNL     1       7.550   4.895  17.826  0.00  0.00    +0.000 C 
ATOM     16  O   UNL     1       6.294   4.261  17.621  0.00  0.00    +0.000 OA
ENDBRANCH   6  16
BRANCH  11  17
ATOM     17  O   UNL     1       5.174   3.153  19.678  0.00  0.00    +0.000 OA
ATOM     18  C   UNL     1       4.497   1.916  19.748  0.00  0.00    +0.000 C 
ENDBRANCH  11  17
ENDBRANCH   4  14
ENDBRANCH   3   4
ENDBRANCH   2   3
ENDBRANCH   1   2
BRANCH   1  19
ATOM     19  C   UNL     1      -0.844  11.105  22.751  0.00  0.00    +0.000 C 
BRANCH  19  20
ATOM     20  C   UNL     1      -1.000  11.553  21.338  0.00  0.00    +0.000 A 
ATOM     21  C   UNL     1      -1.865  11.027  20.406  0.00  0.00    +0.000 A 
ATOM     22  N   UNL     1      -1.659  11.630  19.185  0.00  0.00    +0.000 N 
ATOM     23  C   UNL     1      -0.710  12.641  19.346  0.00  0.00    +0.000 A 
ATOM     24  C   UNL     1      -0.219  13.624  18.463  0.00  0.00    +0.000 A 
ATOM     25  C   UNL     1       0.738  14.527  18.919  0.00  0.00    +0.000 A 
ATOM     26  C   UNL     1       1.188  14.475  20.229  0.00  0.00    +0.000 A 
ATOM     27  C   UNL     1       0.687  13.520  21.115  0.00  0.00    +0.000 A 
ATOM     28  C   UNL     1      -0.283  12.599  20.680  0.00  0.00    +0.000 A 
BRANCH  22  29
ATOM     29  C   UNL     1      -2.314  11.230  17.988  0.00  0.00    +0.000 A 
ATOM     30  C   UNL     1      -3.593  11.733  17.702  0.00  0.00    +0.000 A 
ATOM     31  C   UNL     1      -4.261  11.324  16.550  0.00  0.00    +0.000 A 
ATOM     32  C   UNL     1      -3.659  10.407  15.698  0.00  0.00    +0.000 A 
ATOM     33  F   UNL     1      -4.310  10.003  14.598  0.00  0.00    +0.000 F 
ATOM     34  C   UNL     1      -2.399   9.892  15.973  0.00  0.00    +0.000 A 
ATOM     35  C   UNL     1      -1.721  10.302  17.122  0.00  0.00    +0.000 A 
ENDBRANCH  22  29
ENDBRANCH  19  20
ENDBRANCH   1  19
TORSDOF 9
ENDMDL
MODEL 9
REMARK VINA RESULT:      -8.1      7.118      9.753
REMARK  Name = 
REMARK  11 active torsions:
REMARK  status: ('A' for Active; 'I' for Inactive)
REMARK    1  A    between atoms: C_1  and  O_2
REMARK    2  A    between atoms: O_2  and  C_3
REMARK    3  A    between atoms: C_8  and  O_9
REMARK    4  A    between atoms: O_9  and  C_10
REMARK    5  A    between atoms: C_13  and  N_14
REMARK    6  A    between atoms: N_14  and  C_15
REMARK    7  A    between atoms: C_15  and  C_16
REMARK    8  A    between atoms: C_16  and  C_17
REMARK    9  A    between atoms: C_17  and  C_18
REMARK   10  A    between atoms: C_18  and  C_19
REMARK   11  A    between atoms: N_21  and  C_22
REMARK                            x       y       z     vdW  Elec       q    Type
REMARK                         _______ _______ _______ _____ _____    ______ ____
ROOT
ATOM      1  C   UNL     1       7.662   8.403  18.232  0.00  0.00    +0.000 C 
ENDROOT
BRANCH   1   2
ATOM      2  C   UNL     1       8.589   9.609  18.029  0.00  0.00    +0.000 C 
BRANCH   2   3
ATOM      3  C   UNL     1       9.104  10.252  19.322  0.00  0.00    +0.000 C 
BRANCH   3   4
ATOM      4  N   UNL     1      10.271  11.098  19.084  0.00  0.00    +0.000 NA
ATOM      5  H   UNL     1      10.359  11.798  19.817  0.00  0.00    +0.000 HD
BRANCH   4  14
ATOM      6  C   UNL     1       8.336  15.590  17.991  0.00  0.00    +0.000 A 
ATOM      7  C   UNL     1       7.527  14.459  17.797  0.00  0.00    +0.000 A 
ATOM      8  C   UNL     1       8.094  13.194  17.694  0.00  0.00    +0.000 A 
ATOM      9  C   UNL     1       9.470  13.069  17.799  0.00  0.00    +0.000 A 
ATOM     10  C   UNL     1      10.307  14.195  17.968  0.00  0.00    +0.000 A 
ATOM     11  C   UNL     1       9.749  15.470  18.077  0.00  0.00    +0.000 A 
ATOM     12  C   UNL     1      11.728  13.718  18.067  0.00  0.00    +0.000 C 
ATOM     13  C   UNL     1      11.642  12.318  17.447  0.00  0.00    +0.000 C 
ATOM     14  C   UNL     1      10.245  11.773  17.784  0.00  0.00    +0.000 C 
BRANCH   6  16
ATOM     15  C   UNL     1       6.851  17.120  19.058  0.00  0.00    +0.000 C 
ATOM     16  O   UNL     1       7.825  16.868  18.053  0.00  0.00    +0.000 OA
ENDBRANCH   6  16
BRANCH  11  17
ATOM     17  O   UNL     1      10.395  16.654  18.303  0.00  0.00    +0.000 OA
ATOM     18  C   UNL     1      11.150  17.271  17.282  0.00  0.00    +0.000 C 
ENDBRANCH  11  17
ENDBRANCH   4  14
ENDBRANCH   3   4
ENDBRANCH   2   3
ENDBRANCH   1   2
BRANCH   1  19
ATOM     19  C   UNL     1       8.048   7.196  17.373  0.00  0.00    +0.000 C 
BRANCH  19  20
ATOM     20  C   UNL     1       6.901   6.274  17.138  0.00  0.00    +0.000 A 
ATOM     21  C   UNL     1       5.872   6.013  18.013  0.00  0.00    +0.000 A 
ATOM     22  N   UNL     1       5.051   5.038  17.490  0.00  0.00    +0.000 N 
ATOM     23  C   UNL     1       5.497   4.728  16.204  0.00  0.00    +0.000 A 
ATOM     24  C   UNL     1       4.968   3.894  15.198  0.00  0.00    +0.000 A 
ATOM     25  C   UNL     1       5.641   3.790  13.983  0.00  0.00    +0.000 A 
ATOM     26  C   UNL     1       6.803   4.510  13.756  0.00  0.00    +0.000 A 
ATOM     27  C   UNL     1       7.317   5.357  14.740  0.00  0.00    +0.000 A 
ATOM     28  C   UNL     1       6.654   5.483  15.974  0.00  0.00    +0.000 A 
BRANCH  22  29
ATOM     29  C   UNL     1       3.961   4.462  18.199  0.00  0.00    +0.000 A 
ATOM     30  C   UNL     1       2.648   4.820  17.853  0.00  0.00    +0.000 A 
ATOM     31  C   UNL     1       1.572   4.290  18.561  0.00  0.00    +0.000 A 
ATOM     32  C   UNL     1       1.809   3.419  19.616  0.00  0.00    +0.000 A 
ATOM     33  F   UNL     1       0.772   2.923  20.307  0.00  0.00    +0.000 F 
ATOM     34  C   UNL     1       3.102   3.064  19.978  0.00  0.00    +0.000 A 
ATOM     35  C   UNL     1       4.184   3.587  19.270  0.00  0.00    +0.000 A 
ENDBRANCH  22  29
ENDBRANCH  19  20
ENDBRANCH   1  19
TORSDOF 9
ENDMDL
