MODEL 1
REMARK VINA RESULT:      -8.7      0.000      0.000
REMARK  Name = 
REMARK  4 active torsions:
REMARK  status: ('A' for Active; 'I' for Inactive)
REMARK    1  A    between atoms: C_1  and  C_2
REMARK    2  A    between atoms: C_4  and  C_5
REMARK    3  A    between atoms: C_12  and  C_13
REMARK    4  A    between atoms: C_19  and  C_20
REMARK                            x       y       z     vdW  Elec       q    Type
REMARK                         _______ _______ _______ _____ _____    ______ ____
ROOT
ATOM      1  C   UNL     1       2.143   6.176  20.032  0.00  0.00    +0.000 A 
ATOM      2  C   UNL     1       1.530   5.262  21.062  0.00  0.00    +0.000 A 
ATOM      3  C   UNL     1       1.929   3.985  21.034  0.00  0.00    +0.000 A 
ATOM      4  N   UNL     1       2.863   3.561  20.100  0.00  0.00    +0.000 N 
ATOM      5  N   UNL     1       3.353   2.309  19.958  0.00  0.00    +0.000 NA
ATOM      6  C   UNL     1       4.239   2.420  18.971  0.00  0.00    +0.000 A 
ATOM      7  C   UNL     1       4.330   3.727  18.442  0.00  0.00    +0.000 A 
ATOM      8  C   UNL     1       3.408   4.459  19.176  0.00  0.00    +0.000 A 
ATOM      9  N   UNL     1       3.014   5.777  19.143  0.00  0.00    +0.000 NA
ENDROOT
BRANCH   1  15
ATOM     10  C   UNL     1       2.479   8.359  17.681  0.00  0.00    +0.000 C 
ATOM     11  C   UNL     1       1.878   8.532  19.033  0.00  0.00    +0.000 A 
ATOM     12  N   UNL     1       1.368   9.783  19.353  0.00  0.00    +0.000 NA
ATOM     13  C   UNL     1       0.912   9.803  20.590  0.00  0.00    +0.000 A 
ATOM     14  S   UNL     1       1.002   8.294  21.400  0.00  0.00    +0.000 S 
ATOM     15  C   UNL     1       1.735   7.572  20.024  0.00  0.00    +0.000 A 
BRANCH  13  16
ATOM     16  C   UNL     1       0.345  10.993  21.244  0.00  0.00    +0.000 A 
ATOM     17  C   UNL     1      -0.588  10.826  22.279  0.00  0.00    +0.000 A 
ATOM     18  C   UNL     1      -1.190  11.929  22.890  0.00  0.00    +0.000 A 
ATOM     19  C   UNL     1      -0.871  13.218  22.468  0.00  0.00    +0.000 A 
ATOM     20  C   UNL     1       0.057  13.405  21.447  0.00  0.00    +0.000 A 
ATOM     21  C   UNL     1       0.662  12.301  20.840  0.00  0.00    +0.000 A 
ENDBRANCH  13  16
ENDBRANCH   1  15
BRANCH   7  22
ATOM     22  C   UNL     1       5.211   4.223  17.394  0.00  0.00    +0.000 A 
ATOM     23  C   UNL     1       4.771   4.237  16.060  0.00  0.00    +0.000 A 
ATOM     24  C   UNL     1       5.629   4.626  15.028  0.00  0.00    +0.000 A 
ATOM     25  C   UNL     1       6.937   5.006  15.316  0.00  0.00    +0.000 A 
ATOM     26  C   UNL     1       7.383   5.010  16.636  0.00  0.00    +0.000 A 
ATOM     27  C   UNL     1       6.524   4.622  17.669  0.00  0.00    +0.000 A 
ENDBRANCH   7  22
TORSDOF 3
ENDMDL
MODEL 2
REMARK VINA RESULT:      -8.5      0.235      1.320
REMARK  Name = 
REMARK  4 active torsions:
REMARK  status: ('A' for Active; 'I' for Inactive)
REMARK    1  A    between atoms: C_1  and  C_2
REMARK    2  A    between atoms: C_4  and  C_5
REMARK    3  A    between atoms: C_12  and  C_13
REMARK    4  A    between atoms: C_19  and  C_20
REMARK                            x       y       z     vdW  Elec       q    Type
REMARK                         _______ _______ _______ _____ _____    ______ ____
ROOT
ATOM      1  C   UNL     1       2.152   6.268  20.028  0.00  0.00    +0.000 A 
ATOM      2  C   UNL     1       1.544   5.365  21.070  0.00  0.00    +0.000 A 
ATOM      3  C   UNL     1       1.956   4.092  21.065  0.00  0.00    +0.000 A 
ATOM      4  N   UNL     1       2.899   3.662  20.143  0.00  0.00    +0.000 N 
ATOM      5  N   UNL     1       3.402   2.413  20.024  0.00  0.00    +0.000 NA
ATOM      6  C   UNL     1       4.292   2.517  19.039  0.00  0.00    +0.000 A 
ATOM      7  C   UNL     1       4.372   3.816  18.489  0.00  0.00    +0.000 A 
ATOM      8  C   UNL     1       3.440   4.551  19.206  0.00  0.00    +0.000 A 
ATOM      9  N   UNL     1       3.032   5.864  19.149  0.00  0.00    +0.000 NA
ENDROOT
BRANCH   1  15
ATOM     10  C   UNL     1       2.383   8.386  17.605  0.00  0.00    +0.000 C 
ATOM     11  C   UNL     1       1.828   8.592  18.972  0.00  0.00    +0.000 A 
ATOM     12  N   UNL     1       1.317   9.847  19.274  0.00  0.00    +0.000 NA
ATOM     13  C   UNL     1       0.905   9.898  20.525  0.00  0.00    +0.000 A 
ATOM     14  S   UNL     1       1.038   8.414  21.375  0.00  0.00    +0.000 S 
ATOM     15  C   UNL     1       1.730   7.660  19.994  0.00  0.00    +0.000 A 
BRANCH  13  16
ATOM     16  C   UNL     1       0.348  11.101  21.164  0.00  0.00    +0.000 A 
ATOM     17  C   UNL     1       0.845  12.363  20.800  0.00  0.00    +0.000 A 
ATOM     18  C   UNL     1       0.382  13.526  21.421  0.00  0.00    +0.000 A 
ATOM     19  C   UNL     1      -0.583  13.443  22.422  0.00  0.00    +0.000 A 
ATOM     20  C   UNL     1      -1.094  12.201  22.793  0.00  0.00    +0.000 A 
ATOM     21  C   UNL     1      -0.633  11.039  22.168  0.00  0.00    +0.000 A 
ENDBRANCH  13  16
ENDBRANCH   1  15
BRANCH   7  22
ATOM     22  C   UNL     1       5.253   4.304  17.437  0.00  0.00    +0.000 A 
ATOM     23  C   UNL     1       6.402   5.038  17.772  0.00  0.00    +0.000 A 
ATOM     24  C   UNL     1       7.214   5.590  16.777  0.00  0.00    +0.000 A 
ATOM     25  C   UNL     1       6.888   5.412  15.435  0.00  0.00    +0.000 A 
ATOM     26  C   UNL     1       5.759   4.673  15.088  0.00  0.00    +0.000 A 
ATOM     27  C   UNL     1       4.947   4.120  16.083  0.00  0.00    +0.000 A 
ENDBRANCH   7  22
TORSDOF 3
ENDMDL
MODEL 3
REMARK VINA RESULT:      -8.4      1.391      2.010
REMARK  Name = 
REMARK  4 active torsions:
REMARK  status: ('A' for Active; 'I' for Inactive)
REMARK    1  A    between atoms: C_1  and  C_2
REMARK    2  A    between atoms: C_4  and  C_5
REMARK    3  A    between atoms: C_12  and  C_13
REMARK    4  A    between atoms: C_19  and  C_20
REMARK                            x       y       z     vdW  Elec       q    Type
REMARK                         _______ _______ _______ _____ _____    ______ ____
ROOT
ATOM      1  C   UNL     1       1.813   6.887  20.176  0.00  0.00    +0.000 A 
ATOM      2  C   UNL     1       0.971   5.760  20.717  0.00  0.00    +0.000 A 
ATOM      3  C   UNL     1       1.493   4.532  20.621  0.00  0.00    +0.000 A 
ATOM      4  N   UNL     1       2.746   4.342  20.057  0.00  0.00    +0.000 N 
ATOM      5  N   UNL     1       3.391   3.165  19.897  0.00  0.00    +0.000 NA
ATOM      6  C   UNL     1       4.559   3.508  19.360  0.00  0.00    +0.000 A 
ATOM      7  C   UNL     1       4.691   4.898  19.142  0.00  0.00    +0.000 A 
ATOM      8  C   UNL     1       3.488   5.430  19.583  0.00  0.00    +0.000 A 
ATOM      9  N   UNL     1       2.989   6.711  19.632  0.00  0.00    +0.000 NA
ENDROOT
BRANCH   1  15
ATOM     10  C   UNL     1       1.694   9.144  17.873  0.00  0.00    +0.000 C 
ATOM     11  C   UNL     1       1.230   9.230  19.286  0.00  0.00    +0.000 A 
ATOM     12  N   UNL     1       0.648  10.422  19.698  0.00  0.00    +0.000 NA
ATOM     13  C   UNL     1       0.330  10.372  20.976  0.00  0.00    +0.000 A 
ATOM     14  S   UNL     1       0.642   8.860  21.724  0.00  0.00    +0.000 S 
ATOM     15  C   UNL     1       1.283   8.240  20.255  0.00  0.00    +0.000 A 
BRANCH  13  16
ATOM     16  C   UNL     1      -0.268  11.489  21.724  0.00  0.00    +0.000 A 
ATOM     17  C   UNL     1       0.199  12.794  21.497  0.00  0.00    +0.000 A 
ATOM     18  C   UNL     1      -0.304  13.875  22.223  0.00  0.00    +0.000 A 
ATOM     19  C   UNL     1      -1.280  13.667  23.196  0.00  0.00    +0.000 A 
ATOM     20  C   UNL     1      -1.761  12.381  23.432  0.00  0.00    +0.000 A 
ATOM     21  C   UNL     1      -1.260  11.300  22.701  0.00  0.00    +0.000 A 
ENDBRANCH  13  16
ENDBRANCH   1  15
BRANCH   7  22
ATOM     22  C   UNL     1       5.834   5.630  18.614  0.00  0.00    +0.000 A 
ATOM     23  C   UNL     1       7.050   5.627  19.316  0.00  0.00    +0.000 A 
ATOM     24  C   UNL     1       8.133   6.393  18.873  0.00  0.00    +0.000 A 
ATOM     25  C   UNL     1       8.014   7.169  17.724  0.00  0.00    +0.000 A 
ATOM     26  C   UNL     1       6.817   7.170  17.010  0.00  0.00    +0.000 A 
ATOM     27  C   UNL     1       5.734   6.403  17.451  0.00  0.00    +0.000 A 
ENDBRANCH   7  22
TORSDOF 3
ENDMDL
MODEL 4
REMARK VINA RESULT:      -8.4      0.539      1.040
REMARK  Name = 
REMARK  4 active torsions:
REMARK  status: ('A' for Active; 'I' for Inactive)
REMARK    1  A    between atoms: C_1  and  C_2
REMARK    2  A    between atoms: C_4  and  C_5
REMARK    3  A    between atoms: C_12  and  C_13
REMARK    4  A    between atoms: C_19  and  C_20
REMARK                            x       y       z     vdW  Elec       q    Type
REMARK                         _______ _______ _______ _____ _____    ______ ____
ROOT
ATOM      1  C   UNL     1       2.120   6.424  20.143  0.00  0.00    +0.000 A 
ATOM      2  C   UNL     1       1.419   5.461  21.066  0.00  0.00    +0.000 A 
ATOM      3  C   UNL     1       1.853   4.195  21.042  0.00  0.00    +0.000 A 
ATOM      4  N   UNL     1       2.898   3.826  20.209  0.00  0.00    +0.000 N 
ATOM      5  N   UNL     1       3.435   2.591  20.083  0.00  0.00    +0.000 NA
ATOM      6  C   UNL     1       4.424   2.758  19.208  0.00  0.00    +0.000 A 
ATOM      7  C   UNL     1       4.539   4.085  18.736  0.00  0.00    +0.000 A 
ATOM      8  C   UNL     1       3.521   4.768  19.382  0.00  0.00    +0.000 A 
ATOM      9  N   UNL     1       3.097   6.077  19.346  0.00  0.00    +0.000 NA
ENDROOT
BRANCH   1  15
ATOM     10  C   UNL     1       2.227   8.556  17.724  0.00  0.00    +0.000 C 
ATOM     11  C   UNL     1       1.724   8.748  19.112  0.00  0.00    +0.000 A 
ATOM     12  N   UNL     1       1.207   9.995  19.440  0.00  0.00    +0.000 NA
ATOM     13  C   UNL     1       0.844  10.035  20.707  0.00  0.00    +0.000 A 
ATOM     14  S   UNL     1       1.030   8.549  21.543  0.00  0.00    +0.000 S 
ATOM     15  C   UNL     1       1.678   7.810  20.133  0.00  0.00    +0.000 A 
BRANCH  13  16
ATOM     16  C   UNL     1       0.297  11.227  21.374  0.00  0.00    +0.000 A 
ATOM     17  C   UNL     1      -0.697  11.069  22.353  0.00  0.00    +0.000 A 
ATOM     18  C   UNL     1      -1.280  12.178  22.972  0.00  0.00    +0.000 A 
ATOM     19  C   UNL     1      -0.881  13.464  22.614  0.00  0.00    +0.000 A 
ATOM     20  C   UNL     1       0.107  13.642  21.649  0.00  0.00    +0.000 A 
ATOM     21  C   UNL     1       0.693  12.532  21.034  0.00  0.00    +0.000 A 
ENDBRANCH  13  16
ENDBRANCH   1  15
BRANCH   7  22
ATOM     22  C   UNL     1       5.520   4.637  17.812  0.00  0.00    +0.000 A 
ATOM     23  C   UNL     1       6.471   5.562  18.272  0.00  0.00    +0.000 A 
ATOM     24  C   UNL     1       7.364   6.170  17.386  0.00  0.00    +0.000 A 
ATOM     25  C   UNL     1       7.319   5.861  16.030  0.00  0.00    +0.000 A 
ATOM     26  C   UNL     1       6.391   4.934  15.561  0.00  0.00    +0.000 A 
ATOM     27  C   UNL     1       5.497   4.324  16.447  0.00  0.00    +0.000 A 
ENDBRANCH   7  22
TORSDOF 3
ENDMDL
MODEL 5
REMARK VINA RESULT:      -8.2      2.851      8.641
REMARK  Name = 
REMARK  4 active torsions:
REMARK  status: ('A' for Active; 'I' for Inactive)
REMARK    1  A    between atoms: C_1  and  C_2
REMARK    2  A    between atoms: C_4  and  C_5
REMARK    3  A    between atoms: C_12  and  C_13
REMARK    4  A    between atoms: C_19  and  C_20
REMARK                            x       y       z     vdW  Elec       q    Type
REMARK                         _______ _______ _______ _____ _____    ______ ____
ROOT
ATOM      1  C   UNL     1       1.447   8.356  20.100  0.00  0.00    +0.000 A 
ATOM      2  C   UNL     1       1.811   8.665  21.529  0.00  0.00    +0.000 A 
ATOM      3  C   UNL     1       1.127   9.655  22.115  0.00  0.00    +0.000 A 
ATOM      4  N   UNL     1       0.140  10.335  21.418  0.00  0.00    +0.000 N 
ATOM      5  N   UNL     1      -0.624  11.349  21.881  0.00  0.00    +0.000 NA
ATOM      6  C   UNL     1      -1.441  11.626  20.867  0.00  0.00    +0.000 A 
ATOM      7  C   UNL     1      -1.216  10.821  19.728  0.00  0.00    +0.000 A 
ATOM      8  C   UNL     1      -0.165   9.994  20.095  0.00  0.00    +0.000 A 
ATOM      9  N   UNL     1       0.525   9.002  19.436  0.00  0.00    +0.000 NA
ENDROOT
BRANCH   1  15
ATOM     10  C   UNL     1       1.653   5.238  20.903  0.00  0.00    +0.000 C 
ATOM     11  C   UNL     1       2.281   5.946  19.754  0.00  0.00    +0.000 A 
ATOM     12  N   UNL     1       3.052   5.192  18.879  0.00  0.00    +0.000 NA
ATOM     13  C   UNL     1       3.580   5.953  17.941  0.00  0.00    +0.000 A 
ATOM     14  S   UNL     1       3.109   7.601  18.019  0.00  0.00    +0.000 S 
ATOM     15  C   UNL     1       2.168   7.289  19.423  0.00  0.00    +0.000 A 
BRANCH  13  16
ATOM     16  C   UNL     1       4.480   5.462  16.886  0.00  0.00    +0.000 A 
ATOM     17  C   UNL     1       4.751   4.087  16.802  0.00  0.00    +0.000 A 
ATOM     18  C   UNL     1       5.641   3.585  15.849  0.00  0.00    +0.000 A 
ATOM     19  C   UNL     1       6.280   4.455  14.968  0.00  0.00    +0.000 A 
ATOM     20  C   UNL     1       6.020   5.822  15.031  0.00  0.00    +0.000 A 
ATOM     21  C   UNL     1       5.126   6.322  15.982  0.00  0.00    +0.000 A 
ENDBRANCH  13  16
ENDBRANCH   1  15
BRANCH   7  22
ATOM     22  C   UNL     1      -1.938  10.816  18.463  0.00  0.00    +0.000 A 
ATOM     23  C   UNL     1      -3.114  11.570  18.326  0.00  0.00    +0.000 A 
ATOM     24  C   UNL     1      -3.869  11.512  17.152  0.00  0.00    +0.000 A 
ATOM     25  C   UNL     1      -3.457  10.700  16.099  0.00  0.00    +0.000 A 
ATOM     26  C   UNL     1      -2.283   9.958  16.214  0.00  0.00    +0.000 A 
ATOM     27  C   UNL     1      -1.527  10.016  17.389  0.00  0.00    +0.000 A 
ENDBRANCH   7  22
TORSDOF 3
ENDMDL
MODEL 6
REMARK VINA RESULT:      -8.1      3.374      8.961
REMARK  Name = 
REMARK  4 active torsions:
REMARK  status: ('A' for Active; 'I' for Inactive)
REMARK    1  A    between atoms: C_1  and  C_2
REMARK    2  A    between atoms: C_4  and  C_5
REMARK    3  A    between atoms: C_12  and  C_13
REMARK    4  A    between atoms: C_19  and  C_20
REMARK                            x       y       z     vdW  Elec       q    Type
REMARK                         _______ _______ _______ _____ _____    ______ ____
ROOT
ATOM      1  C   UNL     1       0.810  11.054  19.116  0.00  0.00    +0.000 A 
ATOM      2  C   UNL     1      -0.672  11.284  18.970  0.00  0.00    +0.000 A 
ATOM      3  C   UNL     1      -1.070  12.560  18.902  0.00  0.00    +0.000 A 
ATOM      4  N   UNL     1      -0.142  13.589  18.958  0.00  0.00    +0.000 N 
ATOM      5  N   UNL     1      -0.401  14.915  18.901  0.00  0.00    +0.000 NA
ATOM      6  C   UNL     1       0.803  15.480  18.947  0.00  0.00    +0.000 A 
ATOM      7  C   UNL     1       1.859  14.547  19.053  0.00  0.00    +0.000 A 
ATOM      8  C   UNL     1       1.225  13.314  19.081  0.00  0.00    +0.000 A 
ATOM      9  N   UNL     1       1.687  12.022  19.182  0.00  0.00    +0.000 NA
ENDROOT
BRANCH   1  15
ATOM     10  C   UNL     1       0.883   9.095  21.679  0.00  0.00    +0.000 C 
ATOM     11  C   UNL     1       1.340   8.825  20.287  0.00  0.00    +0.000 A 
ATOM     12  N   UNL     1       1.856   7.564  20.015  0.00  0.00    +0.000 NA
ATOM     13  C   UNL     1       2.260   7.482  18.763  0.00  0.00    +0.000 A 
ATOM     14  S   UNL     1       1.964   8.892  17.831  0.00  0.00    +0.000 S 
ATOM     15  C   UNL     1       1.287   9.682  19.198  0.00  0.00    +0.000 A 
BRANCH  13  16
ATOM     16  C   UNL     1       2.892   6.291  18.174  0.00  0.00    +0.000 A 
ATOM     17  C   UNL     1       4.142   6.417  17.548  0.00  0.00    +0.000 A 
ATOM     18  C   UNL     1       4.752   5.322  16.931  0.00  0.00    +0.000 A 
ATOM     19  C   UNL     1       4.114   4.083  16.925  0.00  0.00    +0.000 A 
ATOM     20  C   UNL     1       2.877   3.936  17.546  0.00  0.00    +0.000 A 
ATOM     21  C   UNL     1       2.270   5.031  18.168  0.00  0.00    +0.000 A 
ENDBRANCH  13  16
ENDBRANCH   1  15
BRANCH   7  22
ATOM     22  C   UNL     1       3.293  14.798  19.086  0.00  0.00    +0.000 A 
ATOM     23  C   UNL     1       4.035  14.774  17.895  0.00  0.00    +0.000 A 
ATOM     24  C   UNL     1       5.424  14.926  17.914  0.00  0.00    +0.000 A 
ATOM     25  C   UNL     1       6.088  15.105  19.123  0.00  0.00    +0.000 A 
ATOM     26  C   UNL     1       5.363  15.146  20.313  0.00  0.00    +0.000 A 
ATOM     27  C   UNL     1       3.973  14.995  20.294  0.00  0.00    +0.000 A 
ENDBRANCH   7  22
TORSDOF 3
ENDMDL
MODEL 7
REMARK VINA RESULT:      -8.1      3.261      8.899
REMARK  Name = 
REMARK  4 active torsions:
REMARK  status: ('A' for Active; 'I' for Inactive)
REMARK    1  A    between atoms: C_1  and  C_2
REMARK    2  A    between atoms: C_4  and  C_5
REMARK    3  A    between atoms: C_12  and  C_13
REMARK    4  A    between atoms: C_19  and  C_20
REMARK                            x       y       z     vdW  Elec       q    Type
REMARK                         _______ _______ _______ _____ _____    ______ ____
ROOT
ATOM      1  C   UNL     1       0.862  10.739  19.104  0.00  0.00    +0.000 A 
ATOM      2  C   UNL     1      -0.624  10.940  18.959  0.00  0.00    +0.000 A 
ATOM      3  C   UNL     1      -1.049  12.207  18.897  0.00  0.00    +0.000 A 
ATOM      4  N   UNL     1      -0.143  13.255  18.959  0.00  0.00    +0.000 N 
ATOM      5  N   UNL     1      -0.429  14.576  18.910  0.00  0.00    +0.000 NA
ATOM      6  C   UNL     1       0.763  15.166  18.959  0.00  0.00    +0.000 A 
ATOM      7  C   UNL     1       1.838  14.254  19.060  0.00  0.00    +0.000 A 
ATOM      8  C   UNL     1       1.230  13.008  19.081  0.00  0.00    +0.000 A 
ATOM      9  N   UNL     1       1.719  11.725  19.175  0.00  0.00    +0.000 NA
ENDROOT
BRANCH   1  15
ATOM     10  C   UNL     1       1.046   8.796  21.672  0.00  0.00    +0.000 C 
ATOM     11  C   UNL     1       1.468   8.527  20.270  0.00  0.00    +0.000 A 
ATOM     12  N   UNL     1       2.001   7.276  19.989  0.00  0.00    +0.000 NA
ATOM     13  C   UNL     1       2.371   7.195  18.726  0.00  0.00    +0.000 A 
ATOM     14  S   UNL     1       2.021   8.593  17.796  0.00  0.00    +0.000 S 
ATOM     15  C   UNL     1       1.368   9.377  19.179  0.00  0.00    +0.000 A 
BRANCH  13  16
ATOM     16  C   UNL     1       3.009   6.013  18.125  0.00  0.00    +0.000 A 
ATOM     17  C   UNL     1       2.243   4.857  17.907  0.00  0.00    +0.000 A 
ATOM     18  C   UNL     1       2.822   3.697  17.388  0.00  0.00    +0.000 A 
ATOM     19  C   UNL     1       4.182   3.673  17.085  0.00  0.00    +0.000 A 
ATOM     20  C   UNL     1       4.958   4.812  17.287  0.00  0.00    +0.000 A 
ATOM     21  C   UNL     1       4.376   5.974  17.802  0.00  0.00    +0.000 A 
ENDBRANCH  13  16
ENDBRANCH   1  15
BRANCH   7  22
ATOM     22  C   UNL     1       3.266  14.535  19.095  0.00  0.00    +0.000 A 
ATOM     23  C   UNL     1       3.888  14.843  20.316  0.00  0.00    +0.000 A 
ATOM     24  C   UNL     1       5.238  15.201  20.361  0.00  0.00    +0.000 A 
ATOM     25  C   UNL     1       5.983  15.256  19.187  0.00  0.00    +0.000 A 
ATOM     26  C   UNL     1       5.383  14.939  17.970  0.00  0.00    +0.000 A 
ATOM     27  C   UNL     1       4.033  14.579  17.924  0.00  0.00    +0.000 A 
ENDBRANCH   7  22
TORSDOF 3
ENDMDL
MODEL 8
REMARK VINA RESULT:      -8.0      3.270      8.855
REMARK  Name = 
REMARK  4 active torsions:
REMARK  status: ('A' for Active; 'I' for Inactive)
REMARK    1  A    between atoms: C_1  and  C_2
REMARK    2  A    between atoms: C_4  and  C_5
REMARK    3  A    between atoms: C_12  and  C_13
REMARK    4  A    between atoms: C_19  and  C_20
REMARK                            x       y       z     vdW  Elec       q    Type
REMARK                         _______ _______ _______ _____ _____    ______ ____
ROOT
ATOM      1  C   UNL     1       0.491   9.677  20.392  0.00  0.00    +0.000 A 
ATOM      2  C   UNL     1       0.733  10.266  21.758  0.00  0.00    +0.000 A 
ATOM      3  C   UNL     1      -0.033  11.310  22.097  0.00  0.00    +0.000 A 
ATOM      4  N   UNL     1      -0.992  11.792  21.220  0.00  0.00    +0.000 N 
ATOM      5  N   UNL     1      -1.830  12.833  21.430  0.00  0.00    +0.000 NA
ATOM      6  C   UNL     1      -2.578  12.871  20.329  0.00  0.00    +0.000 A 
ATOM      7  C   UNL     1      -2.235  11.880  19.382  0.00  0.00    +0.000 A 
ATOM      8  C   UNL     1      -1.181  11.195  19.968  0.00  0.00    +0.000 A 
ATOM      9  N   UNL     1      -0.404  10.136  19.557  0.00  0.00    +0.000 NA
ENDROOT
BRANCH   1  15
ATOM     10  C   UNL     1       2.213   9.308  17.689  0.00  0.00    +0.000 C 
ATOM     11  C   UNL     1       2.042   8.356  18.821  0.00  0.00    +0.000 A 
ATOM     12  N   UNL     1       2.714   7.142  18.745  0.00  0.00    +0.000 NA
ATOM     13  C   UNL     1       2.436   6.385  19.788  0.00  0.00    +0.000 A 
ATOM     14  S   UNL     1       1.417   7.129  20.950  0.00  0.00    +0.000 S 
ATOM     15  C   UNL     1       1.304   8.543  19.980  0.00  0.00    +0.000 A 
BRANCH  13  16
ATOM     16  C   UNL     1       2.958   5.024  19.984  0.00  0.00    +0.000 A 
ATOM     17  C   UNL     1       4.080   4.607  19.250  0.00  0.00    +0.000 A 
ATOM     18  C   UNL     1       4.575   3.306  19.367  0.00  0.00    +0.000 A 
ATOM     19  C   UNL     1       3.949   2.398  20.217  0.00  0.00    +0.000 A 
ATOM     20  C   UNL     1       2.838   2.793  20.959  0.00  0.00    +0.000 A 
ATOM     21  C   UNL     1       2.347   4.096  20.845  0.00  0.00    +0.000 A 
ENDBRANCH  13  16
ENDBRANCH   1  15
BRANCH   7  22
ATOM     22  C   UNL     1      -2.858  11.600  18.096  0.00  0.00    +0.000 A 
ATOM     23  C   UNL     1      -4.255  11.646  17.971  0.00  0.00    +0.000 A 
ATOM     24  C   UNL     1      -4.879  11.296  16.770  0.00  0.00    +0.000 A 
ATOM     25  C   UNL     1      -4.113  10.897  15.679  0.00  0.00    +0.000 A 
ATOM     26  C   UNL     1      -2.723  10.861  15.783  0.00  0.00    +0.000 A 
ATOM     27  C   UNL     1      -2.099  11.212  16.984  0.00  0.00    +0.000 A 
ENDBRANCH   7  22
TORSDOF 3
ENDMDL
MODEL 9
REMARK VINA RESULT:      -8.0      1.430      1.606
REMARK  Name = 
REMARK  4 active torsions:
REMARK  status: ('A' for Active; 'I' for Inactive)
REMARK    1  A    between atoms: C_1  and  C_2
REMARK    2  A    between atoms: C_4  and  C_5
REMARK    3  A    between atoms: C_12  and  C_13
REMARK    4  A    between atoms: C_19  and  C_20
REMARK                            x       y       z     vdW  Elec       q    Type
REMARK                         _______ _______ _______ _____ _____    ______ ____
ROOT
ATOM      1  C   UNL     1       1.705   6.946  20.225  0.00  0.00    +0.000 A 
ATOM      2  C   UNL     1       0.846   5.811  20.720  0.00  0.00    +0.000 A 
ATOM      3  C   UNL     1       1.361   4.581  20.600  0.00  0.00    +0.000 A 
ATOM      4  N   UNL     1       2.621   4.398  20.051  0.00  0.00    +0.000 N 
ATOM      5  N   UNL     1       3.261   3.220  19.870  0.00  0.00    +0.000 NA
ATOM      6  C   UNL     1       4.440   3.570  19.362  0.00  0.00    +0.000 A 
ATOM      7  C   UNL     1       4.586   4.964  19.185  0.00  0.00    +0.000 A 
ATOM      8  C   UNL     1       3.380   5.492  19.621  0.00  0.00    +0.000 A 
ATOM      9  N   UNL     1       2.889   6.776  19.697  0.00  0.00    +0.000 NA
ENDROOT
BRANCH   1  15
ATOM     10  C   UNL     1       1.588   9.247  17.967  0.00  0.00    +0.000 C 
ATOM     11  C   UNL     1       1.133   9.309  19.384  0.00  0.00    +0.000 A 
ATOM     12  N   UNL     1       0.559  10.496  19.822  0.00  0.00    +0.000 NA
ATOM     13  C   UNL     1       0.247  10.423  21.101  0.00  0.00    +0.000 A 
ATOM     14  S   UNL     1       0.554   8.895  21.818  0.00  0.00    +0.000 S 
ATOM     15  C   UNL     1       1.184   8.299  20.334  0.00  0.00    +0.000 A 
BRANCH  13  16
ATOM     16  C   UNL     1      -0.339  11.529  21.873  0.00  0.00    +0.000 A 
ATOM     17  C   UNL     1      -1.375  11.257  22.782  0.00  0.00    +0.000 A 
ATOM     18  C   UNL     1      -1.995  12.286  23.495  0.00  0.00    +0.000 A 
ATOM     19  C   UNL     1      -1.591  13.606  23.305  0.00  0.00    +0.000 A 
ATOM     20  C   UNL     1      -0.561  13.896  22.414  0.00  0.00    +0.000 A 
ATOM     21  C   UNL     1       0.061  12.865  21.704  0.00  0.00    +0.000 A 
ENDBRANCH  13  16
ENDBRANCH   1  15
BRANCH   7  22
ATOM     22  C   UNL     1       5.743   5.701  18.697  0.00  0.00    +0.000 A 
ATOM     23  C   UNL     1       5.647   6.448  17.512  0.00  0.00    +0.000 A 
ATOM     24  C   UNL     1       6.768   7.091  16.979  0.00  0.00    +0.000 A 
ATOM     25  C   UNL     1       7.997   6.997  17.624  0.00  0.00    +0.000 A 
ATOM     26  C   UNL     1       8.104   6.271  18.809  0.00  0.00    +0.000 A 
ATOM     27  C   UNL     1       6.983   5.628  19.344  0.00  0.00    +0.000 A 
ENDBRANCH   7  22
TORSDOF 3
ENDMDL
