MODEL 1
REMARK VINA RESULT:      -7.8      0.000      0.000
REMARK  Name = 
REMARK  8 active torsions:
REMARK  status: ('A' for Active; 'I' for Inactive)
REMARK    1  A    between atoms: C_1  and  C_2
REMARK    2  A    between atoms: C_5  and  S_6
REMARK    3  A    between atoms: S_6  and  N_9
REMARK    4  A    between atoms: C_15  and  C_16
REMARK    5  A    between atoms: C_16  and  C_17
REMARK    6  A    between atoms: N_19  and  C_20
REMARK    7  A    between atoms: C_25  and  C_26
REMARK    8  A    between atoms: C_25  and  C_27
REMARK                            x       y       z     vdW  Elec       q    Type
REMARK                         _______ _______ _______ _____ _____    ______ ____
ROOT
ATOM      1  N   UNL     1      -0.096  10.254  20.964  0.00  0.00    +0.000 N 
ATOM      2  C   UNL     1      -1.150  10.412  21.917  0.00  0.00    +0.000 C 
ATOM      3  C   UNL     1      -0.881  10.086  23.183  0.00  0.00    +0.000 C 
ATOM      4  N   UNL     1       0.362   9.700  23.609  0.00  0.00    +0.000 N 
ATOM      5  C   UNL     1       1.438   9.540  22.765  0.00  0.00    +0.000 C 
ATOM      6  O   UNL     1       2.567   9.354  23.217  0.00  0.00    +0.000 OA
ATOM      7  C   UNL     1       1.104   9.431  21.269  0.00  0.00    +0.000 C 
ATOM      8  H   UNL     1       0.555   9.632  24.603  0.00  0.00    +0.000 HD
ENDROOT
BRANCH   1   9
ATOM      9  S   UNL     1      -0.014  11.435  19.749  0.00  0.00    +0.000 S 
ATOM     10  O   UNL     1       1.277  11.325  19.096  0.00  0.00    +0.000 OA
ATOM     11  O   UNL     1      -0.465  12.705  20.283  0.00  0.00    +0.000 OA
BRANCH   9  16
ATOM     12  C   UNL     1      -3.734  10.397  15.104  0.00  0.00    +0.000 C 
ATOM     13  C   UNL     1      -2.939  10.512  16.372  0.00  0.00    +0.000 A 
ATOM     14  C   UNL     1      -3.221  11.533  17.290  0.00  0.00    +0.000 A 
ATOM     15  C   UNL     1      -2.377  11.754  18.380  0.00  0.00    +0.000 A 
ATOM     16  C   UNL     1      -1.253  10.948  18.559  0.00  0.00    +0.000 A 
ATOM     17  C   UNL     1      -0.991   9.890  17.683  0.00  0.00    +0.000 A 
ATOM     18  C   UNL     1      -1.832   9.681  16.586  0.00  0.00    +0.000 A 
ENDBRANCH   9  16
ENDBRANCH   1   9
BRANCH   7  19
ATOM     19  C   UNL     1       0.850   7.946  21.015  0.00  0.00    +0.000 C 
BRANCH  19  20
ATOM     20  C   UNL     1       1.870   7.201  20.167  0.00  0.00    +0.000 C 
ATOM     21  O   UNL     1       2.390   7.731  19.196  0.00  0.00    +0.000 OA
ATOM     22  N   UNL     1       2.047   5.890  20.523  0.00  0.00    +0.000 N 
ATOM     23  H   UNL     1       1.713   5.633  21.442  0.00  0.00    +0.000 HD
BRANCH  22  24
ATOM     24  C   UNL     1       2.798   4.833  19.788  0.00  0.00    +0.000 C 
ATOM     25  C   UNL     1       2.821   5.016  18.253  0.00  0.00    +0.000 C 
ATOM     26  C   UNL     1       3.408   3.812  17.511  0.00  0.00    +0.000 C 
ATOM     27  N   UNL     1       2.771   2.546  17.891  0.00  0.00    +0.000 NA
ATOM     28  C   UNL     1       2.880   2.320  19.320  0.00  0.00    +0.000 C 
ATOM     29  C   UNL     1       2.192   3.435  20.148  0.00  0.00    +0.000 C 
ATOM     30  C   UNL     1       0.668   3.426  19.833  0.00  0.00    +0.000 C 
ATOM     31  C   UNL     1       2.451   3.109  21.639  0.00  0.00    +0.000 C 
ATOM     32  H   UNL     1       3.212   1.790  17.385  0.00  0.00    +0.000 HD
ENDBRANCH  22  24
ENDBRANCH  19  20
ENDBRANCH   7  19
TORSDOF 5
ENDMDL
MODEL 2
REMARK VINA RESULT:      -7.8      0.853      1.343
REMARK  Name = 
REMARK  8 active torsions:
REMARK  status: ('A' for Active; 'I' for Inactive)
REMARK    1  A    between atoms: C_1  and  C_2
REMARK    2  A    between atoms: C_5  and  S_6
REMARK    3  A    between atoms: S_6  and  N_9
REMARK    4  A    between atoms: C_15  and  C_16
REMARK    5  A    between atoms: C_16  and  C_17
REMARK    6  A    between atoms: N_19  and  C_20
REMARK    7  A    between atoms: C_25  and  C_26
REMARK    8  A    between atoms: C_25  and  C_27
REMARK                            x       y       z     vdW  Elec       q    Type
REMARK                         _______ _______ _______ _____ _____    ______ ____
ROOT
ATOM      1  N   UNL     1       0.178   9.818  20.590  0.00  0.00    +0.000 N 
ATOM      2  C   UNL     1      -0.974  10.066  21.398  0.00  0.00    +0.000 C 
ATOM      3  C   UNL     1      -0.833   9.936  22.719  0.00  0.00    +0.000 C 
ATOM      4  N   UNL     1       0.368   9.667  23.321  0.00  0.00    +0.000 N 
ATOM      5  C   UNL     1       1.531   9.433  22.622  0.00  0.00    +0.000 C 
ATOM      6  O   UNL     1       2.611   9.361  23.209  0.00  0.00    +0.000 OA
ATOM      7  C   UNL     1       1.361   9.098  21.133  0.00  0.00    +0.000 C 
ATOM      8  H   UNL     1       0.456   9.750  24.328  0.00  0.00    +0.000 HD
ENDROOT
BRANCH   1   9
ATOM      9  S   UNL     1       0.358  10.815  19.230  0.00  0.00    +0.000 S 
ATOM     10  O   UNL     1       1.118  10.088  18.231  0.00  0.00    +0.000 OA
ATOM     11  O   UNL     1       0.774  12.137  19.656  0.00  0.00    +0.000 OA
BRANCH   9  16
ATOM     12  C   UNL     1      -5.523  10.958  17.858  0.00  0.00    +0.000 C 
ATOM     13  C   UNL     1      -4.033  11.043  18.014  0.00  0.00    +0.000 A 
ATOM     14  C   UNL     1      -3.212  10.029  17.504  0.00  0.00    +0.000 A 
ATOM     15  C   UNL     1      -1.847  10.012  17.796  0.00  0.00    +0.000 A 
ATOM     16  C   UNL     1      -1.298  11.016  18.594  0.00  0.00    +0.000 A 
ATOM     17  C   UNL     1      -2.095  12.065  19.062  0.00  0.00    +0.000 A 
ATOM     18  C   UNL     1      -3.463  12.071  18.777  0.00  0.00    +0.000 A 
ENDBRANCH   9  16
ENDBRANCH   1   9
BRANCH   7  19
ATOM     19  C   UNL     1       1.175   7.582  21.075  0.00  0.00    +0.000 C 
BRANCH  19  20
ATOM     20  C   UNL     1       2.091   6.804  20.142  0.00  0.00    +0.000 C 
ATOM     21  O   UNL     1       2.645   7.353  19.200  0.00  0.00    +0.000 OA
ATOM     22  N   UNL     1       2.131   5.457  20.388  0.00  0.00    +0.000 N 
ATOM     23  H   UNL     1       1.790   5.163  21.293  0.00  0.00    +0.000 HD
BRANCH  22  24
ATOM     24  C   UNL     1       2.749   4.390  19.550  0.00  0.00    +0.000 C 
ATOM     25  C   UNL     1       2.524   4.561  18.031  0.00  0.00    +0.000 C 
ATOM     26  C   UNL     1       2.978   3.347  17.214  0.00  0.00    +0.000 C 
ATOM     27  N   UNL     1       2.403   2.088  17.702  0.00  0.00    +0.000 NA
ATOM     28  C   UNL     1       2.739   1.872  19.098  0.00  0.00    +0.000 C 
ATOM     29  C   UNL     1       2.201   2.999  20.016  0.00  0.00    +0.000 C 
ATOM     30  C   UNL     1       0.646   2.997  19.951  0.00  0.00    +0.000 C 
ATOM     31  C   UNL     1       2.695   2.682  21.448  0.00  0.00    +0.000 C 
ATOM     32  H   UNL     1       2.753   1.325  17.139  0.00  0.00    +0.000 HD
ENDBRANCH  22  24
ENDBRANCH  19  20
ENDBRANCH   7  19
TORSDOF 5
ENDMDL
MODEL 3
REMARK VINA RESULT:      -7.8      3.289      8.323
REMARK  Name = 
REMARK  8 active torsions:
REMARK  status: ('A' for Active; 'I' for Inactive)
REMARK    1  A    between atoms: C_1  and  C_2
REMARK    2  A    between atoms: C_5  and  S_6
REMARK    3  A    between atoms: S_6  and  N_9
REMARK    4  A    between atoms: C_15  and  C_16
REMARK    5  A    between atoms: C_16  and  C_17
REMARK    6  A    between atoms: N_19  and  C_20
REMARK    7  A    between atoms: C_25  and  C_26
REMARK    8  A    between atoms: C_25  and  C_27
REMARK                            x       y       z     vdW  Elec       q    Type
REMARK                         _______ _______ _______ _____ _____    ______ ____
ROOT
ATOM      1  N   UNL     1       4.198   5.470  18.969  0.00  0.00    +0.000 N 
ATOM      2  C   UNL     1       4.095   4.562  20.068  0.00  0.00    +0.000 C 
ATOM      3  C   UNL     1       2.973   3.844  20.163  0.00  0.00    +0.000 C 
ATOM      4  N   UNL     1       1.979   3.880  19.222  0.00  0.00    +0.000 N 
ATOM      5  C   UNL     1       2.004   4.710  18.123  0.00  0.00    +0.000 C 
ATOM      6  O   UNL     1       1.171   4.586  17.225  0.00  0.00    +0.000 OA
ATOM      7  C   UNL     1       2.999   5.879  18.190  0.00  0.00    +0.000 C 
ATOM      8  H   UNL     1       1.233   3.193  19.251  0.00  0.00    +0.000 HD
ENDROOT
BRANCH   1   9
ATOM      9  S   UNL     1       5.737   5.620  18.274  0.00  0.00    +0.000 S 
ATOM     10  O   UNL     1       6.639   4.723  18.971  0.00  0.00    +0.000 OA
ATOM     11  O   UNL     1       6.063   7.025  18.126  0.00  0.00    +0.000 OA
BRANCH   9  16
ATOM     12  C   UNL     1       6.081   3.541  12.613  0.00  0.00    +0.000 C 
ATOM     13  C   UNL     1       5.774   4.038  13.995  0.00  0.00    +0.000 A 
ATOM     14  C   UNL     1       5.650   5.413  14.238  0.00  0.00    +0.000 A 
ATOM     15  C   UNL     1       5.541   5.892  15.545  0.00  0.00    +0.000 A 
ATOM     16  C   UNL     1       5.547   4.994  16.613  0.00  0.00    +0.000 A 
ATOM     17  C   UNL     1       5.613   3.617  16.382  0.00  0.00    +0.000 A 
ATOM     18  C   UNL     1       5.735   3.143  15.072  0.00  0.00    +0.000 A 
ENDBRANCH   9  16
ENDBRANCH   1   9
BRANCH   7  19
ATOM     19  C   UNL     1       2.243   7.018  18.872  0.00  0.00    +0.000 C 
BRANCH  19  20
ATOM     20  C   UNL     1       2.058   8.303  18.077  0.00  0.00    +0.000 C 
ATOM     21  O   UNL     1       2.771   8.559  17.118  0.00  0.00    +0.000 OA
ATOM     22  N   UNL     1       1.125   9.158  18.602  0.00  0.00    +0.000 N 
ATOM     23  H   UNL     1       0.481   8.755  19.269  0.00  0.00    +0.000 HD
BRANCH  22  24
ATOM     24  C   UNL     1       0.848  10.568  18.204  0.00  0.00    +0.000 C 
ATOM     25  C   UNL     1       1.860  11.598  18.755  0.00  0.00    +0.000 C 
ATOM     26  C   UNL     1       1.435  13.049  18.515  0.00  0.00    +0.000 C 
ATOM     27  N   UNL     1       0.074  13.327  18.991  0.00  0.00    +0.000 NA
ATOM     28  C   UNL     1      -0.887  12.442  18.359  0.00  0.00    +0.000 C 
ATOM     29  C   UNL     1      -0.600  10.949  18.661  0.00  0.00    +0.000 C 
ATOM     30  C   UNL     1      -0.749  10.710  20.192  0.00  0.00    +0.000 C 
ATOM     31  C   UNL     1      -1.644  10.125  17.869  0.00  0.00    +0.000 C 
ATOM     32  H   UNL     1      -0.156  14.291  18.788  0.00  0.00    +0.000 HD
ENDBRANCH  22  24
ENDBRANCH  19  20
ENDBRANCH   7  19
TORSDOF 5
ENDMDL
MODEL 4
REMARK VINA RESULT:      -7.8      6.469      9.437
REMARK  Name = 
REMARK  8 active torsions:
REMARK  status: ('A' for Active; 'I' for Inactive)
REMARK    1  A    between atoms: C_1  and  C_2
REMARK    2  A    between atoms: C_5  and  S_6
REMARK    3  A    between atoms: S_6  and  N_9
REMARK    4  A    between atoms: C_15  and  C_16
REMARK    5  A    between atoms: C_16  and  C_17
REMARK    6  A    between atoms: N_19  and  C_20
REMARK    7  A    between atoms: C_25  and  C_26
REMARK    8  A    between atoms: C_25  and  C_27
REMARK                            x       y       z     vdW  Elec       q    Type
REMARK                         _______ _______ _______ _____ _____    ______ ____
ROOT
ATOM      1  N   UNL     1       6.491   6.324  17.190  0.00  0.00    +0.000 N 
ATOM      2  C   UNL     1       7.010   5.205  16.468  0.00  0.00    +0.000 C 
ATOM      3  C   UNL     1       7.832   4.383  17.124  0.00  0.00    +0.000 C 
ATOM      4  N   UNL     1       8.120   4.519  18.457  0.00  0.00    +0.000 N 
ATOM      5  C   UNL     1       7.649   5.554  19.233  0.00  0.00    +0.000 C 
ATOM      6  O   UNL     1       7.799   5.539  20.455  0.00  0.00    +0.000 OA
ATOM      7  C   UNL     1       7.106   6.771  18.469  0.00  0.00    +0.000 C 
ATOM      8  H   UNL     1       8.607   3.775  18.945  0.00  0.00    +0.000 HD
ENDROOT
BRANCH   1   9
ATOM      9  S   UNL     1       4.889   6.753  16.839  0.00  0.00    +0.000 S 
ATOM     10  O   UNL     1       4.708   6.698  15.401  0.00  0.00    +0.000 OA
ATOM     11  O   UNL     1       4.537   7.947  17.582  0.00  0.00    +0.000 OA
BRANCH   9  16
ATOM     12  C   UNL     1       0.822   2.681  18.677  0.00  0.00    +0.000 C 
ATOM     13  C   UNL     1       1.975   3.589  18.358  0.00  0.00    +0.000 A 
ATOM     14  C   UNL     1       2.142   4.788  19.062  0.00  0.00    +0.000 A 
ATOM     15  C   UNL     1       3.102   5.717  18.655  0.00  0.00    +0.000 A 
ATOM     16  C   UNL     1       3.903   5.443  17.547  0.00  0.00    +0.000 A 
ATOM     17  C   UNL     1       3.785   4.225  16.870  0.00  0.00    +0.000 A 
ATOM     18  C   UNL     1       2.814   3.304  17.273  0.00  0.00    +0.000 A 
ENDBRANCH   9  16
ENDBRANCH   1   9
BRANCH   7  19
ATOM     19  C   UNL     1       8.315   7.673  18.228  0.00  0.00    +0.000 C 
BRANCH  19  20
ATOM     20  C   UNL     1       8.054   9.167  18.105  0.00  0.00    +0.000 C 
ATOM     21  O   UNL     1       7.186   9.596  17.360  0.00  0.00    +0.000 OA
ATOM     22  N   UNL     1       8.938   9.951  18.800  0.00  0.00    +0.000 N 
ATOM     23  H   UNL     1       9.476   9.483  19.515  0.00  0.00    +0.000 HD
BRANCH  22  24
ATOM     24  C   UNL     1       9.100  11.432  18.732  0.00  0.00    +0.000 C 
ATOM     25  C   UNL     1       9.850  11.936  17.479  0.00  0.00    +0.000 C 
ATOM     26  C   UNL     1      10.191  13.427  17.539  0.00  0.00    +0.000 C 
ATOM     27  N   UNL     1      10.895  13.799  18.772  0.00  0.00    +0.000 NA
ATOM     28  C   UNL     1      10.114  13.444  19.942  0.00  0.00    +0.000 C 
ATOM     29  C   UNL     1       9.834  11.922  20.025  0.00  0.00    +0.000 C 
ATOM     30  C   UNL     1      11.189  11.171  20.178  0.00  0.00    +0.000 C 
ATOM     31  C   UNL     1       8.936  11.700  21.266  0.00  0.00    +0.000 C 
ATOM     32  H   UNL     1      11.075  14.794  18.763  0.00  0.00    +0.000 HD
ENDBRANCH  22  24
ENDBRANCH  19  20
ENDBRANCH   7  19
TORSDOF 5
ENDMDL
MODEL 5
REMARK VINA RESULT:      -7.7      2.521      4.329
REMARK  Name = 
REMARK  8 active torsions:
REMARK  status: ('A' for Active; 'I' for Inactive)
REMARK    1  A    between atoms: C_1  and  C_2
REMARK    2  A    between atoms: C_5  and  S_6
REMARK    3  A    between atoms: S_6  and  N_9
REMARK    4  A    between atoms: C_15  and  C_16
REMARK    5  A    between atoms: C_16  and  C_17
REMARK    6  A    between atoms: N_19  and  C_20
REMARK    7  A    between atoms: C_25  and  C_26
REMARK    8  A    between atoms: C_25  and  C_27
REMARK                            x       y       z     vdW  Elec       q    Type
REMARK                         _______ _______ _______ _____ _____    ______ ____
ROOT
ATOM      1  N   UNL     1       0.141  11.644  19.741  0.00  0.00    +0.000 N 
ATOM      2  C   UNL     1       0.136  12.802  18.904  0.00  0.00    +0.000 C 
ATOM      3  C   UNL     1      -0.606  12.751  17.796  0.00  0.00    +0.000 C 
ATOM      4  N   UNL     1      -1.413  11.689  17.483  0.00  0.00    +0.000 N 
ATOM      5  C   UNL     1      -1.484  10.542  18.241  0.00  0.00    +0.000 C 
ATOM      6  O   UNL     1      -2.343   9.691  18.010  0.00  0.00    +0.000 OA
ATOM      7  C   UNL     1      -0.339  10.327  19.241  0.00  0.00    +0.000 C 
ATOM      8  H   UNL     1      -2.083  11.772  16.726  0.00  0.00    +0.000 HD
ENDROOT
BRANCH   1   9
ATOM      9  S   UNL     1       0.188  11.937  21.410  0.00  0.00    +0.000 S 
ATOM     10  O   UNL     1       0.826  13.221  21.628  0.00  0.00    +0.000 OA
ATOM     11  O   UNL     1       0.665  10.751  22.093  0.00  0.00    +0.000 OA
BRANCH   9  16
ATOM     12  C   UNL     1      -5.321  13.377  23.428  0.00  0.00    +0.000 C 
ATOM     13  C   UNL     1      -4.048  12.832  22.849  0.00  0.00    +0.000 A 
ATOM     14  C   UNL     1      -3.176  12.080  23.647  0.00  0.00    +0.000 A 
ATOM     15  C   UNL     1      -1.914  11.722  23.171  0.00  0.00    +0.000 A 
ATOM     16  C   UNL     1      -1.524  12.109  21.888  0.00  0.00    +0.000 A 
ATOM     17  C   UNL     1      -2.405  12.811  21.060  0.00  0.00    +0.000 A 
ATOM     18  C   UNL     1      -3.663  13.179  21.547  0.00  0.00    +0.000 A 
ENDBRANCH   9  16
ENDBRANCH   1   9
BRANCH   7  19
ATOM     19  C   UNL     1       0.749   9.590  18.462  0.00  0.00    +0.000 C 
BRANCH  19  20
ATOM     20  C   UNL     1       1.576   8.564  19.224  0.00  0.00    +0.000 C 
ATOM     21  O   UNL     1       1.755   8.668  20.429  0.00  0.00    +0.000 OA
ATOM     22  N   UNL     1       2.170   7.619  18.430  0.00  0.00    +0.000 N 
ATOM     23  H   UNL     1       1.795   7.528  17.495  0.00  0.00    +0.000 HD
BRANCH  22  24
ATOM     24  C   UNL     1       3.199   6.611  18.816  0.00  0.00    +0.000 C 
ATOM     25  C   UNL     1       4.339   6.436  17.788  0.00  0.00    +0.000 C 
ATOM     26  C   UNL     1       5.258   5.251  18.103  0.00  0.00    +0.000 C 
ATOM     27  N   UNL     1       4.519   3.999  18.305  0.00  0.00    +0.000 NA
ATOM     28  C   UNL     1       3.544   4.138  19.370  0.00  0.00    +0.000 C 
ATOM     29  C   UNL     1       2.493   5.237  19.069  0.00  0.00    +0.000 C 
ATOM     30  C   UNL     1       1.683   4.822  17.806  0.00  0.00    +0.000 C 
ATOM     31  C   UNL     1       1.574   5.328  20.310  0.00  0.00    +0.000 C 
ATOM     32  H   UNL     1       5.174   3.262  18.527  0.00  0.00    +0.000 HD
ENDBRANCH  22  24
ENDBRANCH  19  20
ENDBRANCH   7  19
TORSDOF 5
ENDMDL
MODEL 6
REMARK VINA RESULT:      -7.6      2.658      4.755
REMARK  Name = 
REMARK  8 active torsions:
REMARK  status: ('A' for Active; 'I' for Inactive)
REMARK    1  A    between atoms: C_1  and  C_2
REMARK    2  A    between atoms: C_5  and  S_6
REMARK    3  A    between atoms: S_6  and  N_9
REMARK    4  A    between atoms: C_15  and  C_16
REMARK    5  A    between atoms: C_16  and  C_17
REMARK    6  A    between atoms: N_19  and  C_20
REMARK    7  A    between atoms: C_25  and  C_26
REMARK    8  A    between atoms: C_25  and  C_27
REMARK                            x       y       z     vdW  Elec       q    Type
REMARK                         _______ _______ _______ _____ _____    ______ ____
ROOT
ATOM      1  N   UNL     1       0.232  11.464  19.418  0.00  0.00    +0.000 N 
ATOM      2  C   UNL     1       0.289  12.732  18.761  0.00  0.00    +0.000 C 
ATOM      3  C   UNL     1      -0.652  12.990  17.851  0.00  0.00    +0.000 C 
ATOM      4  N   UNL     1      -1.697  12.142  17.592  0.00  0.00    +0.000 N 
ATOM      5  C   UNL     1      -1.841  10.911  18.192  0.00  0.00    +0.000 C 
ATOM      6  O   UNL     1      -2.878  10.263  18.051  0.00  0.00    +0.000 OA
ATOM      7  C   UNL     1      -0.585  10.347  18.873  0.00  0.00    +0.000 C 
ATOM      8  H   UNL     1      -2.474  12.460  17.022  0.00  0.00    +0.000 HD
ENDROOT
BRANCH   1   9
ATOM      9  S   UNL     1       0.664  11.460  21.058  0.00  0.00    +0.000 S 
ATOM     10  O   UNL     1       1.902  12.201  21.204  0.00  0.00    +0.000 OA
ATOM     11  O   UNL     1       0.542  10.115  21.584  0.00  0.00    +0.000 OA
BRANCH   9  16
ATOM     12  C   UNL     1      -3.290  14.307  24.631  0.00  0.00    +0.000 C 
ATOM     13  C   UNL     1      -2.417  13.696  23.573  0.00  0.00    +0.000 A 
ATOM     14  C   UNL     1      -2.709  12.421  23.070  0.00  0.00    +0.000 A 
ATOM     15  C   UNL     1      -1.809  11.775  22.221  0.00  0.00    +0.000 A 
ATOM     16  C   UNL     1      -0.617  12.407  21.866  0.00  0.00    +0.000 A 
ATOM     17  C   UNL     1      -0.340  13.702  22.315  0.00  0.00    +0.000 A 
ATOM     18  C   UNL     1      -1.238  14.339  23.176  0.00  0.00    +0.000 A 
ENDBRANCH   9  16
ENDBRANCH   1   9
BRANCH   7  19
ATOM     19  C   UNL     1       0.162   9.583  17.781  0.00  0.00    +0.000 C 
BRANCH  19  20
ATOM     20  C   UNL     1       1.608   9.202  18.063  0.00  0.00    +0.000 C 
ATOM     21  O   UNL     1       2.513  10.010  17.915  0.00  0.00    +0.000 OA
ATOM     22  N   UNL     1       1.790   7.880  18.374  0.00  0.00    +0.000 N 
ATOM     23  H   UNL     1       0.961   7.372  18.648  0.00  0.00    +0.000 HD
BRANCH  22  24
ATOM     24  C   UNL     1       3.076   7.136  18.499  0.00  0.00    +0.000 C 
ATOM     25  C   UNL     1       3.954   7.160  17.227  0.00  0.00    +0.000 C 
ATOM     26  C   UNL     1       5.157   6.216  17.307  0.00  0.00    +0.000 C 
ATOM     27  N   UNL     1       4.781   4.846  17.674  0.00  0.00    +0.000 NA
ATOM     28  C   UNL     1       4.076   4.824  18.943  0.00  0.00    +0.000 C 
ATOM     29  C   UNL     1       2.769   5.656  18.906  0.00  0.00    +0.000 C 
ATOM     30  C   UNL     1       1.797   5.016  17.873  0.00  0.00    +0.000 C 
ATOM     31  C   UNL     1       2.170   5.608  20.332  0.00  0.00    +0.000 C 
ATOM     32  H   UNL     1       5.615   4.278  17.730  0.00  0.00    +0.000 HD
ENDBRANCH  22  24
ENDBRANCH  19  20
ENDBRANCH   7  19
TORSDOF 5
ENDMDL
MODEL 7
REMARK VINA RESULT:      -7.6      3.221      7.989
REMARK  Name = 
REMARK  8 active torsions:
REMARK  status: ('A' for Active; 'I' for Inactive)
REMARK    1  A    between atoms: C_1  and  C_2
REMARK    2  A    between atoms: C_5  and  S_6
REMARK    3  A    between atoms: S_6  and  N_9
REMARK    4  A    between atoms: C_15  and  C_16
REMARK    5  A    between atoms: C_16  and  C_17
REMARK    6  A    between atoms: N_19  and  C_20
REMARK    7  A    between atoms: C_25  and  C_26
REMARK    8  A    between atoms: C_25  and  C_27
REMARK                            x       y       z     vdW  Elec       q    Type
REMARK                         _______ _______ _______ _____ _____    ______ ____
ROOT
ATOM      1  N   UNL     1       3.499   4.887  19.268  0.00  0.00    +0.000 N 
ATOM      2  C   UNL     1       2.994   4.970  20.603  0.00  0.00    +0.000 C 
ATOM      3  C   UNL     1       1.754   4.524  20.815  0.00  0.00    +0.000 C 
ATOM      4  N   UNL     1       0.998   3.924  19.843  0.00  0.00    +0.000 N 
ATOM      5  C   UNL     1       1.412   3.785  18.537  0.00  0.00    +0.000 C 
ATOM      6  O   UNL     1       0.770   3.094  17.746  0.00  0.00    +0.000 OA
ATOM      7  C   UNL     1       2.591   4.673  18.110  0.00  0.00    +0.000 C 
ATOM      8  H   UNL     1       0.137   3.450  20.096  0.00  0.00    +0.000 HD
ENDROOT
BRANCH   1   9
ATOM      9  S   UNL     1       5.144   4.503  19.122  0.00  0.00    +0.000 S 
ATOM     10  O   UNL     1       5.312   3.097  19.434  0.00  0.00    +0.000 OA
ATOM     11  O   UNL     1       5.935   5.510  19.802  0.00  0.00    +0.000 OA
BRANCH   9  16
ATOM     12  C   UNL     1       7.251   4.822  13.469  0.00  0.00    +0.000 C 
ATOM     13  C   UNL     1       6.539   4.830  14.790  0.00  0.00    +0.000 A 
ATOM     14  C   UNL     1       6.679   5.919  15.660  0.00  0.00    +0.000 A 
ATOM     15  C   UNL     1       6.167   5.857  16.957  0.00  0.00    +0.000 A 
ATOM     16  C   UNL     1       5.504   4.706  17.385  0.00  0.00    +0.000 A 
ATOM     17  C   UNL     1       5.307   3.634  16.509  0.00  0.00    +0.000 A 
ATOM     18  C   UNL     1       5.834   3.696  15.215  0.00  0.00    +0.000 A 
ENDBRANCH   9  16
ENDBRANCH   1   9
BRANCH   7  19
ATOM     19  C   UNL     1       1.963   5.983  17.636  0.00  0.00    +0.000 C 
BRANCH  19  20
ATOM     20  C   UNL     1       2.381   7.256  18.357  0.00  0.00    +0.000 C 
ATOM     21  O   UNL     1       3.509   7.709  18.233  0.00  0.00    +0.000 OA
ATOM     22  N   UNL     1       1.435   7.751  19.216  0.00  0.00    +0.000 N 
ATOM     23  H   UNL     1       0.495   7.404  19.086  0.00  0.00    +0.000 HD
BRANCH  22  24
ATOM     24  C   UNL     1       1.590   8.842  20.221  0.00  0.00    +0.000 C 
ATOM     25  C   UNL     1       1.075   8.487  21.634  0.00  0.00    +0.000 C 
ATOM     26  C   UNL     1       1.047   9.687  22.584  0.00  0.00    +0.000 C 
ATOM     27  N   UNL     1       0.327  10.837  22.024  0.00  0.00    +0.000 NA
ATOM     28  C   UNL     1       0.909  11.248  20.760  0.00  0.00    +0.000 C 
ATOM     29  C   UNL     1       0.860  10.123  19.695  0.00  0.00    +0.000 C 
ATOM     30  C   UNL     1      -0.629   9.791  19.386  0.00  0.00    +0.000 C 
ATOM     31  C   UNL     1       1.578  10.668  18.437  0.00  0.00    +0.000 C 
ATOM     32  H   UNL     1       0.359  11.601  22.686  0.00  0.00    +0.000 HD
ENDBRANCH  22  24
ENDBRANCH  19  20
ENDBRANCH   7  19
TORSDOF 5
ENDMDL
MODEL 8
REMARK VINA RESULT:      -7.5      3.289      8.299
REMARK  Name = 
REMARK  8 active torsions:
REMARK  status: ('A' for Active; 'I' for Inactive)
REMARK    1  A    between atoms: C_1  and  C_2
REMARK    2  A    between atoms: C_5  and  S_6
REMARK    3  A    between atoms: S_6  and  N_9
REMARK    4  A    between atoms: C_15  and  C_16
REMARK    5  A    between atoms: C_16  and  C_17
REMARK    6  A    between atoms: N_19  and  C_20
REMARK    7  A    between atoms: C_25  and  C_26
REMARK    8  A    between atoms: C_25  and  C_27
REMARK                            x       y       z     vdW  Elec       q    Type
REMARK                         _______ _______ _______ _____ _____    ______ ____
ROOT
ATOM      1  N   UNL     1       3.629   4.683  19.576  0.00  0.00    +0.000 N 
ATOM      2  C   UNL     1       3.008   3.793  20.506  0.00  0.00    +0.000 C 
ATOM      3  C   UNL     1       1.752   3.422  20.250  0.00  0.00    +0.000 C 
ATOM      4  N   UNL     1       1.082   3.783  19.110  0.00  0.00    +0.000 N 
ATOM      5  C   UNL     1       1.609   4.619  18.153  0.00  0.00    +0.000 C 
ATOM      6  O   UNL     1       1.036   4.778  17.075  0.00  0.00    +0.000 OA
ATOM      7  C   UNL     1       2.825   5.451  18.587  0.00  0.00    +0.000 C 
ATOM      8  H   UNL     1       0.200   3.336  18.882  0.00  0.00    +0.000 HD
ENDROOT
BRANCH   1   9
ATOM      9  S   UNL     1       5.279   4.418  19.287  0.00  0.00    +0.000 S 
ATOM     10  O   UNL     1       5.584   3.041  19.625  0.00  0.00    +0.000 OA
ATOM     11  O   UNL     1       6.047   5.506  19.859  0.00  0.00    +0.000 OA
BRANCH   9  16
ATOM     12  C   UNL     1       6.684   4.388  13.412  0.00  0.00    +0.000 C 
ATOM     13  C   UNL     1       6.165   4.530  14.813  0.00  0.00    +0.000 A 
ATOM     14  C   UNL     1       6.682   5.519  15.659  0.00  0.00    +0.000 A 
ATOM     15  C   UNL     1       6.335   5.545  17.011  0.00  0.00    +0.000 A 
ATOM     16  C   UNL     1       5.461   4.583  17.518  0.00  0.00    +0.000 A 
ATOM     17  C   UNL     1       4.894   3.624  16.673  0.00  0.00    +0.000 A 
ATOM     18  C   UNL     1       5.255   3.595  15.323  0.00  0.00    +0.000 A 
ENDBRANCH   9  16
ENDBRANCH   1   9
BRANCH   7  19
ATOM     19  C   UNL     1       2.249   6.727  19.199  0.00  0.00    +0.000 C 
BRANCH  19  20
ATOM     20  C   UNL     1       2.172   7.955  18.302  0.00  0.00    +0.000 C 
ATOM     21  O   UNL     1       2.958   8.111  17.380  0.00  0.00    +0.000 OA
ATOM     22  N   UNL     1       1.243   8.882  18.697  0.00  0.00    +0.000 N 
ATOM     23  H   UNL     1       0.540   8.554  19.344  0.00  0.00    +0.000 HD
BRANCH  22  24
ATOM     24  C   UNL     1       1.054  10.267  18.180  0.00  0.00    +0.000 C 
ATOM     25  C   UNL     1       2.176  11.254  18.575  0.00  0.00    +0.000 C 
ATOM     26  C   UNL     1       1.852  12.708  18.219  0.00  0.00    +0.000 C 
ATOM     27  N   UNL     1       0.549  13.142  18.736  0.00  0.00    +0.000 NA
ATOM     28  C   UNL     1      -0.515  12.286  18.245  0.00  0.00    +0.000 C 
ATOM     29  C   UNL     1      -0.329  10.808  18.674  0.00  0.00    +0.000 C 
ATOM     30  C   UNL     1      -0.403  10.725  20.227  0.00  0.00    +0.000 C 
ATOM     31  C   UNL     1      -1.481  10.006  18.022  0.00  0.00    +0.000 C 
ATOM     32  H   UNL     1       0.383  14.099  18.454  0.00  0.00    +0.000 HD
ENDBRANCH  22  24
ENDBRANCH  19  20
ENDBRANCH   7  19
TORSDOF 5
ENDMDL
MODEL 9
REMARK VINA RESULT:      -7.5      4.129      8.580
REMARK  Name = 
REMARK  8 active torsions:
REMARK  status: ('A' for Active; 'I' for Inactive)
REMARK    1  A    between atoms: C_1  and  C_2
REMARK    2  A    between atoms: C_5  and  S_6
REMARK    3  A    between atoms: S_6  and  N_9
REMARK    4  A    between atoms: C_15  and  C_16
REMARK    5  A    between atoms: C_16  and  C_17
REMARK    6  A    between atoms: N_19  and  C_20
REMARK    7  A    between atoms: C_25  and  C_26
REMARK    8  A    between atoms: C_25  and  C_27
REMARK                            x       y       z     vdW  Elec       q    Type
REMARK                         _______ _______ _______ _____ _____    ______ ____
ROOT
ATOM      1  N   UNL     1       4.577   5.213  18.034  0.00  0.00    +0.000 N 
ATOM      2  C   UNL     1       4.849   4.335  19.129  0.00  0.00    +0.000 C 
ATOM      3  C   UNL     1       3.813   3.683  19.660  0.00  0.00    +0.000 C 
ATOM      4  N   UNL     1       2.543   3.753  19.150  0.00  0.00    +0.000 N 
ATOM      5  C   UNL     1       2.196   4.556  18.088  0.00  0.00    +0.000 C 
ATOM      6  O   UNL     1       1.085   4.458  17.565  0.00  0.00    +0.000 OA
ATOM      7  C   UNL     1       3.194   5.669  17.735  0.00  0.00    +0.000 C 
ATOM      8  H   UNL     1       1.832   3.108  19.480  0.00  0.00    +0.000 HD
ENDROOT
BRANCH   1   9
ATOM      9  S   UNL     1       5.756   5.262  16.816  0.00  0.00    +0.000 S 
ATOM     10  O   UNL     1       5.142   5.789  15.612  0.00  0.00    +0.000 OA
ATOM     11  O   UNL     1       6.472   4.002  16.789  0.00  0.00    +0.000 OA
BRANCH   9  16
ATOM     12  C   UNL     1       9.044   9.660  19.334  0.00  0.00    +0.000 C 
ATOM     13  C   UNL     1       8.408   8.526  18.584  0.00  0.00    +0.000 A 
ATOM     14  C   UNL     1       7.649   8.780  17.434  0.00  0.00    +0.000 A 
ATOM     15  C   UNL     1       6.912   7.758  16.834  0.00  0.00    +0.000 A 
ATOM     16  C   UNL     1       6.940   6.474  17.380  0.00  0.00    +0.000 A 
ATOM     17  C   UNL     1       7.737   6.194  18.494  0.00  0.00    +0.000 A 
ATOM     18  C   UNL     1       8.463   7.224  19.098  0.00  0.00    +0.000 A 
ENDBRANCH   9  16
ENDBRANCH   1   9
BRANCH   7  19
ATOM     19  C   UNL     1       2.794   6.863  18.601  0.00  0.00    +0.000 C 
BRANCH  19  20
ATOM     20  C   UNL     1       2.433   8.154  17.881  0.00  0.00    +0.000 C 
ATOM     21  O   UNL     1       2.997   8.478  16.846  0.00  0.00    +0.000 OA
ATOM     22  N   UNL     1       1.531   8.939  18.552  0.00  0.00    +0.000 N 
ATOM     23  H   UNL     1       1.006   8.481  19.283  0.00  0.00    +0.000 HD
BRANCH  22  24
ATOM     24  C   UNL     1       1.125  10.339  18.241  0.00  0.00    +0.000 C 
ATOM     25  C   UNL     1       1.947  11.420  18.979  0.00  0.00    +0.000 C 
ATOM     26  C   UNL     1       1.374  12.831  18.812  0.00  0.00    +0.000 C 
ATOM     27  N   UNL     1      -0.050  12.909  19.159  0.00  0.00    +0.000 NA
ATOM     28  C   UNL     1      -0.830  11.984  18.358  0.00  0.00    +0.000 C 
ATOM     29  C   UNL     1      -0.396  10.511  18.569  0.00  0.00    +0.000 C 
ATOM     30  C   UNL     1      -0.663  10.116  20.050  0.00  0.00    +0.000 C 
ATOM     31  C   UNL     1      -1.250   9.652  17.605  0.00  0.00    +0.000 C 
ATOM     32  H   UNL     1      -0.374  13.855  19.011  0.00  0.00    +0.000 HD
ENDBRANCH  22  24
ENDBRANCH  19  20
ENDBRANCH   7  19
TORSDOF 5
ENDMDL
