MODEL 1
REMARK VINA RESULT:      -6.8      0.000      0.000
REMARK  Name = 
REMARK  0 active torsions:
REMARK  status: ('A' for Active; 'I' for Inactive)
REMARK                            x       y       z     vdW  Elec       q    Type
REMARK                         _______ _______ _______ _____ _____    ______ ____
ROOT
ATOM      1  C   UNL     1       7.834   6.826  18.163  0.00  0.00    +0.000 A 
ATOM      2  C   UNL     1       6.688   7.053  17.419  0.00  0.00    +0.000 A 
ATOM      3  C   UNL     1       5.550   6.287  17.672  0.00  0.00    +0.000 A 
ATOM      4  C   UNL     1       5.572   5.301  18.659  0.00  0.00    +0.000 A 
ATOM      5  N   UNL     1       4.485   4.508  18.906  0.00  0.00    +0.000 N 
ATOM      6  C   UNL     1       4.568   3.398  19.845  0.00  0.00    +0.000 C 
ATOM      7  C   UNL     1       3.283   2.633  19.569  0.00  0.00    +0.000 C 
ATOM      8  C   UNL     1       3.324   1.777  18.312  0.00  0.00    +0.000 C 
ATOM      9  N   UNL     1       1.939   1.756  17.824  0.00  0.00    +0.000 NA
ATOM     10  C   UNL     1       1.294   2.993  18.292  0.00  0.00    +0.000 C 
ATOM     11  C   UNL     1       2.269   3.709  19.210  0.00  0.00    +0.000 C 
ATOM     12  C   UNL     1       3.113   4.800  18.524  0.00  0.00    +0.000 C 
ATOM     13  N   UNL     1       6.697   5.078  19.375  0.00  0.00    +0.000 NA
ATOM     14  C   UNL     1       7.788   5.835  19.122  0.00  0.00    +0.000 A 
ATOM     15  H   UNL     1       1.457   0.958  18.238  0.00  0.00    +0.000 HD
ENDROOT
TORSDOF 0
ENDMDL
MODEL 2
REMARK VINA RESULT:      -6.7      2.109      2.641
REMARK  Name = 
REMARK  0 active torsions:
REMARK  status: ('A' for Active; 'I' for Inactive)
REMARK                            x       y       z     vdW  Elec       q    Type
REMARK                         _______ _______ _______ _____ _____    ______ ____
ROOT
ATOM      1  C   UNL     1       5.599   5.836  15.268  0.00  0.00    +0.000 A 
ATOM      2  C   UNL     1       5.115   6.570  16.339  0.00  0.00    +0.000 A 
ATOM      3  C   UNL     1       4.470   5.905  17.383  0.00  0.00    +0.000 A 
ATOM      4  C   UNL     1       4.310   4.520  17.341  0.00  0.00    +0.000 A 
ATOM      5  N   UNL     1       3.650   3.844  18.329  0.00  0.00    +0.000 N 
ATOM      6  C   UNL     1       3.375   2.419  18.205  0.00  0.00    +0.000 C 
ATOM      7  C   UNL     1       2.383   2.173  19.331  0.00  0.00    +0.000 C 
ATOM      8  C   UNL     1       0.965   2.632  19.025  0.00  0.00    +0.000 C 
ATOM      9  N   UNL     1       0.402   3.012  20.327  0.00  0.00    +0.000 NA
ATOM     10  C   UNL     1       1.526   3.414  21.187  0.00  0.00    +0.000 C 
ATOM     11  C   UNL     1       2.815   3.128  20.435  0.00  0.00    +0.000 C 
ATOM     12  C   UNL     1       3.396   4.335  19.675  0.00  0.00    +0.000 C 
ATOM     13  N   UNL     1       4.776   3.812  16.288  0.00  0.00    +0.000 NA
ATOM     14  C   UNL     1       5.405   4.469  15.290  0.00  0.00    +0.000 A 
ATOM     15  H   UNL     1      -0.052   2.197  20.739  0.00  0.00    +0.000 HD
ENDROOT
TORSDOF 0
ENDMDL
MODEL 3
REMARK VINA RESULT:      -6.7      1.942      5.119
REMARK  Name = 
REMARK  0 active torsions:
REMARK  status: ('A' for Active; 'I' for Inactive)
REMARK                            x       y       z     vdW  Elec       q    Type
REMARK                         _______ _______ _______ _____ _____    ______ ____
ROOT
ATOM      1  C   UNL     1       1.024   2.934  20.669  0.00  0.00    +0.000 A 
ATOM      2  C   UNL     1       0.866   2.766  19.304  0.00  0.00    +0.000 A 
ATOM      3  C   UNL     1       1.878   3.193  18.444  0.00  0.00    +0.000 A 
ATOM      4  C   UNL     1       3.031   3.789  18.957  0.00  0.00    +0.000 A 
ATOM      5  N   UNL     1       4.024   4.251  18.140  0.00  0.00    +0.000 N 
ATOM      6  C   UNL     1       5.157   4.989  18.683  0.00  0.00    +0.000 C 
ATOM      7  C   UNL     1       5.809   5.563  17.435  0.00  0.00    +0.000 C 
ATOM      8  C   UNL     1       5.095   6.776  16.859  0.00  0.00    +0.000 C 
ATOM      9  N   UNL     1       5.345   6.712  15.413  0.00  0.00    +0.000 NA
ATOM     10  C   UNL     1       5.559   5.297  15.071  0.00  0.00    +0.000 C 
ATOM     11  C   UNL     1       5.584   4.503  16.366  0.00  0.00    +0.000 C 
ATOM     12  C   UNL     1       4.238   3.864  16.754  0.00  0.00    +0.000 C 
ATOM     13  N   UNL     1       3.174   3.958  20.290  0.00  0.00    +0.000 NA
ATOM     14  C   UNL     1       2.188   3.532  21.110  0.00  0.00    +0.000 A 
ATOM     15  H   UNL     1       6.197   7.232  15.204  0.00  0.00    +0.000 HD
ENDROOT
TORSDOF 0
ENDMDL
MODEL 4
REMARK VINA RESULT:      -6.7      2.411      3.104
REMARK  Name = 
REMARK  0 active torsions:
REMARK  status: ('A' for Active; 'I' for Inactive)
REMARK                            x       y       z     vdW  Elec       q    Type
REMARK                         _______ _______ _______ _____ _____    ______ ____
ROOT
ATOM      1  C   UNL     1       5.613   5.669  15.558  0.00  0.00    +0.000 A 
ATOM      2  C   UNL     1       5.283   4.338  15.747  0.00  0.00    +0.000 A 
ATOM      3  C   UNL     1       4.343   4.002  16.722  0.00  0.00    +0.000 A 
ATOM      4  C   UNL     1       3.751   4.998  17.500  0.00  0.00    +0.000 A 
ATOM      5  N   UNL     1       2.854   4.698  18.488  0.00  0.00    +0.000 N 
ATOM      6  C   UNL     1       2.348   5.735  19.378  0.00  0.00    +0.000 C 
ATOM      7  C   UNL     1       1.667   4.929  20.473  0.00  0.00    +0.000 C 
ATOM      8  C   UNL     1       2.625   4.313  21.482  0.00  0.00    +0.000 C 
ATOM      9  N   UNL     1       1.964   3.079  21.926  0.00  0.00    +0.000 NA
ATOM     10  C   UNL     1       1.086   2.637  20.831  0.00  0.00    +0.000 C 
ATOM     11  C   UNL     1       1.105   3.710  19.756  0.00  0.00    +0.000 C 
ATOM     12  C   UNL     1       2.106   3.457  18.614  0.00  0.00    +0.000 C 
ATOM     13  N   UNL     1       4.085   6.294  17.317  0.00  0.00    +0.000 NA
ATOM     14  C   UNL     1       4.991   6.603  16.363  0.00  0.00    +0.000 A 
ATOM     15  H   UNL     1       1.389   3.290  22.742  0.00  0.00    +0.000 HD
ENDROOT
TORSDOF 0
ENDMDL
MODEL 5
REMARK VINA RESULT:      -6.7      1.156      1.221
REMARK  Name = 
REMARK  0 active torsions:
REMARK  status: ('A' for Active; 'I' for Inactive)
REMARK                            x       y       z     vdW  Elec       q    Type
REMARK                         _______ _______ _______ _____ _____    ______ ____
ROOT
ATOM      1  C   UNL     1       7.290   6.221  17.067  0.00  0.00    +0.000 A 
ATOM      2  C   UNL     1       6.063   6.857  17.144  0.00  0.00    +0.000 A 
ATOM      3  C   UNL     1       5.025   6.248  17.853  0.00  0.00    +0.000 A 
ATOM      4  C   UNL     1       5.225   5.012  18.468  0.00  0.00    +0.000 A 
ATOM      5  N   UNL     1       4.219   4.373  19.137  0.00  0.00    +0.000 N 
ATOM      6  C   UNL     1       4.405   3.025  19.658  0.00  0.00    +0.000 C 
ATOM      7  C   UNL     1       2.988   2.609  20.019  0.00  0.00    +0.000 C 
ATOM      8  C   UNL     1       2.135   2.199  18.828  0.00  0.00    +0.000 C 
ATOM      9  N   UNL     1       0.762   2.561  19.203  0.00  0.00    +0.000 NA
ATOM     10  C   UNL     1       0.852   3.676  20.159  0.00  0.00    +0.000 C 
ATOM     11  C   UNL     1       2.320   3.896  20.483  0.00  0.00    +0.000 C 
ATOM     12  C   UNL     1       3.005   4.993  19.646  0.00  0.00    +0.000 C 
ATOM     13  N   UNL     1       6.423   4.393  18.380  0.00  0.00    +0.000 NA
ATOM     14  C   UNL     1       7.420   5.000  17.697  0.00  0.00    +0.000 A 
ATOM     15  H   UNL     1       0.328   1.764  19.668  0.00  0.00    +0.000 HD
ENDROOT
TORSDOF 0
ENDMDL
MODEL 6
REMARK VINA RESULT:      -6.7      1.502      5.374
REMARK  Name = 
REMARK  0 active torsions:
REMARK  status: ('A' for Active; 'I' for Inactive)
REMARK                            x       y       z     vdW  Elec       q    Type
REMARK                         _______ _______ _______ _____ _____    ______ ____
ROOT
ATOM      1  C   UNL     1       1.555   3.159  18.151  0.00  0.00    +0.000 A 
ATOM      2  C   UNL     1       1.613   4.541  18.181  0.00  0.00    +0.000 A 
ATOM      3  C   UNL     1       2.838   5.176  17.966  0.00  0.00    +0.000 A 
ATOM      4  C   UNL     1       3.988   4.422  17.732  0.00  0.00    +0.000 A 
ATOM      5  N   UNL     1       5.209   5.012  17.555  0.00  0.00    +0.000 N 
ATOM      6  C   UNL     1       6.419   4.208  17.445  0.00  0.00    +0.000 C 
ATOM      7  C   UNL     1       7.521   5.247  17.583  0.00  0.00    +0.000 C 
ATOM      8  C   UNL     1       7.770   5.708  19.011  0.00  0.00    +0.000 C 
ATOM      9  N   UNL     1       8.228   7.097  18.886  0.00  0.00    +0.000 NA
ATOM     10  C   UNL     1       7.655   7.634  17.641  0.00  0.00    +0.000 C 
ATOM     11  C   UNL     1       6.954   6.494  16.922  0.00  0.00    +0.000 C 
ATOM     12  C   UNL     1       5.440   6.401  17.189  0.00  0.00    +0.000 C 
ATOM     13  N   UNL     1       3.926   3.072  17.714  0.00  0.00    +0.000 NA
ATOM     14  C   UNL     1       2.731   2.474  17.915  0.00  0.00    +0.000 A 
ATOM     15  H   UNL     1       9.245   7.102  18.808  0.00  0.00    +0.000 HD
ENDROOT
TORSDOF 0
ENDMDL
MODEL 7
REMARK VINA RESULT:      -6.6      1.667      5.286
REMARK  Name = 
REMARK  0 active torsions:
REMARK  status: ('A' for Active; 'I' for Inactive)
REMARK                            x       y       z     vdW  Elec       q    Type
REMARK                         _______ _______ _______ _____ _____    ______ ____
ROOT
ATOM      1  C   UNL     1       0.749   3.093  19.999  0.00  0.00    +0.000 A 
ATOM      2  C   UNL     1       1.282   4.299  20.423  0.00  0.00    +0.000 A 
ATOM      3  C   UNL     1       2.299   4.893  19.676  0.00  0.00    +0.000 A 
ATOM      4  C   UNL     1       2.776   4.273  18.520  0.00  0.00    +0.000 A 
ATOM      5  N   UNL     1       3.797   4.811  17.786  0.00  0.00    +0.000 N 
ATOM      6  C   UNL     1       4.372   4.086  16.661  0.00  0.00    +0.000 C 
ATOM      7  C   UNL     1       5.634   4.881  16.364  0.00  0.00    +0.000 C 
ATOM      8  C   UNL     1       6.782   4.612  17.325  0.00  0.00    +0.000 C 
ATOM      9  N   UNL     1       7.530   5.874  17.381  0.00  0.00    +0.000 NA
ATOM     10  C   UNL     1       6.582   6.957  17.077  0.00  0.00    +0.000 C 
ATOM     11  C   UNL     1       5.260   6.322  16.681  0.00  0.00    +0.000 C 
ATOM     12  C   UNL     1       4.239   6.196  17.828  0.00  0.00    +0.000 C 
ATOM     13  N   UNL     1       2.258   3.092  18.118  0.00  0.00    +0.000 NA
ATOM     14  C   UNL     1       1.268   2.534  18.849  0.00  0.00    +0.000 A 
ATOM     15  H   UNL     1       8.254   5.859  16.662  0.00  0.00    +0.000 HD
ENDROOT
TORSDOF 0
ENDMDL
MODEL 8
REMARK VINA RESULT:      -6.5      1.479      2.337
REMARK  Name = 
REMARK  0 active torsions:
REMARK  status: ('A' for Active; 'I' for Inactive)
REMARK                            x       y       z     vdW  Elec       q    Type
REMARK                         _______ _______ _______ _____ _____    ______ ____
ROOT
ATOM      1  C   UNL     1       7.411   6.828  17.859  0.00  0.00    +0.000 A 
ATOM      2  C   UNL     1       7.453   5.812  18.798  0.00  0.00    +0.000 A 
ATOM      3  C   UNL     1       6.310   5.042  19.019  0.00  0.00    +0.000 A 
ATOM      4  C   UNL     1       5.140   5.300  18.304  0.00  0.00    +0.000 A 
ATOM      5  N   UNL     1       3.994   4.588  18.523  0.00  0.00    +0.000 N 
ATOM      6  C   UNL     1       2.747   4.958  17.867  0.00  0.00    +0.000 C 
ATOM      7  C   UNL     1       1.717   4.134  18.623  0.00  0.00    +0.000 C 
ATOM      8  C   UNL     1       1.346   4.697  19.987  0.00  0.00    +0.000 C 
ATOM      9  N   UNL     1       1.009   3.522  20.801  0.00  0.00    +0.000 NA
ATOM     10  C   UNL     1       1.755   2.380  20.248  0.00  0.00    +0.000 C 
ATOM     11  C   UNL     1       2.445   2.845  18.977  0.00  0.00    +0.000 C 
ATOM     12  C   UNL     1       3.909   3.286  19.166  0.00  0.00    +0.000 C 
ATOM     13  N   UNL     1       5.104   6.300  17.396  0.00  0.00    +0.000 NA
ATOM     14  C   UNL     1       6.222   7.031  17.188  0.00  0.00    +0.000 A 
ATOM     15  H   UNL     1       0.010   3.336  20.712  0.00  0.00    +0.000 HD
ENDROOT
TORSDOF 0
ENDMDL
MODEL 9
REMARK VINA RESULT:      -6.5      1.977      5.141
REMARK  Name = 
REMARK  0 active torsions:
REMARK  status: ('A' for Active; 'I' for Inactive)
REMARK                            x       y       z     vdW  Elec       q    Type
REMARK                         _______ _______ _______ _____ _____    ______ ____
ROOT
ATOM      1  C   UNL     1       1.174   2.992  21.125  0.00  0.00    +0.000 A 
ATOM      2  C   UNL     1       2.475   2.542  21.268  0.00  0.00    +0.000 A 
ATOM      3  C   UNL     1       3.470   3.062  20.439  0.00  0.00    +0.000 A 
ATOM      4  C   UNL     1       3.151   4.019  19.474  0.00  0.00    +0.000 A 
ATOM      5  N   UNL     1       4.095   4.521  18.622  0.00  0.00    +0.000 N 
ATOM      6  C   UNL     1       3.721   5.416  17.536  0.00  0.00    +0.000 C 
ATOM      7  C   UNL     1       4.984   5.457  16.689  0.00  0.00    +0.000 C 
ATOM      8  C   UNL     1       5.189   4.229  15.815  0.00  0.00    +0.000 C 
ATOM      9  N   UNL     1       6.646   4.086  15.700  0.00  0.00    +0.000 NA
ATOM     10  C   UNL     1       7.239   4.690  16.904  0.00  0.00    +0.000 C 
ATOM     11  C   UNL     1       6.121   5.346  17.695  0.00  0.00    +0.000 C 
ATOM     12  C   UNL     1       5.535   4.475  18.823  0.00  0.00    +0.000 C 
ATOM     13  N   UNL     1       1.877   4.446  19.334  0.00  0.00    +0.000 NA
ATOM     14  C   UNL     1       0.927   3.938  20.151  0.00  0.00    +0.000 A 
ATOM     15  H   UNL     1       6.964   4.606  14.882  0.00  0.00    +0.000 HD
ENDROOT
TORSDOF 0
ENDMDL
