MODEL 1
REMARK VINA RESULT:      -8.8      0.000      0.000
REMARK  Name = 
REMARK  6 active torsions:
REMARK  status: ('A' for Active; 'I' for Inactive)
REMARK    1  A    between atoms: C_2  and  O_3
REMARK    2  A    between atoms: C_2  and  C_4
REMARK    3  A    between atoms: C_4  and  C_5
REMARK    4  A    between atoms: C_7  and  C_8
REMARK    5  A    between atoms: N_11  and  S_12
REMARK    6  A    between atoms: S_12  and  C_15
REMARK                            x       y       z     vdW  Elec       q    Type
REMARK                         _______ _______ _______ _____ _____    ______ ____
ROOT
ATOM      1  C   UNL     1       1.233  10.165  19.117  0.00  0.00    +0.000 C 
ATOM      2  C   UNL     1       2.069   9.709  17.889  0.00  0.00    +0.000 C 
ATOM      3  C   UNL     1       2.170   8.193  17.670  0.00  0.00    +0.000 C 
ATOM      4  N   UNL     1       2.533   7.477  18.923  0.00  0.00    +0.000 NA
ATOM      5  C   UNL     1       1.590   7.802  20.025  0.00  0.00    +0.000 C 
ATOM      6  C   UNL     1       1.619   9.290  20.320  0.00  0.00    +0.000 C 
ENDROOT
BRANCH   1   9
ATOM      7  C   UNL     1      -2.305  10.137  17.561  0.00  0.00    +0.000 A 
ATOM      8  C   UNL     1      -0.979   9.795  17.877  0.00  0.00    +0.000 A 
ATOM      9  C   UNL     1      -0.281  10.415  18.933  0.00  0.00    +0.000 A 
ATOM     10  C   UNL     1      -0.983  11.399  19.726  0.00  0.00    +0.000 A 
ATOM     11  C   UNL     1      -0.420  12.142  20.791  0.00  0.00    +0.000 A 
ATOM     12  C   UNL     1      -1.158  13.078  21.519  0.00  0.00    +0.000 A 
ATOM     13  F   UNL     1      -0.575  13.732  22.532  0.00  0.00    +0.000 F 
ATOM     14  C   UNL     1      -2.476  13.349  21.206  0.00  0.00    +0.000 A 
ATOM     15  C   UNL     1      -3.067  12.655  20.158  0.00  0.00    +0.000 A 
ATOM     16  C   UNL     1      -2.345  11.694  19.423  0.00  0.00    +0.000 A 
ATOM     17  C   UNL     1      -2.982  11.061  18.355  0.00  0.00    +0.000 A 
BRANCH   7  18
ATOM     18  C   UNL     1      -2.981   9.567  16.332  0.00  0.00    +0.000 C 
BRANCH  18  20
ATOM     19  O   UNL     1      -2.628  10.023  13.993  0.00  0.00    +0.000 OA
ATOM     20  C   UNL     1      -2.930  10.450  15.100  0.00  0.00    +0.000 C 
BRANCH  20  21
ATOM     21  O   UNL     1      -3.307  11.735  15.279  0.00  0.00    +0.000 OA
ATOM     22  H   UNL     1      -3.236  12.297  14.483  0.00  0.00    +0.000 HD
ENDBRANCH  20  21
ENDBRANCH  18  20
ENDBRANCH   7  18
ENDBRANCH   1   9
BRANCH   4  23
ATOM     23  S   UNL     1       2.704   5.767  18.754  0.00  0.00    +0.000 S 
ATOM     24  O   UNL     1       2.703   5.161  20.069  0.00  0.00    +0.000 OA
ATOM     25  O   UNL     1       1.723   5.357  17.768  0.00  0.00    +0.000 OA
BRANCH  23  26
ATOM     26  C   UNL     1       4.309   5.517  18.059  0.00  0.00    +0.000 A 
ATOM     27  C   UNL     1       5.194   6.606  18.044  0.00  0.00    +0.000 A 
ATOM     28  C   UNL     1       6.436   6.482  17.428  0.00  0.00    +0.000 A 
ATOM     29 CL   UNL     1       7.518   7.817  17.407  0.00  0.00    +0.000 Cl
ATOM     30  C   UNL     1       6.801   5.285  16.820  0.00  0.00    +0.000 A 
ATOM     31  C   UNL     1       5.915   4.204  16.828  0.00  0.00    +0.000 A 
ATOM     32  C   UNL     1       4.661   4.312  17.443  0.00  0.00    +0.000 A 
ATOM     33 CL   UNL     1       3.649   2.919  17.393  0.00  0.00    +0.000 Cl
ENDBRANCH  23  26
ENDBRANCH   4  23
TORSDOF 6
ENDMDL
MODEL 2
REMARK VINA RESULT:      -7.5      4.347      8.954
REMARK  Name = 
REMARK  6 active torsions:
REMARK  status: ('A' for Active; 'I' for Inactive)
REMARK    1  A    between atoms: C_2  and  O_3
REMARK    2  A    between atoms: C_2  and  C_4
REMARK    3  A    between atoms: C_4  and  C_5
REMARK    4  A    between atoms: C_7  and  C_8
REMARK    5  A    between atoms: N_11  and  S_12
REMARK    6  A    between atoms: S_12  and  C_15
REMARK                            x       y       z     vdW  Elec       q    Type
REMARK                         _______ _______ _______ _____ _____    ______ ____
ROOT
ATOM      1  C   UNL     1       2.957   7.576  19.117  0.00  0.00    +0.000 C 
ATOM      2  C   UNL     1       2.295   8.171  20.391  0.00  0.00    +0.000 C 
ATOM      3  C   UNL     1       0.884   8.746  20.210  0.00  0.00    +0.000 C 
ATOM      4  N   UNL     1       0.804   9.653  19.032  0.00  0.00    +0.000 NA
ATOM      5  C   UNL     1       1.275   8.976  17.795  0.00  0.00    +0.000 C 
ATOM      6  C   UNL     1       2.721   8.547  17.949  0.00  0.00    +0.000 C 
ENDROOT
BRANCH   1   9
ATOM      7  C   UNL     1       1.754   3.916  19.435  0.00  0.00    +0.000 A 
ATOM      8  C   UNL     1       1.844   5.312  19.571  0.00  0.00    +0.000 A 
ATOM      9  C   UNL     1       2.736   6.080  18.795  0.00  0.00    +0.000 A 
ATOM     10  C   UNL     1       3.542   5.396  17.810  0.00  0.00    +0.000 A 
ATOM     11  C   UNL     1       4.514   6.008  16.982  0.00  0.00    +0.000 A 
ATOM     12  C   UNL     1       5.258   5.285  16.047  0.00  0.00    +0.000 A 
ATOM     13  F   UNL     1       6.146   5.926  15.275  0.00  0.00    +0.000 F 
ATOM     14  C   UNL     1       5.103   3.919  15.911  0.00  0.00    +0.000 A 
ATOM     15  C   UNL     1       4.172   3.272  16.715  0.00  0.00    +0.000 A 
ATOM     16  C   UNL     1       3.399   3.986  17.651  0.00  0.00    +0.000 A 
ATOM     17  C   UNL     1       2.510   3.273  18.457  0.00  0.00    +0.000 A 
BRANCH   7  18
ATOM     18  C   UNL     1       0.899   3.099  20.380  0.00  0.00    +0.000 C 
BRANCH  18  20
ATOM     19  O   UNL     1       2.794   2.746  21.826  0.00  0.00    +0.000 OA
ATOM     20  C   UNL     1       1.581   2.680  21.667  0.00  0.00    +0.000 C 
BRANCH  20  21
ATOM     21  O   UNL     1       0.762   2.288  22.669  0.00  0.00    +0.000 OA
ATOM     22  H   UNL     1       0.374   1.398  22.555  0.00  0.00    +0.000 HD
ENDBRANCH  20  21
ENDBRANCH  18  20
ENDBRANCH   7  18
ENDBRANCH   1   9
BRANCH   4  23
ATOM     23  S   UNL     1      -0.744  10.373  18.778  0.00  0.00    +0.000 S 
ATOM     24  O   UNL     1      -1.166  10.119  17.417  0.00  0.00    +0.000 OA
ATOM     25  O   UNL     1      -1.577   9.946  19.886  0.00  0.00    +0.000 OA
BRANCH  23  26
ATOM     26  C   UNL     1      -0.488  12.115  18.934  0.00  0.00    +0.000 A 
ATOM     27  C   UNL     1       0.775  12.624  18.595  0.00  0.00    +0.000 A 
ATOM     28  C   UNL     1       1.051  13.975  18.784  0.00  0.00    +0.000 A 
ATOM     29 CL   UNL     1       2.599  14.598  18.373  0.00  0.00    +0.000 Cl
ATOM     30  C   UNL     1       0.083  14.822  19.316  0.00  0.00    +0.000 A 
ATOM     31  C   UNL     1      -1.171  14.311  19.660  0.00  0.00    +0.000 A 
ATOM     32  C   UNL     1      -1.465  12.954  19.476  0.00  0.00    +0.000 A 
ATOM     33 CL   UNL     1      -3.042  12.432  19.937  0.00  0.00    +0.000 Cl
ENDBRANCH  23  26
ENDBRANCH   4  23
TORSDOF 6
ENDMDL
MODEL 3
REMARK VINA RESULT:      -7.4      1.265      1.632
REMARK  Name = 
REMARK  6 active torsions:
REMARK  status: ('A' for Active; 'I' for Inactive)
REMARK    1  A    between atoms: C_2  and  O_3
REMARK    2  A    between atoms: C_2  and  C_4
REMARK    3  A    between atoms: C_4  and  C_5
REMARK    4  A    between atoms: C_7  and  C_8
REMARK    5  A    between atoms: N_11  and  S_12
REMARK    6  A    between atoms: S_12  and  C_15
REMARK                            x       y       z     vdW  Elec       q    Type
REMARK                         _______ _______ _______ _____ _____    ______ ____
ROOT
ATOM      1  C   UNL     1       1.612   9.661  19.087  0.00  0.00    +0.000 C 
ATOM      2  C   UNL     1       2.489   9.273  17.864  0.00  0.00    +0.000 C 
ATOM      3  C   UNL     1       2.532   7.779  17.514  0.00  0.00    +0.000 C 
ATOM      4  N   UNL     1       2.796   6.938  18.713  0.00  0.00    +0.000 NA
ATOM      5  C   UNL     1       1.812   7.212  19.793  0.00  0.00    +0.000 C 
ATOM      6  C   UNL     1       1.894   8.664  20.223  0.00  0.00    +0.000 C 
ENDROOT
BRANCH   1   9
ATOM      7  C   UNL     1      -1.861   9.869  17.403  0.00  0.00    +0.000 A 
ATOM      8  C   UNL     1      -0.569   9.445  17.759  0.00  0.00    +0.000 A 
ATOM      9  C   UNL     1       0.122  10.001  18.854  0.00  0.00    +0.000 A 
ATOM     10  C   UNL     1      -0.551  11.008  19.643  0.00  0.00    +0.000 A 
ATOM     11  C   UNL     1       0.013  11.696  20.744  0.00  0.00    +0.000 A 
ATOM     12  C   UNL     1      -0.697  12.658  21.465  0.00  0.00    +0.000 A 
ATOM     13  F   UNL     1      -0.117  13.257  22.513  0.00  0.00    +0.000 F 
ATOM     14  C   UNL     1      -1.986  13.010  21.110  0.00  0.00    +0.000 A 
ATOM     15  C   UNL     1      -2.575  12.374  20.026  0.00  0.00    +0.000 A 
ATOM     16  C   UNL     1      -1.882  11.388  19.296  0.00  0.00    +0.000 A 
ATOM     17  C   UNL     1      -2.514  10.814  18.192  0.00  0.00    +0.000 A 
BRANCH   7  18
ATOM     18  C   UNL     1      -2.522   9.364  16.138  0.00  0.00    +0.000 C 
BRANCH  18  20
ATOM     19  O   UNL     1      -2.930  10.826  14.267  0.00  0.00    +0.000 OA
ATOM     20  C   UNL     1      -3.299  10.404  15.356  0.00  0.00    +0.000 C 
BRANCH  20  21
ATOM     21  O   UNL     1      -4.471  10.799  15.902  0.00  0.00    +0.000 OA
ATOM     22  H   UNL     1      -5.166  11.031  15.255  0.00  0.00    +0.000 HD
ENDBRANCH  20  21
ENDBRANCH  18  20
ENDBRANCH   7  18
ENDBRANCH   1   9
BRANCH   4  23
ATOM     23  S   UNL     1       2.897   5.244  18.399  0.00  0.00    +0.000 S 
ATOM     24  O   UNL     1       3.056   4.539  19.654  0.00  0.00    +0.000 OA
ATOM     25  O   UNL     1       1.783   4.926  17.526  0.00  0.00    +0.000 OA
BRANCH  23  26
ATOM     26  C   UNL     1       4.388   5.020  17.477  0.00  0.00    +0.000 A 
ATOM     27  C   UNL     1       4.274   4.673  16.122  0.00  0.00    +0.000 A 
ATOM     28  C   UNL     1       5.419   4.401  15.378  0.00  0.00    +0.000 A 
ATOM     29 CL   UNL     1       5.280   3.971  13.719  0.00  0.00    +0.000 Cl
ATOM     30  C   UNL     1       6.675   4.464  15.974  0.00  0.00    +0.000 A 
ATOM     31  C   UNL     1       6.785   4.802  17.325  0.00  0.00    +0.000 A 
ATOM     32  C   UNL     1       5.643   5.078  18.088  0.00  0.00    +0.000 A 
ATOM     33 CL   UNL     1       5.896   5.482  19.744  0.00  0.00    +0.000 Cl
ENDBRANCH  23  26
ENDBRANCH   4  23
TORSDOF 6
ENDMDL
MODEL 4
REMARK VINA RESULT:      -7.4      4.360      9.139
REMARK  Name = 
REMARK  6 active torsions:
REMARK  status: ('A' for Active; 'I' for Inactive)
REMARK    1  A    between atoms: C_2  and  O_3
REMARK    2  A    between atoms: C_2  and  C_4
REMARK    3  A    between atoms: C_4  and  C_5
REMARK    4  A    between atoms: C_7  and  C_8
REMARK    5  A    between atoms: N_11  and  S_12
REMARK    6  A    between atoms: S_12  and  C_15
REMARK                            x       y       z     vdW  Elec       q    Type
REMARK                         _______ _______ _______ _____ _____    ______ ____
ROOT
ATOM      1  C   UNL     1       2.575   7.778  19.384  0.00  0.00    +0.000 C 
ATOM      2  C   UNL     1       1.710   8.311  20.560  0.00  0.00    +0.000 C 
ATOM      3  C   UNL     1       0.321   8.844  20.184  0.00  0.00    +0.000 C 
ATOM      4  N   UNL     1       0.382   9.784  19.031  0.00  0.00    +0.000 NA
ATOM      5  C   UNL     1       1.057   9.161  17.861  0.00  0.00    +0.000 C 
ATOM      6  C   UNL     1       2.480   8.776  18.219  0.00  0.00    +0.000 C 
ENDROOT
BRANCH   1   9
ATOM      7  C   UNL     1       1.635   4.031  19.533  0.00  0.00    +0.000 A 
ATOM      8  C   UNL     1       1.626   5.423  19.732  0.00  0.00    +0.000 A 
ATOM      9  C   UNL     1       2.461   6.286  18.994  0.00  0.00    +0.000 A 
ATOM     10  C   UNL     1       3.313   5.706  17.982  0.00  0.00    +0.000 A 
ATOM     11  C   UNL     1       4.239   6.422  17.185  0.00  0.00    +0.000 A 
ATOM     12  C   UNL     1       5.032   5.797  16.221  0.00  0.00    +0.000 A 
ATOM     13  F   UNL     1       5.872   6.533  15.481  0.00  0.00    +0.000 F 
ATOM     14  C   UNL     1       4.974   4.430  16.023  0.00  0.00    +0.000 A 
ATOM     15  C   UNL     1       4.092   3.684  16.794  0.00  0.00    +0.000 A 
ATOM     16  C   UNL     1       3.270   4.298  17.759  0.00  0.00    +0.000 A 
ATOM     17  C   UNL     1       2.434   3.488  18.530  0.00  0.00    +0.000 A 
BRANCH   7  18
ATOM     18  C   UNL     1       0.841   3.114  20.438  0.00  0.00    +0.000 C 
BRANCH  18  20
ATOM     19  O   UNL     1       2.770   2.740  21.832  0.00  0.00    +0.000 OA
ATOM     20  C   UNL     1       1.553   2.683  21.705  0.00  0.00    +0.000 C 
BRANCH  20  21
ATOM     21  O   UNL     1       0.758   2.288  22.724  0.00  0.00    +0.000 OA
ATOM     22  H   UNL     1       0.411   3.015  23.278  0.00  0.00    +0.000 HD
ENDBRANCH  20  21
ENDBRANCH  18  20
ENDBRANCH   7  18
ENDBRANCH   1   9
BRANCH   4  23
ATOM     23  S   UNL     1      -1.137  10.460  18.567  0.00  0.00    +0.000 S 
ATOM     24  O   UNL     1      -1.132  10.696  17.139  0.00  0.00    +0.000 OA
ATOM     25  O   UNL     1      -2.155   9.613  19.157  0.00  0.00    +0.000 OA
BRANCH  23  26
ATOM     26  C   UNL     1      -1.217  12.036  19.362  0.00  0.00    +0.000 A 
ATOM     27  C   UNL     1      -2.387  12.356  20.068  0.00  0.00    +0.000 A 
ATOM     28  C   UNL     1      -2.531  13.618  20.636  0.00  0.00    +0.000 A 
ATOM     29 CL   UNL     1      -3.966  14.011  21.496  0.00  0.00    +0.000 Cl
ATOM     30  C   UNL     1      -1.523  14.568  20.500  0.00  0.00    +0.000 A 
ATOM     31  C   UNL     1      -0.362  14.250  19.791  0.00  0.00    +0.000 A 
ATOM     32  C   UNL     1      -0.201  12.985  19.213  0.00  0.00    +0.000 A 
ATOM     33 CL   UNL     1       1.269  12.703  18.359  0.00  0.00    +0.000 Cl
ENDBRANCH  23  26
ENDBRANCH   4  23
TORSDOF 6
ENDMDL
MODEL 5
REMARK VINA RESULT:      -7.4      6.202      9.703
REMARK  Name = 
REMARK  6 active torsions:
REMARK  status: ('A' for Active; 'I' for Inactive)
REMARK    1  A    between atoms: C_2  and  O_3
REMARK    2  A    between atoms: C_2  and  C_4
REMARK    3  A    between atoms: C_4  and  C_5
REMARK    4  A    between atoms: C_7  and  C_8
REMARK    5  A    between atoms: N_11  and  S_12
REMARK    6  A    between atoms: S_12  and  C_15
REMARK                            x       y       z     vdW  Elec       q    Type
REMARK                         _______ _______ _______ _____ _____    ______ ____
ROOT
ATOM      1  C   UNL     1      -2.441  13.212  21.965  0.00  0.00    +0.000 C 
ATOM      2  C   UNL     1      -3.582  12.657  22.863  0.00  0.00    +0.000 C 
ATOM      3  C   UNL     1      -5.008  12.822  22.317  0.00  0.00    +0.000 C 
ATOM      4  N   UNL     1      -5.260  14.210  21.842  0.00  0.00    +0.000 NA
ATOM      5  C   UNL     1      -4.246  14.632  20.841  0.00  0.00    +0.000 C 
ATOM      6  C   UNL     1      -2.858  14.600  21.452  0.00  0.00    +0.000 C 
ENDROOT
BRANCH   1   9
ATOM      7  C   UNL     1      -1.701  11.499  18.580  0.00  0.00    +0.000 A 
ATOM      8  C   UNL     1      -2.107  12.437  19.546  0.00  0.00    +0.000 A 
ATOM      9  C   UNL     1      -1.803  12.277  20.913  0.00  0.00    +0.000 A 
ATOM     10  C   UNL     1      -1.015  11.130  21.305  0.00  0.00    +0.000 A 
ATOM     11  C   UNL     1      -0.659  10.799  22.634  0.00  0.00    +0.000 A 
ATOM     12  C   UNL     1       0.108   9.674  22.942  0.00  0.00    +0.000 A 
ATOM     13  F   UNL     1       0.434   9.428  24.218  0.00  0.00    +0.000 F 
ATOM     14  C   UNL     1       0.530   8.804  21.955  0.00  0.00    +0.000 A 
ATOM     15  C   UNL     1       0.190   9.079  20.637  0.00  0.00    +0.000 A 
ATOM     16  C   UNL     1      -0.568  10.218  20.303  0.00  0.00    +0.000 A 
ATOM     17  C   UNL     1      -0.912  10.417  18.965  0.00  0.00    +0.000 A 
BRANCH   7  18
ATOM     18  C   UNL     1      -2.166  11.615  17.144  0.00  0.00    +0.000 C 
BRANCH  18  20
ATOM     19  O   UNL     1      -4.155  10.347  17.633  0.00  0.00    +0.000 OA
ATOM     20  C   UNL     1      -3.379  10.777  16.790  0.00  0.00    +0.000 C 
BRANCH  20  21
ATOM     21  O   UNL     1      -3.598  10.585  15.470  0.00  0.00    +0.000 OA
ATOM     22  H   UNL     1      -3.821   9.666  15.222  0.00  0.00    +0.000 HD
ENDBRANCH  20  21
ENDBRANCH  18  20
ENDBRANCH   7  18
ENDBRANCH   1   9
BRANCH   4  23
ATOM     23  S   UNL     1      -6.856  14.491  21.246  0.00  0.00    +0.000 S 
ATOM     24  O   UNL     1      -7.737  13.460  21.752  0.00  0.00    +0.000 OA
ATOM     25  O   UNL     1      -7.147  15.886  21.510  0.00  0.00    +0.000 OA
BRANCH  23  26
ATOM     26  C   UNL     1      -6.751  14.282  19.494  0.00  0.00    +0.000 A 
ATOM     27  C   UNL     1      -6.913  15.419  18.688  0.00  0.00    +0.000 A 
ATOM     28  C   UNL     1      -6.926  15.289  17.302  0.00  0.00    +0.000 A 
ATOM     29 CL   UNL     1      -7.128  16.681  16.314  0.00  0.00    +0.000 Cl
ATOM     30  C   UNL     1      -6.787  14.037  16.712  0.00  0.00    +0.000 A 
ATOM     31  C   UNL     1      -6.634  12.905  17.517  0.00  0.00    +0.000 A 
ATOM     32  C   UNL     1      -6.619  13.017  18.914  0.00  0.00    +0.000 A 
ATOM     33 CL   UNL     1      -6.427  11.556  19.808  0.00  0.00    +0.000 Cl
ENDBRANCH  23  26
ENDBRANCH   4  23
TORSDOF 6
ENDMDL
MODEL 6
REMARK VINA RESULT:      -7.3      4.213      8.815
REMARK  Name = 
REMARK  6 active torsions:
REMARK  status: ('A' for Active; 'I' for Inactive)
REMARK    1  A    between atoms: C_2  and  O_3
REMARK    2  A    between atoms: C_2  and  C_4
REMARK    3  A    between atoms: C_4  and  C_5
REMARK    4  A    between atoms: C_7  and  C_8
REMARK    5  A    between atoms: N_11  and  S_12
REMARK    6  A    between atoms: S_12  and  C_15
REMARK                            x       y       z     vdW  Elec       q    Type
REMARK                         _______ _______ _______ _____ _____    ______ ____
ROOT
ATOM      1  C   UNL     1       3.547   7.298  18.515  0.00  0.00    +0.000 C 
ATOM      2  C   UNL     1       2.907   7.606  19.897  0.00  0.00    +0.000 C 
ATOM      3  C   UNL     1       1.484   8.180  19.866  0.00  0.00    +0.000 C 
ATOM      4  N   UNL     1       1.364   9.308  18.901  0.00  0.00    +0.000 NA
ATOM      5  C   UNL     1       1.815   8.908  17.542  0.00  0.00    +0.000 C 
ATOM      6  C   UNL     1       3.271   8.484  17.576  0.00  0.00    +0.000 C 
ENDROOT
BRANCH   1   9
ATOM      7  C   UNL     1       2.126   3.756  17.902  0.00  0.00    +0.000 A 
ATOM      8  C   UNL     1       2.248   5.100  18.295  0.00  0.00    +0.000 A 
ATOM      9  C   UNL     1       3.340   5.896  17.896  0.00  0.00    +0.000 A 
ATOM     10  C   UNL     1       4.331   5.305  17.027  0.00  0.00    +0.000 A 
ATOM     11  C   UNL     1       5.506   5.948  16.570  0.00  0.00    +0.000 A 
ATOM     12  C   UNL     1       6.422   5.317  15.727  0.00  0.00    +0.000 A 
ATOM     13  F   UNL     1       7.504   5.987  15.308  0.00  0.00    +0.000 F 
ATOM     14  C   UNL     1       6.239   4.007  15.324  0.00  0.00    +0.000 A 
ATOM     15  C   UNL     1       5.108   3.330  15.760  0.00  0.00    +0.000 A 
ATOM     16  C   UNL     1       4.162   3.955  16.597  0.00  0.00    +0.000 A 
ATOM     17  C   UNL     1       3.068   3.208  17.035  0.00  0.00    +0.000 A 
BRANCH   7  18
ATOM     18  C   UNL     1       1.025   2.881  18.463  0.00  0.00    +0.000 C 
BRANCH  18  20
ATOM     19  O   UNL     1       1.573   1.978  20.628  0.00  0.00    +0.000 OA
ATOM     20  C   UNL     1       0.961   2.815  19.976  0.00  0.00    +0.000 C 
BRANCH  20  21
ATOM     21  O   UNL     1       0.237   3.784  20.580  0.00  0.00    +0.000 OA
ATOM     22  H   UNL     1      -0.589   4.026  20.117  0.00  0.00    +0.000 HD
ENDBRANCH  20  21
ENDBRANCH  18  20
ENDBRANCH   7  18
ENDBRANCH   1   9
BRANCH   4  23
ATOM     23  S   UNL     1      -0.200  10.036  18.832  0.00  0.00    +0.000 S 
ATOM     24  O   UNL     1      -0.824   9.695  17.571  0.00  0.00    +0.000 OA
ATOM     25  O   UNL     1      -0.859   9.702  20.079  0.00  0.00    +0.000 OA
BRANCH  23  26
ATOM     26  C   UNL     1       0.089  11.779  18.822  0.00  0.00    +0.000 A 
ATOM     27  C   UNL     1       1.415  12.223  18.697  0.00  0.00    +0.000 A 
ATOM     28  C   UNL     1       1.700  13.583  18.773  0.00  0.00    +0.000 A 
ATOM     29 CL   UNL     1       3.324  14.127  18.624  0.00  0.00    +0.000 Cl
ATOM     30  C   UNL     1       0.678  14.505  18.981  0.00  0.00    +0.000 A 
ATOM     31  C   UNL     1      -0.640  14.060  19.113  0.00  0.00    +0.000 A 
ATOM     32  C   UNL     1      -0.945  12.695  19.039  0.00  0.00    +0.000 A 
ATOM     33 CL   UNL     1      -2.602  12.259  19.218  0.00  0.00    +0.000 Cl
ENDBRANCH  23  26
ENDBRANCH   4  23
TORSDOF 6
ENDMDL
MODEL 7
REMARK VINA RESULT:      -7.2      4.333      9.010
REMARK  Name = 
REMARK  6 active torsions:
REMARK  status: ('A' for Active; 'I' for Inactive)
REMARK    1  A    between atoms: C_2  and  O_3
REMARK    2  A    between atoms: C_2  and  C_4
REMARK    3  A    between atoms: C_4  and  C_5
REMARK    4  A    between atoms: C_7  and  C_8
REMARK    5  A    between atoms: N_11  and  S_12
REMARK    6  A    between atoms: S_12  and  C_15
REMARK                            x       y       z     vdW  Elec       q    Type
REMARK                         _______ _______ _______ _____ _____    ______ ____
ROOT
ATOM      1  C   UNL     1       2.847   7.671  19.202  0.00  0.00    +0.000 C 
ATOM      2  C   UNL     1       2.179   8.249  20.481  0.00  0.00    +0.000 C 
ATOM      3  C   UNL     1       0.767   8.822  20.302  0.00  0.00    +0.000 C 
ATOM      4  N   UNL     1       0.688   9.742  19.135  0.00  0.00    +0.000 NA
ATOM      5  C   UNL     1       1.165   9.082  17.891  0.00  0.00    +0.000 C 
ATOM      6  C   UNL     1       2.613   8.656  18.045  0.00  0.00    +0.000 C 
ENDROOT
BRANCH   1   9
ATOM      7  C   UNL     1       1.668   4.000  19.479  0.00  0.00    +0.000 A 
ATOM      8  C   UNL     1       1.752   5.395  19.634  0.00  0.00    +0.000 A 
ATOM      9  C   UNL     1       2.632   6.179  18.861  0.00  0.00    +0.000 A 
ATOM     10  C   UNL     1       3.433   5.514  17.859  0.00  0.00    +0.000 A 
ATOM     11  C   UNL     1       4.393   6.143  17.030  0.00  0.00    +0.000 A 
ATOM     12  C   UNL     1       5.133   5.438  16.079  0.00  0.00    +0.000 A 
ATOM     13  F   UNL     1       6.009   6.094  15.307  0.00  0.00    +0.000 F 
ATOM     14  C   UNL     1       4.984   4.073  15.925  0.00  0.00    +0.000 A 
ATOM     15  C   UNL     1       4.065   3.409  16.727  0.00  0.00    +0.000 A 
ATOM     16  C   UNL     1       3.296   4.105  17.681  0.00  0.00    +0.000 A 
ATOM     17  C   UNL     1       2.419   3.376  18.486  0.00  0.00    +0.000 A 
BRANCH   7  18
ATOM     18  C   UNL     1       0.828   3.165  20.421  0.00  0.00    +0.000 C 
BRANCH  18  20
ATOM     19  O   UNL     1       2.744   2.810  21.838  0.00  0.00    +0.000 OA
ATOM     20  C   UNL     1       1.533   2.708  21.682  0.00  0.00    +0.000 C 
BRANCH  20  21
ATOM     21  O   UNL     1       0.736   2.237  22.667  0.00  0.00    +0.000 OA
ATOM     22  H   UNL     1       0.194   1.463  22.419  0.00  0.00    +0.000 HD
ENDBRANCH  20  21
ENDBRANCH  18  20
ENDBRANCH   7  18
ENDBRANCH   1   9
BRANCH   4  23
ATOM     23  S   UNL     1      -0.861  10.461  18.884  0.00  0.00    +0.000 S 
ATOM     24  O   UNL     1      -1.060  10.673  17.466  0.00  0.00    +0.000 OA
ATOM     25  O   UNL     1      -1.807   9.659  19.636  0.00  0.00    +0.000 OA
BRANCH  23  26
ATOM     26  C   UNL     1      -0.775  12.053  19.648  0.00  0.00    +0.000 A 
ATOM     27  C   UNL     1      -0.615  13.171  18.815  0.00  0.00    +0.000 A 
ATOM     28  C   UNL     1      -0.454  14.435  19.376  0.00  0.00    +0.000 A 
ATOM     29 CL   UNL     1      -0.254  15.804  18.356  0.00  0.00    +0.000 Cl
ATOM     30  C   UNL     1      -0.442  14.594  20.758  0.00  0.00    +0.000 A 
ATOM     31  C   UNL     1      -0.593  13.478  21.585  0.00  0.00    +0.000 A 
ATOM     32  C   UNL     1      -0.756  12.199  21.038  0.00  0.00    +0.000 A 
ATOM     33 CL   UNL     1      -0.932  10.895  22.151  0.00  0.00    +0.000 Cl
ENDBRANCH  23  26
ENDBRANCH   4  23
TORSDOF 6
ENDMDL
MODEL 8
REMARK VINA RESULT:      -7.2      1.342      1.555
REMARK  Name = 
REMARK  6 active torsions:
REMARK  status: ('A' for Active; 'I' for Inactive)
REMARK    1  A    between atoms: C_2  and  O_3
REMARK    2  A    between atoms: C_2  and  C_4
REMARK    3  A    between atoms: C_4  and  C_5
REMARK    4  A    between atoms: C_7  and  C_8
REMARK    5  A    between atoms: N_11  and  S_12
REMARK    6  A    between atoms: S_12  and  C_15
REMARK                            x       y       z     vdW  Elec       q    Type
REMARK                         _______ _______ _______ _____ _____    ______ ____
ROOT
ATOM      1  C   UNL     1       1.357   9.852  19.614  0.00  0.00    +0.000 C 
ATOM      2  C   UNL     1       2.057   9.023  18.502  0.00  0.00    +0.000 C 
ATOM      3  C   UNL     1       1.890   7.500  18.591  0.00  0.00    +0.000 C 
ATOM      4  N   UNL     1       2.170   6.993  19.961  0.00  0.00    +0.000 NA
ATOM      5  C   UNL     1       1.337   7.689  20.977  0.00  0.00    +0.000 C 
ATOM      6  C   UNL     1       1.631   9.176  20.968  0.00  0.00    +0.000 C 
ENDROOT
BRANCH   1   9
ATOM      7  C   UNL     1      -2.133  10.260  18.003  0.00  0.00    +0.000 A 
ATOM      8  C   UNL     1      -0.879   9.739  18.367  0.00  0.00    +0.000 A 
ATOM      9  C   UNL     1      -0.098  10.321  19.386  0.00  0.00    +0.000 A 
ATOM     10  C   UNL     1      -0.641  11.460  20.091  0.00  0.00    +0.000 A 
ATOM     11  C   UNL     1       0.026  12.185  21.108  0.00  0.00    +0.000 A 
ATOM     12  C   UNL     1      -0.559  13.277  21.750  0.00  0.00    +0.000 A 
ATOM     13  F   UNL     1       0.114  13.908  22.722  0.00  0.00    +0.000 F 
ATOM     14  C   UNL     1      -1.816  13.727  21.395  0.00  0.00    +0.000 A 
ATOM     15  C   UNL     1      -2.503  13.057  20.391  0.00  0.00    +0.000 A 
ATOM     16  C   UNL     1      -1.937  11.941  19.742  0.00  0.00    +0.000 A 
ATOM     17  C   UNL     1      -2.660  11.336  18.713  0.00  0.00    +0.000 A 
BRANCH   7  18
ATOM     18  C   UNL     1      -2.883   9.711  16.808  0.00  0.00    +0.000 C 
BRANCH  18  20
ATOM     19  O   UNL     1      -4.661  10.988  15.802  0.00  0.00    +0.000 OA
ATOM     20  C   UNL     1      -3.460  10.755  15.873  0.00  0.00    +0.000 C 
BRANCH  20  21
ATOM     21  O   UNL     1      -2.562  11.471  15.161  0.00  0.00    +0.000 OA
ATOM     22  H   UNL     1      -2.103  10.970  14.459  0.00  0.00    +0.000 HD
ENDBRANCH  20  21
ENDBRANCH  18  20
ENDBRANCH   7  18
ENDBRANCH   1   9
BRANCH   4  23
ATOM     23  S   UNL     1       2.040   5.280  20.139  0.00  0.00    +0.000 S 
ATOM     24  O   UNL     1       2.608   4.893  21.413  0.00  0.00    +0.000 OA
ATOM     25  O   UNL     1       0.664   4.944  19.828  0.00  0.00    +0.000 OA
BRANCH  23  26
ATOM     26  C   UNL     1       3.064   4.593  18.874  0.00  0.00    +0.000 A 
ATOM     27  C   UNL     1       3.842   5.476  18.109  0.00  0.00    +0.000 A 
ATOM     28  C   UNL     1       4.597   4.991  17.045  0.00  0.00    +0.000 A 
ATOM     29 CL   UNL     1       5.546   6.072  16.105  0.00  0.00    +0.000 Cl
ATOM     30  C   UNL     1       4.578   3.635  16.730  0.00  0.00    +0.000 A 
ATOM     31  C   UNL     1       3.796   2.759  17.489  0.00  0.00    +0.000 A 
ATOM     32  C   UNL     1       3.031   3.231  18.563  0.00  0.00    +0.000 A 
ATOM     33 CL   UNL     1       2.104   2.063  19.427  0.00  0.00    +0.000 Cl
ENDBRANCH  23  26
ENDBRANCH   4  23
TORSDOF 6
ENDMDL
MODEL 9
REMARK VINA RESULT:      -7.1      4.567      9.095
REMARK  Name = 
REMARK  6 active torsions:
REMARK  status: ('A' for Active; 'I' for Inactive)
REMARK    1  A    between atoms: C_2  and  O_3
REMARK    2  A    between atoms: C_2  and  C_4
REMARK    3  A    between atoms: C_4  and  C_5
REMARK    4  A    between atoms: C_7  and  C_8
REMARK    5  A    between atoms: N_11  and  S_12
REMARK    6  A    between atoms: S_12  and  C_15
REMARK                            x       y       z     vdW  Elec       q    Type
REMARK                         _______ _______ _______ _____ _____    ______ ____
ROOT
ATOM      1  C   UNL     1       1.773   7.553  18.108  0.00  0.00    +0.000 C 
ATOM      2  C   UNL     1       1.821   8.954  17.439  0.00  0.00    +0.000 C 
ATOM      3  C   UNL     1       1.977  10.149  18.390  0.00  0.00    +0.000 C 
ATOM      4  N   UNL     1       1.021  10.077  19.528  0.00  0.00    +0.000 NA
ATOM      5  C   UNL     1       1.142   8.786  20.257  0.00  0.00    +0.000 C 
ATOM      6  C   UNL     1       0.838   7.628  19.326  0.00  0.00    +0.000 C 
ENDROOT
BRANCH   1   9
ATOM      7  C   UNL     1       5.481   6.513  17.780  0.00  0.00    +0.000 A 
ATOM      8  C   UNL     1       4.296   7.268  17.761  0.00  0.00    +0.000 A 
ATOM      9  C   UNL     1       3.099   6.790  18.332  0.00  0.00    +0.000 A 
ATOM     10  C   UNL     1       3.124   5.502  18.985  0.00  0.00    +0.000 A 
ATOM     11  C   UNL     1       2.006   4.859  19.569  0.00  0.00    +0.000 A 
ATOM     12  C   UNL     1       2.103   3.612  20.188  0.00  0.00    +0.000 A 
ATOM     13  F   UNL     1       1.013   3.067  20.745  0.00  0.00    +0.000 F 
ATOM     14  C   UNL     1       3.301   2.924  20.229  0.00  0.00    +0.000 A 
ATOM     15  C   UNL     1       4.422   3.508  19.654  0.00  0.00    +0.000 A 
ATOM     16  C   UNL     1       4.350   4.774  19.040  0.00  0.00    +0.000 A 
ATOM     17  C   UNL     1       5.502   5.288  18.444  0.00  0.00    +0.000 A 
BRANCH   7  18
ATOM     18  C   UNL     1       6.711   6.981  17.032  0.00  0.00    +0.000 C 
BRANCH  18  20
ATOM     19  O   UNL     1       7.830   9.005  17.706  0.00  0.00    +0.000 OA
ATOM     20  C   UNL     1       7.692   7.797  17.849  0.00  0.00    +0.000 C 
BRANCH  20  21
ATOM     21  O   UNL     1       8.370   7.121  18.805  0.00  0.00    +0.000 OA
ATOM     22  H   UNL     1       7.991   6.251  19.037  0.00  0.00    +0.000 HD
ENDBRANCH  20  21
ENDBRANCH  18  20
ENDBRANCH   7  18
ENDBRANCH   1   9
BRANCH   4  23
ATOM     23  S   UNL     1       1.105  11.405  20.628  0.00  0.00    +0.000 S 
ATOM     24  O   UNL     1       1.538  10.920  21.922  0.00  0.00    +0.000 OA
ATOM     25  O   UNL     1       1.861  12.443  19.954  0.00  0.00    +0.000 OA
BRANCH  23  26
ATOM     26  C   UNL     1      -0.557  11.977  20.809  0.00  0.00    +0.000 A 
ATOM     27  C   UNL     1      -1.150  11.880  22.077  0.00  0.00    +0.000 A 
ATOM     28  C   UNL     1      -2.484  12.236  22.248  0.00  0.00    +0.000 A 
ATOM     29 CL   UNL     1      -3.211  12.112  23.801  0.00  0.00    +0.000 Cl
ATOM     30  C   UNL     1      -3.237  12.681  21.165  0.00  0.00    +0.000 A 
ATOM     31  C   UNL     1      -2.647  12.769  19.902  0.00  0.00    +0.000 A 
ATOM     32  C   UNL     1      -1.305  12.415  19.712  0.00  0.00    +0.000 A 
ATOM     33 CL   UNL     1      -0.682  12.562  18.112  0.00  0.00    +0.000 Cl
ENDBRANCH  23  26
ENDBRANCH   4  23
TORSDOF 6
ENDMDL
