MODEL 1
REMARK VINA RESULT:      -9.0      0.000      0.000
REMARK  Name = 
REMARK  9 active torsions:
REMARK  status: ('A' for Active; 'I' for Inactive)
REMARK    1  A    between atoms: C_2  and  C_9
REMARK    2  A    between atoms: N_3  and  C_4
REMARK    3  A    between atoms: C_4  and  C_5
REMARK    4  A    between atoms: C_5  and  O_6
REMARK    5  A    between atoms: C_5  and  C_7
REMARK    6  A    between atoms: C_7  and  O_8
REMARK    7  A    between atoms: C_20  and  C_21
REMARK    8  A    between atoms: C_21  and  C_22
REMARK    9  A    between atoms: C_27  and  C_28
REMARK                            x       y       z     vdW  Elec       q    Type
REMARK                         _______ _______ _______ _____ _____    ______ ____
ROOT
ATOM      1  C   UNL     1       0.674  11.137  19.997  0.00  0.00    +0.000 A 
ATOM      2  C   UNL     1       0.184  11.055  21.307  0.00  0.00    +0.000 A 
ATOM      3  C   UNL     1       0.258   9.852  22.015  0.00  0.00    +0.000 A 
ATOM      4  C   UNL     1       0.819   8.718  21.422  0.00  0.00    +0.000 A 
ATOM      5  C   UNL     1       1.291   8.782  20.118  0.00  0.00    +0.000 A 
ATOM      6  C   UNL     1       1.201   9.989  19.411  0.00  0.00    +0.000 A 
ATOM      7  C   UNL     1       1.822   9.825  18.067  0.00  0.00    +0.000 C 
ATOM      8  C   UNL     1       2.046   8.306  18.001  0.00  0.00    +0.000 C 
ATOM      9  N   UNL     1       1.905   7.757  19.357  0.00  0.00    +0.000 N 
ATOM     10  C   UNL     1       2.139   6.412  19.650  0.00  0.00    +0.000 A 
ATOM     11  C   UNL     1       2.659   5.537  18.689  0.00  0.00    +0.000 A 
ATOM     12  C   UNL     1       2.889   4.184  18.983  0.00  0.00    +0.000 A 
ATOM     13  C   UNL     1       2.595   3.732  20.265  0.00  0.00    +0.000 A 
ATOM     14  C   UNL     1       2.096   4.642  21.173  0.00  0.00    +0.000 A 
ATOM     15  N   UNL     1       1.870   5.943  20.890  0.00  0.00    +0.000 NA
ENDROOT
BRANCH   1  17
ATOM     16  O   UNL     1      -0.234  12.682  18.449  0.00  0.00    +0.000 OA
ATOM     17  C   UNL     1       0.638  12.433  19.268  0.00  0.00    +0.000 C 
ATOM     18  N   UNL     1       1.670  13.296  19.574  0.00  0.00    +0.000 N 
ATOM     19  H   UNL     1       2.503  12.912  20.010  0.00  0.00    +0.000 HD
BRANCH  18  20
ATOM     20  C   UNL     1       1.823  14.560  18.883  0.00  0.00    +0.000 C 
BRANCH  20  21
ATOM     21  C   UNL     1       3.254  14.731  18.368  0.00  0.00    +0.000 C 
BRANCH  21  22
ATOM     22  O   UNL     1       3.677  13.507  17.746  0.00  0.00    +0.000 OA
ATOM     23  H   UNL     1       3.421  13.549  16.806  0.00  0.00    +0.000 HD
ENDBRANCH  21  22
BRANCH  21  24
ATOM     24  C   UNL     1       3.346  15.907  17.387  0.00  0.00    +0.000 C 
BRANCH  24  25
ATOM     25  O   UNL     1       3.765  17.102  18.040  0.00  0.00    +0.000 OA
ATOM     26  H   UNL     1       2.982  17.662  18.179  0.00  0.00    +0.000 HD
ENDBRANCH  24  25
ENDBRANCH  21  24
ENDBRANCH  20  21
ENDBRANCH  18  20
ENDBRANCH   1  17
BRANCH  12  27
ATOM     27  C   UNL     1       3.469   3.258  17.940  0.00  0.00    +0.000 C 
BRANCH  27  28
ATOM     28  C   UNL     1       4.764   3.763  17.345  0.00  0.00    +0.000 A 
ATOM     29  C   UNL     1       5.785   4.235  18.179  0.00  0.00    +0.000 A 
ATOM     30  C   UNL     1       6.958   4.738  17.628  0.00  0.00    +0.000 A 
ATOM     31  F   UNL     1       7.923   5.190  18.439  0.00  0.00    +0.000 F 
ATOM     32  C   UNL     1       7.147   4.783  16.253  0.00  0.00    +0.000 A 
ATOM     33  C   UNL     1       6.145   4.309  15.395  0.00  0.00    +0.000 A 
ATOM     34  C   UNL     1       4.954   3.806  15.952  0.00  0.00    +0.000 A 
BRANCH  33  35
ATOM     35  C   UNL     1       6.335   4.335  13.899  0.00  0.00    +0.000 C 
ATOM     36  F   UNL     1       6.651   3.121  13.368  0.00  0.00    +0.000 F 
ATOM     37  F   UNL     1       5.215   4.747  13.242  0.00  0.00    +0.000 F 
ATOM     38  F   UNL     1       7.328   5.182  13.512  0.00  0.00    +0.000 F 
ENDBRANCH  33  35
ENDBRANCH  27  28
ENDBRANCH  12  27
TORSDOF 9
ENDMDL
MODEL 2
REMARK VINA RESULT:      -8.9      0.849      1.363
REMARK  Name = 
REMARK  9 active torsions:
REMARK  status: ('A' for Active; 'I' for Inactive)
REMARK    1  A    between atoms: C_2  and  C_9
REMARK    2  A    between atoms: N_3  and  C_4
REMARK    3  A    between atoms: C_4  and  C_5
REMARK    4  A    between atoms: C_5  and  O_6
REMARK    5  A    between atoms: C_5  and  C_7
REMARK    6  A    between atoms: C_7  and  O_8
REMARK    7  A    between atoms: C_20  and  C_21
REMARK    8  A    between atoms: C_21  and  C_22
REMARK    9  A    between atoms: C_27  and  C_28
REMARK                            x       y       z     vdW  Elec       q    Type
REMARK                         _______ _______ _______ _____ _____    ______ ____
ROOT
ATOM      1  C   UNL     1       0.633  10.898  19.864  0.00  0.00    +0.000 A 
ATOM      2  C   UNL     1       0.069  10.819  21.145  0.00  0.00    +0.000 A 
ATOM      3  C   UNL     1       0.137   9.628  21.874  0.00  0.00    +0.000 A 
ATOM      4  C   UNL     1       0.765   8.504  21.332  0.00  0.00    +0.000 A 
ATOM      5  C   UNL     1       1.312   8.566  20.057  0.00  0.00    +0.000 A 
ATOM      6  C   UNL     1       1.228   9.759  19.328  0.00  0.00    +0.000 A 
ATOM      7  C   UNL     1       1.932   9.596  18.025  0.00  0.00    +0.000 C 
ATOM      8  C   UNL     1       2.205   8.084  17.997  0.00  0.00    +0.000 C 
ATOM      9  N   UNL     1       2.001   7.549  19.350  0.00  0.00    +0.000 N 
ATOM     10  C   UNL     1       2.257   6.217  19.677  0.00  0.00    +0.000 A 
ATOM     11  C   UNL     1       2.859   5.345  18.762  0.00  0.00    +0.000 A 
ATOM     12  C   UNL     1       3.112   4.004  19.089  0.00  0.00    +0.000 A 
ATOM     13  C   UNL     1       2.756   3.560  20.358  0.00  0.00    +0.000 A 
ATOM     14  C   UNL     1       2.177   4.466  21.222  0.00  0.00    +0.000 A 
ATOM     15  N   UNL     1       1.929   5.756  20.906  0.00  0.00    +0.000 NA
ENDROOT
BRANCH   1  17
ATOM     16  O   UNL     1      -0.329  12.469  18.377  0.00  0.00    +0.000 OA
ATOM     17  C   UNL     1       0.601  12.182  19.115  0.00  0.00    +0.000 C 
ATOM     18  N   UNL     1       1.705  12.988  19.304  0.00  0.00    +0.000 N 
ATOM     19  H   UNL     1       2.553  12.563  19.668  0.00  0.00    +0.000 HD
BRANCH  18  20
ATOM     20  C   UNL     1       1.863  14.230  18.575  0.00  0.00    +0.000 C 
BRANCH  20  21
ATOM     21  C   UNL     1       1.694  15.434  19.505  0.00  0.00    +0.000 C 
BRANCH  21  22
ATOM     22  O   UNL     1       2.818  16.314  19.341  0.00  0.00    +0.000 OA
ATOM     23  H   UNL     1       3.208  16.464  20.220  0.00  0.00    +0.000 HD
ENDBRANCH  21  22
BRANCH  21  24
ATOM     24  C   UNL     1       0.376  16.166  19.218  0.00  0.00    +0.000 C 
BRANCH  24  25
ATOM     25  O   UNL     1      -0.519  15.355  18.463  0.00  0.00    +0.000 OA
ATOM     26  H   UNL     1      -0.019  14.600  18.108  0.00  0.00    +0.000 HD
ENDBRANCH  24  25
ENDBRANCH  21  24
ENDBRANCH  20  21
ENDBRANCH  18  20
ENDBRANCH   1  17
BRANCH  12  27
ATOM     27  C   UNL     1       3.780   3.082  18.096  0.00  0.00    +0.000 C 
BRANCH  27  28
ATOM     28  C   UNL     1       4.965   3.711  17.399  0.00  0.00    +0.000 A 
ATOM     29  C   UNL     1       5.958   4.358  18.146  0.00  0.00    +0.000 A 
ATOM     30  C   UNL     1       7.026   4.972  17.501  0.00  0.00    +0.000 A 
ATOM     31  F   UNL     1       7.964   5.591  18.228  0.00  0.00    +0.000 F 
ATOM     32  C   UNL     1       7.135   4.958  16.116  0.00  0.00    +0.000 A 
ATOM     33  C   UNL     1       6.160   4.310  15.346  0.00  0.00    +0.000 A 
ATOM     34  C   UNL     1       5.076   3.694  15.998  0.00  0.00    +0.000 A 
BRANCH  33  35
ATOM     35  C   UNL     1       6.267   4.269  13.841  0.00  0.00    +0.000 C 
ATOM     36  F   UNL     1       5.104   4.578  13.203  0.00  0.00    +0.000 F 
ATOM     37  F   UNL     1       7.196   5.144  13.364  0.00  0.00    +0.000 F 
ATOM     38  F   UNL     1       6.635   3.043  13.377  0.00  0.00    +0.000 F 
ENDBRANCH  33  35
ENDBRANCH  27  28
ENDBRANCH  12  27
TORSDOF 9
ENDMDL
MODEL 3
REMARK VINA RESULT:      -8.9      0.998      2.636
REMARK  Name = 
REMARK  9 active torsions:
REMARK  status: ('A' for Active; 'I' for Inactive)
REMARK    1  A    between atoms: C_2  and  C_9
REMARK    2  A    between atoms: N_3  and  C_4
REMARK    3  A    between atoms: C_4  and  C_5
REMARK    4  A    between atoms: C_5  and  O_6
REMARK    5  A    between atoms: C_5  and  C_7
REMARK    6  A    between atoms: C_7  and  O_8
REMARK    7  A    between atoms: C_20  and  C_21
REMARK    8  A    between atoms: C_21  and  C_22
REMARK    9  A    between atoms: C_27  and  C_28
REMARK                            x       y       z     vdW  Elec       q    Type
REMARK                         _______ _______ _______ _____ _____    ______ ____
ROOT
ATOM      1  C   UNL     1       0.380  11.624  20.211  0.00  0.00    +0.000 A 
ATOM      2  C   UNL     1      -0.097  11.423  21.513  0.00  0.00    +0.000 A 
ATOM      3  C   UNL     1      -0.002  10.165  22.114  0.00  0.00    +0.000 A 
ATOM      4  C   UNL     1       0.569   9.093  21.421  0.00  0.00    +0.000 A 
ATOM      5  C   UNL     1       1.029   9.277  20.124  0.00  0.00    +0.000 A 
ATOM      6  C   UNL     1       0.916  10.538  19.524  0.00  0.00    +0.000 A 
ATOM      7  C   UNL     1       1.528  10.500  18.166  0.00  0.00    +0.000 C 
ATOM      8  C   UNL     1       1.771   8.994  17.969  0.00  0.00    +0.000 C 
ATOM      9  N   UNL     1       1.649   8.329  19.273  0.00  0.00    +0.000 N 
ATOM     10  C   UNL     1       1.903   6.968  19.447  0.00  0.00    +0.000 A 
ATOM     11  C   UNL     1       2.427   6.186  18.411  0.00  0.00    +0.000 A 
ATOM     12  C   UNL     1       2.677   4.816  18.585  0.00  0.00    +0.000 A 
ATOM     13  C   UNL     1       2.400   4.251  19.826  0.00  0.00    +0.000 A 
ATOM     14  C   UNL     1       1.897   5.072  20.813  0.00  0.00    +0.000 A 
ATOM     15  N   UNL     1       1.652   6.390  20.645  0.00  0.00    +0.000 NA
ENDROOT
BRANCH   1  17
ATOM     16  O   UNL     1      -0.490  13.249  18.724  0.00  0.00    +0.000 OA
ATOM     17  C   UNL     1       0.320  12.977  19.597  0.00  0.00    +0.000 C 
ATOM     18  N   UNL     1       1.259  13.868  20.072  0.00  0.00    +0.000 N 
ATOM     19  H   UNL     1       2.075  13.497  20.551  0.00  0.00    +0.000 HD
BRANCH  18  20
ATOM     20  C   UNL     1       1.387  15.198  19.511  0.00  0.00    +0.000 C 
BRANCH  20  21
ATOM     21  C   UNL     1       2.837  15.488  19.116  0.00  0.00    +0.000 C 
BRANCH  21  22
ATOM     22  O   UNL     1       3.516  16.084  20.233  0.00  0.00    +0.000 OA
ATOM     23  H   UNL     1       2.914  16.054  20.998  0.00  0.00    +0.000 HD
ENDBRANCH  21  22
BRANCH  21  24
ATOM     24  C   UNL     1       3.547  14.205  18.663  0.00  0.00    +0.000 C 
BRANCH  24  25
ATOM     25  O   UNL     1       2.964  13.676  17.475  0.00  0.00    +0.000 OA
ATOM     26  H   UNL     1       2.165  14.194  17.274  0.00  0.00    +0.000 HD
ENDBRANCH  24  25
ENDBRANCH  21  24
ENDBRANCH  20  21
ENDBRANCH  18  20
ENDBRANCH   1  17
BRANCH  12  27
ATOM     27  C   UNL     1       3.259   3.991  17.462  0.00  0.00    +0.000 C 
BRANCH  27  28
ATOM     28  C   UNL     1       4.701   4.331  17.155  0.00  0.00    +0.000 A 
ATOM     29  C   UNL     1       5.214   4.125  15.869  0.00  0.00    +0.000 A 
ATOM     30  C   UNL     1       6.550   4.399  15.599  0.00  0.00    +0.000 A 
ATOM     31  F   UNL     1       7.027   4.192  14.365  0.00  0.00    +0.000 F 
ATOM     32  C   UNL     1       7.399   4.882  16.586  0.00  0.00    +0.000 A 
ATOM     33  C   UNL     1       6.910   5.106  17.880  0.00  0.00    +0.000 A 
ATOM     34  C   UNL     1       5.559   4.822  18.155  0.00  0.00    +0.000 A 
BRANCH  33  35
ATOM     35  C   UNL     1       7.811   5.643  18.964  0.00  0.00    +0.000 C 
ATOM     36  F   UNL     1       8.890   4.852  19.220  0.00  0.00    +0.000 F 
ATOM     37  F   UNL     1       8.315   6.871  18.656  0.00  0.00    +0.000 F 
ATOM     38  F   UNL     1       7.166   5.792  20.153  0.00  0.00    +0.000 F 
ENDBRANCH  33  35
ENDBRANCH  27  28
ENDBRANCH  12  27
TORSDOF 9
ENDMDL
MODEL 4
REMARK VINA RESULT:      -8.9      1.406      2.862
REMARK  Name = 
REMARK  9 active torsions:
REMARK  status: ('A' for Active; 'I' for Inactive)
REMARK    1  A    between atoms: C_2  and  C_9
REMARK    2  A    between atoms: N_3  and  C_4
REMARK    3  A    between atoms: C_4  and  C_5
REMARK    4  A    between atoms: C_5  and  O_6
REMARK    5  A    between atoms: C_5  and  C_7
REMARK    6  A    between atoms: C_7  and  O_8
REMARK    7  A    between atoms: C_20  and  C_21
REMARK    8  A    between atoms: C_21  and  C_22
REMARK    9  A    between atoms: C_27  and  C_28
REMARK                            x       y       z     vdW  Elec       q    Type
REMARK                         _______ _______ _______ _____ _____    ______ ____
ROOT
ATOM      1  C   UNL     1       0.521  11.165  20.268  0.00  0.00    +0.000 A 
ATOM      2  C   UNL     1      -0.089  10.929  21.508  0.00  0.00    +0.000 A 
ATOM      3  C   UNL     1      -0.094   9.645  22.060  0.00  0.00    +0.000 A 
ATOM      4  C   UNL     1       0.506   8.582  21.381  0.00  0.00    +0.000 A 
ATOM      5  C   UNL     1       1.098   8.800  20.144  0.00  0.00    +0.000 A 
ATOM      6  C   UNL     1       1.087  10.088  19.590  0.00  0.00    +0.000 A 
ATOM      7  C   UNL     1       1.828  10.080  18.298  0.00  0.00    +0.000 C 
ATOM      8  C   UNL     1       2.040   8.576  18.061  0.00  0.00    +0.000 C 
ATOM      9  N   UNL     1       1.769   7.865  19.317  0.00  0.00    +0.000 N 
ATOM     10  C   UNL     1       1.959   6.489  19.456  0.00  0.00    +0.000 A 
ATOM     11  C   UNL     1       2.557   5.730  18.443  0.00  0.00    +0.000 A 
ATOM     12  C   UNL     1       2.744   4.346  18.581  0.00  0.00    +0.000 A 
ATOM     13  C   UNL     1       2.328   3.743  19.764  0.00  0.00    +0.000 A 
ATOM     14  C   UNL     1       1.757   4.542  20.732  0.00  0.00    +0.000 A 
ATOM     15  N   UNL     1       1.572   5.874  20.598  0.00  0.00    +0.000 NA
ENDROOT
BRANCH   1  17
ATOM     16  O   UNL     1      -0.329  12.974  18.999  0.00  0.00    +0.000 OA
ATOM     17  C   UNL     1       0.566  12.542  19.710  0.00  0.00    +0.000 C 
ATOM     18  N   UNL     1       1.697  13.260  20.038  0.00  0.00    +0.000 N 
ATOM     19  H   UNL     1       2.514  12.749  20.357  0.00  0.00    +0.000 HD
BRANCH  18  20
ATOM     20  C   UNL     1       1.930  14.585  19.499  0.00  0.00    +0.000 C 
BRANCH  20  21
ATOM     21  C   UNL     1       1.345  15.659  20.419  0.00  0.00    +0.000 C 
BRANCH  21  22
ATOM     22  O   UNL     1       0.057  16.053  19.920  0.00  0.00    +0.000 OA
ATOM     23  H   UNL     1      -0.492  15.251  19.850  0.00  0.00    +0.000 HD
ENDBRANCH  21  22
BRANCH  21  24
ATOM     24  C   UNL     1       1.242  15.148  21.862  0.00  0.00    +0.000 C 
BRANCH  24  25
ATOM     25  O   UNL     1       2.527  14.868  22.410  0.00  0.00    +0.000 OA
ATOM     26  H   UNL     1       3.195  15.312  21.860  0.00  0.00    +0.000 HD
ENDBRANCH  24  25
ENDBRANCH  21  24
ENDBRANCH  20  21
ENDBRANCH  18  20
ENDBRANCH   1  17
BRANCH  12  27
ATOM     27  C   UNL     1       3.407   3.546  17.486  0.00  0.00    +0.000 C 
BRANCH  27  28
ATOM     28  C   UNL     1       4.800   4.031  17.150  0.00  0.00    +0.000 A 
ATOM     29  C   UNL     1       5.290   3.914  15.844  0.00  0.00    +0.000 A 
ATOM     30  C   UNL     1       6.585   4.322  15.545  0.00  0.00    +0.000 A 
ATOM     31  F   UNL     1       7.040   4.200  14.293  0.00  0.00    +0.000 F 
ATOM     32  C   UNL     1       7.416   4.852  16.524  0.00  0.00    +0.000 A 
ATOM     33  C   UNL     1       6.948   4.988  17.838  0.00  0.00    +0.000 A 
ATOM     34  C   UNL     1       5.639   4.570  18.141  0.00  0.00    +0.000 A 
BRANCH  33  35
ATOM     35  C   UNL     1       7.829   5.575  18.914  0.00  0.00    +0.000 C 
ATOM     36  F   UNL     1       8.945   4.838  19.169  0.00  0.00    +0.000 F 
ATOM     37  F   UNL     1       8.272   6.824  18.596  0.00  0.00    +0.000 F 
ATOM     38  F   UNL     1       7.183   5.700  20.106  0.00  0.00    +0.000 F 
ENDBRANCH  33  35
ENDBRANCH  27  28
ENDBRANCH  12  27
TORSDOF 9
ENDMDL
MODEL 5
REMARK VINA RESULT:      -8.9      0.981      2.214
REMARK  Name = 
REMARK  9 active torsions:
REMARK  status: ('A' for Active; 'I' for Inactive)
REMARK    1  A    between atoms: C_2  and  C_9
REMARK    2  A    between atoms: N_3  and  C_4
REMARK    3  A    between atoms: C_4  and  C_5
REMARK    4  A    between atoms: C_5  and  O_6
REMARK    5  A    between atoms: C_5  and  C_7
REMARK    6  A    between atoms: C_7  and  O_8
REMARK    7  A    between atoms: C_20  and  C_21
REMARK    8  A    between atoms: C_21  and  C_22
REMARK    9  A    between atoms: C_27  and  C_28
REMARK                            x       y       z     vdW  Elec       q    Type
REMARK                         _______ _______ _______ _____ _____    ______ ____
ROOT
ATOM      1  C   UNL     1       0.584  11.100  19.854  0.00  0.00    +0.000 A 
ATOM      2  C   UNL     1       0.012  10.964  21.127  0.00  0.00    +0.000 A 
ATOM      3  C   UNL     1       0.090   9.747  21.810  0.00  0.00    +0.000 A 
ATOM      4  C   UNL     1       0.736   8.652  21.230  0.00  0.00    +0.000 A 
ATOM      5  C   UNL     1       1.291   8.770  19.963  0.00  0.00    +0.000 A 
ATOM      6  C   UNL     1       1.196   9.990  19.279  0.00  0.00    +0.000 A 
ATOM      7  C   UNL     1       1.912   9.886  17.977  0.00  0.00    +0.000 C 
ATOM      8  C   UNL     1       2.204   8.379  17.892  0.00  0.00    +0.000 C 
ATOM      9  N   UNL     1       1.997   7.791  19.222  0.00  0.00    +0.000 N 
ATOM     10  C   UNL     1       2.268   6.450  19.499  0.00  0.00    +0.000 A 
ATOM     11  C   UNL     1       2.888   5.621  18.556  0.00  0.00    +0.000 A 
ATOM     12  C   UNL     1       3.156   4.272  18.833  0.00  0.00    +0.000 A 
ATOM     13  C   UNL     1       2.797   3.775  20.082  0.00  0.00    +0.000 A 
ATOM     14  C   UNL     1       2.200   4.640  20.975  0.00  0.00    +0.000 A 
ATOM     15  N   UNL     1       1.938   5.938  20.708  0.00  0.00    +0.000 NA
ENDROOT
BRANCH   1  17
ATOM     16  O   UNL     1      -0.326  12.670  18.332  0.00  0.00    +0.000 OA
ATOM     17  C   UNL     1       0.540  12.411  19.155  0.00  0.00    +0.000 C 
ATOM     18  N   UNL     1       1.559  13.278  19.491  0.00  0.00    +0.000 N 
ATOM     19  H   UNL     1       2.392  12.894  19.927  0.00  0.00    +0.000 HD
BRANCH  18  20
ATOM     20  C   UNL     1       1.706  14.559  18.830  0.00  0.00    +0.000 C 
BRANCH  20  21
ATOM     21  C   UNL     1       3.165  14.811  18.445  0.00  0.00    +0.000 C 
BRANCH  21  22
ATOM     22  O   UNL     1       3.677  13.653  17.767  0.00  0.00    +0.000 OA
ATOM     23  H   UNL     1       3.048  12.923  17.910  0.00  0.00    +0.000 HD
ENDBRANCH  21  22
BRANCH  21  24
ATOM     24  C   UNL     1       3.291  16.062  17.565  0.00  0.00    +0.000 C 
BRANCH  24  25
ATOM     25  O   UNL     1       4.060  17.076  18.205  0.00  0.00    +0.000 OA
ATOM     26  H   UNL     1       4.761  17.358  17.591  0.00  0.00    +0.000 HD
ENDBRANCH  24  25
ENDBRANCH  21  24
ENDBRANCH  20  21
ENDBRANCH  18  20
ENDBRANCH   1  17
BRANCH  12  27
ATOM     27  C   UNL     1       3.842   3.397  17.811  0.00  0.00    +0.000 C 
BRANCH  27  28
ATOM     28  C   UNL     1       4.938   4.112  17.052  0.00  0.00    +0.000 A 
ATOM     29  C   UNL     1       5.322   3.663  15.783  0.00  0.00    +0.000 A 
ATOM     30  C   UNL     1       6.358   4.295  15.104  0.00  0.00    +0.000 A 
ATOM     31  F   UNL     1       6.717   3.851  13.893  0.00  0.00    +0.000 F 
ATOM     32  C   UNL     1       7.028   5.377  15.659  0.00  0.00    +0.000 A 
ATOM     33  C   UNL     1       6.658   5.853  16.924  0.00  0.00    +0.000 A 
ATOM     34  C   UNL     1       5.614   5.209  17.615  0.00  0.00    +0.000 A 
BRANCH  33  35
ATOM     35  C   UNL     1       7.362   7.036  17.541  0.00  0.00    +0.000 C 
ATOM     36  F   UNL     1       8.064   6.728  18.667  0.00  0.00    +0.000 F 
ATOM     37  F   UNL     1       8.258   7.607  16.688  0.00  0.00    +0.000 F 
ATOM     38  F   UNL     1       6.501   8.029  17.897  0.00  0.00    +0.000 F 
ENDBRANCH  33  35
ENDBRANCH  27  28
ENDBRANCH  12  27
TORSDOF 9
ENDMDL
MODEL 6
REMARK VINA RESULT:      -8.9      1.181      2.427
REMARK  Name = 
REMARK  9 active torsions:
REMARK  status: ('A' for Active; 'I' for Inactive)
REMARK    1  A    between atoms: C_2  and  C_9
REMARK    2  A    between atoms: N_3  and  C_4
REMARK    3  A    between atoms: C_4  and  C_5
REMARK    4  A    between atoms: C_5  and  O_6
REMARK    5  A    between atoms: C_5  and  C_7
REMARK    6  A    between atoms: C_7  and  O_8
REMARK    7  A    between atoms: C_20  and  C_21
REMARK    8  A    between atoms: C_21  and  C_22
REMARK    9  A    between atoms: C_27  and  C_28
REMARK                            x       y       z     vdW  Elec       q    Type
REMARK                         _______ _______ _______ _____ _____    ______ ____
ROOT
ATOM      1  C   UNL     1       0.523  10.868  20.246  0.00  0.00    +0.000 A 
ATOM      2  C   UNL     1       0.054  10.645  21.547  0.00  0.00    +0.000 A 
ATOM      3  C   UNL     1       0.211   9.394  22.150  0.00  0.00    +0.000 A 
ATOM      4  C   UNL     1       0.835   8.351  21.459  0.00  0.00    +0.000 A 
ATOM      5  C   UNL     1       1.287   8.556  20.163  0.00  0.00    +0.000 A 
ATOM      6  C   UNL     1       1.114   9.809  19.561  0.00  0.00    +0.000 A 
ATOM      7  C   UNL     1       1.728   9.799  18.204  0.00  0.00    +0.000 C 
ATOM      8  C   UNL     1       2.046   8.308  18.009  0.00  0.00    +0.000 C 
ATOM      9  N   UNL     1       1.955   7.639  19.314  0.00  0.00    +0.000 N 
ATOM     10  C   UNL     1       2.276   6.292  19.490  0.00  0.00    +0.000 A 
ATOM     11  C   UNL     1       2.839   5.535  18.456  0.00  0.00    +0.000 A 
ATOM     12  C   UNL     1       3.156   4.179  18.632  0.00  0.00    +0.000 A 
ATOM     13  C   UNL     1       2.906   3.603  19.873  0.00  0.00    +0.000 A 
ATOM     14  C   UNL     1       2.361   4.400  20.859  0.00  0.00    +0.000 A 
ATOM     15  N   UNL     1       2.051   5.703  20.688  0.00  0.00    +0.000 NA
ENDROOT
BRANCH   1  17
ATOM     16  O   UNL     1      -0.433  12.449  18.764  0.00  0.00    +0.000 OA
ATOM     17  C   UNL     1       0.397  12.216  19.630  0.00  0.00    +0.000 C 
ATOM     18  N   UNL     1       1.301  13.149  20.094  0.00  0.00    +0.000 N 
ATOM     19  H   UNL     1       2.137  12.815  20.565  0.00  0.00    +0.000 HD
BRANCH  18  20
ATOM     20  C   UNL     1       1.364  14.482  19.529  0.00  0.00    +0.000 C 
BRANCH  20  21
ATOM     21  C   UNL     1       2.800  14.843  19.142  0.00  0.00    +0.000 C 
BRANCH  21  22
ATOM     22  O   UNL     1       3.583  14.996  20.337  0.00  0.00    +0.000 OA
ATOM     23  H   UNL     1       3.267  14.340  20.984  0.00  0.00    +0.000 HD
ENDBRANCH  21  22
BRANCH  21  24
ATOM     24  C   UNL     1       3.404  13.774  18.222  0.00  0.00    +0.000 C 
BRANCH  24  25
ATOM     25  O   UNL     1       2.420  13.206  17.364  0.00  0.00    +0.000 OA
ATOM     26  H   UNL     1       2.087  12.393  17.781  0.00  0.00    +0.000 HD
ENDBRANCH  24  25
ENDBRANCH  21  24
ENDBRANCH  20  21
ENDBRANCH  18  20
ENDBRANCH   1  17
BRANCH  12  27
ATOM     27  C   UNL     1       3.780   3.383  17.511  0.00  0.00    +0.000 C 
BRANCH  27  28
ATOM     28  C   UNL     1       4.917   4.106  16.824  0.00  0.00    +0.000 A 
ATOM     29  C   UNL     1       5.363   3.682  15.566  0.00  0.00    +0.000 A 
ATOM     30  C   UNL     1       6.434   4.322  14.954  0.00  0.00    +0.000 A 
ATOM     31  F   UNL     1       6.852   3.902  13.754  0.00  0.00    +0.000 F 
ATOM     32  C   UNL     1       7.081   5.388  15.567  0.00  0.00    +0.000 A 
ATOM     33  C   UNL     1       6.651   5.838  16.821  0.00  0.00    +0.000 A 
ATOM     34  C   UNL     1       5.569   5.187  17.444  0.00  0.00    +0.000 A 
BRANCH  33  35
ATOM     35  C   UNL     1       7.329   7.004  17.499  0.00  0.00    +0.000 C 
ATOM     36  F   UNL     1       8.015   6.658  18.623  0.00  0.00    +0.000 F 
ATOM     37  F   UNL     1       8.232   7.620  16.686  0.00  0.00    +0.000 F 
ATOM     38  F   UNL     1       6.449   7.970  17.880  0.00  0.00    +0.000 F 
ENDBRANCH  33  35
ENDBRANCH  27  28
ENDBRANCH  12  27
TORSDOF 9
ENDMDL
MODEL 7
REMARK VINA RESULT:      -8.9      0.838      2.443
REMARK  Name = 
REMARK  9 active torsions:
REMARK  status: ('A' for Active; 'I' for Inactive)
REMARK    1  A    between atoms: C_2  and  C_9
REMARK    2  A    between atoms: N_3  and  C_4
REMARK    3  A    between atoms: C_4  and  C_5
REMARK    4  A    between atoms: C_5  and  O_6
REMARK    5  A    between atoms: C_5  and  C_7
REMARK    6  A    between atoms: C_7  and  O_8
REMARK    7  A    between atoms: C_20  and  C_21
REMARK    8  A    between atoms: C_21  and  C_22
REMARK    9  A    between atoms: C_27  and  C_28
REMARK                            x       y       z     vdW  Elec       q    Type
REMARK                         _______ _______ _______ _____ _____    ______ ____
ROOT
ATOM      1  C   UNL     1       0.479  11.397  20.461  0.00  0.00    +0.000 A 
ATOM      2  C   UNL     1       0.026  11.157  21.766  0.00  0.00    +0.000 A 
ATOM      3  C   UNL     1       0.123   9.879  22.324  0.00  0.00    +0.000 A 
ATOM      4  C   UNL     1       0.671   8.827  21.586  0.00  0.00    +0.000 A 
ATOM      5  C   UNL     1       1.107   9.048  20.286  0.00  0.00    +0.000 A 
ATOM      6  C   UNL     1       0.993  10.330  19.730  0.00  0.00    +0.000 A 
ATOM      7  C   UNL     1       1.578  10.330  18.360  0.00  0.00    +0.000 C 
ATOM      8  C   UNL     1       1.805   8.830  18.109  0.00  0.00    +0.000 C 
ATOM      9  N   UNL     1       1.704   8.124  19.393  0.00  0.00    +0.000 N 
ATOM     10  C   UNL     1       1.950   6.756  19.519  0.00  0.00    +0.000 A 
ATOM     11  C   UNL     1       2.447   6.004  18.447  0.00  0.00    +0.000 A 
ATOM     12  C   UNL     1       2.689   4.627  18.572  0.00  0.00    +0.000 A 
ATOM     13  C   UNL     1       2.433   4.025  19.800  0.00  0.00    +0.000 A 
ATOM     14  C   UNL     1       1.956   4.817  20.823  0.00  0.00    +0.000 A 
ATOM     15  N   UNL     1       1.717   6.141  20.702  0.00  0.00    +0.000 NA
ENDROOT
BRANCH   1  17
ATOM     16  O   UNL     1      -0.613  13.220  19.418  0.00  0.00    +0.000 OA
ATOM     17  C   UNL     1       0.418  12.769  19.893  0.00  0.00    +0.000 C 
ATOM     18  N   UNL     1       1.611  13.460  19.923  0.00  0.00    +0.000 N 
ATOM     19  H   UNL     1       2.470  12.930  20.038  0.00  0.00    +0.000 HD
BRANCH  18  20
ATOM     20  C   UNL     1       1.736  14.774  19.327  0.00  0.00    +0.000 C 
BRANCH  20  21
ATOM     21  C   UNL     1       3.185  15.056  18.924  0.00  0.00    +0.000 C 
BRANCH  21  22
ATOM     22  O   UNL     1       3.474  14.361  17.700  0.00  0.00    +0.000 OA
ATOM     23  H   UNL     1       3.602  15.029  17.002  0.00  0.00    +0.000 HD
ENDBRANCH  21  22
BRANCH  21  24
ATOM     24  C   UNL     1       3.427  16.564  18.769  0.00  0.00    +0.000 C 
BRANCH  24  25
ATOM     25  O   UNL     1       4.796  16.849  18.499  0.00  0.00    +0.000 OA
ATOM     26  H   UNL     1       4.834  17.511  17.788  0.00  0.00    +0.000 HD
ENDBRANCH  24  25
ENDBRANCH  21  24
ENDBRANCH  20  21
ENDBRANCH  18  20
ENDBRANCH   1  17
BRANCH  12  27
ATOM     27  C   UNL     1       3.243   3.835  17.412  0.00  0.00    +0.000 C 
BRANCH  27  28
ATOM     28  C   UNL     1       4.672   4.193  17.072  0.00  0.00    +0.000 A 
ATOM     29  C   UNL     1       5.167   3.962  15.782  0.00  0.00    +0.000 A 
ATOM     30  C   UNL     1       6.493   4.253  15.482  0.00  0.00    +0.000 A 
ATOM     31  F   UNL     1       6.953   4.022  14.246  0.00  0.00    +0.000 F 
ATOM     32  C   UNL     1       7.350   4.776  16.441  0.00  0.00    +0.000 A 
ATOM     33  C   UNL     1       6.879   5.025  17.737  0.00  0.00    +0.000 A 
ATOM     34  C   UNL     1       5.539   4.725  18.043  0.00  0.00    +0.000 A 
BRANCH  33  35
ATOM     35  C   UNL     1       7.789   5.607  18.791  0.00  0.00    +0.000 C 
ATOM     36  F   UNL     1       7.173   5.817  19.988  0.00  0.00    +0.000 F 
ATOM     37  F   UNL     1       8.855   4.801  19.057  0.00  0.00    +0.000 F 
ATOM     38  F   UNL     1       8.311   6.809  18.424  0.00  0.00    +0.000 F 
ENDBRANCH  33  35
ENDBRANCH  27  28
ENDBRANCH  12  27
TORSDOF 9
ENDMDL
MODEL 8
REMARK VINA RESULT:      -8.8      0.740      1.162
REMARK  Name = 
REMARK  9 active torsions:
REMARK  status: ('A' for Active; 'I' for Inactive)
REMARK    1  A    between atoms: C_2  and  C_9
REMARK    2  A    between atoms: N_3  and  C_4
REMARK    3  A    between atoms: C_4  and  C_5
REMARK    4  A    between atoms: C_5  and  O_6
REMARK    5  A    between atoms: C_5  and  C_7
REMARK    6  A    between atoms: C_7  and  O_8
REMARK    7  A    between atoms: C_20  and  C_21
REMARK    8  A    between atoms: C_21  and  C_22
REMARK    9  A    between atoms: C_27  and  C_28
REMARK                            x       y       z     vdW  Elec       q    Type
REMARK                         _______ _______ _______ _____ _____    ______ ____
ROOT
ATOM      1  C   UNL     1       0.549  10.912  20.201  0.00  0.00    +0.000 A 
ATOM      2  C   UNL     1       0.077  10.788  21.514  0.00  0.00    +0.000 A 
ATOM      3  C   UNL     1       0.198   9.575  22.197  0.00  0.00    +0.000 A 
ATOM      4  C   UNL     1       0.788   8.471  21.576  0.00  0.00    +0.000 A 
ATOM      5  C   UNL     1       1.243   8.577  20.268  0.00  0.00    +0.000 A 
ATOM      6  C   UNL     1       1.105   9.793  19.586  0.00  0.00    +0.000 A 
ATOM      7  C   UNL     1       1.716   9.676  18.233  0.00  0.00    +0.000 C 
ATOM      8  C   UNL     1       1.988   8.166  18.135  0.00  0.00    +0.000 C 
ATOM      9  N   UNL     1       1.881   7.587  19.481  0.00  0.00    +0.000 N 
ATOM     10  C   UNL     1       2.162   6.245  19.745  0.00  0.00    +0.000 A 
ATOM     11  C   UNL     1       2.699   5.406  18.761  0.00  0.00    +0.000 A 
ATOM     12  C   UNL     1       2.976   4.056  19.026  0.00  0.00    +0.000 A 
ATOM     13  C   UNL     1       2.712   3.570  20.302  0.00  0.00    +0.000 A 
ATOM     14  C   UNL     1       2.195   4.445  21.234  0.00  0.00    +0.000 A 
ATOM     15  N   UNL     1       1.923   5.743  20.979  0.00  0.00    +0.000 NA
ENDROOT
BRANCH   1  17
ATOM     16  O   UNL     1      -0.284  12.386  18.545  0.00  0.00    +0.000 OA
ATOM     17  C   UNL     1       0.461  12.219  19.498  0.00  0.00    +0.000 C 
ATOM     18  N   UNL     1       1.301  13.196  19.992  0.00  0.00    +0.000 N 
ATOM     19  H   UNL     1       2.092  12.908  20.559  0.00  0.00    +0.000 HD
BRANCH  18  20
ATOM     20  C   UNL     1       1.397  14.496  19.359  0.00  0.00    +0.000 C 
BRANCH  20  21
ATOM     21  C   UNL     1       2.859  14.886  19.131  0.00  0.00    +0.000 C 
BRANCH  21  22
ATOM     22  O   UNL     1       3.554  14.850  20.388  0.00  0.00    +0.000 OA
ATOM     23  H   UNL     1       3.621  13.918  20.664  0.00  0.00    +0.000 HD
ENDBRANCH  21  22
BRANCH  21  24
ATOM     24  C   UNL     1       3.521  13.952  18.110  0.00  0.00    +0.000 C 
BRANCH  24  25
ATOM     25  O   UNL     1       2.552  13.238  17.348  0.00  0.00    +0.000 OA
ATOM     26  H   UNL     1       1.792  13.049  17.925  0.00  0.00    +0.000 HD
ENDBRANCH  24  25
ENDBRANCH  21  24
ENDBRANCH  20  21
ENDBRANCH  18  20
ENDBRANCH   1  17
BRANCH  12  27
ATOM     27  C   UNL     1       3.573   3.169  17.959  0.00  0.00    +0.000 C 
BRANCH  27  28
ATOM     28  C   UNL     1       4.843   3.730  17.357  0.00  0.00    +0.000 A 
ATOM     29  C   UNL     1       5.845   4.248  18.186  0.00  0.00    +0.000 A 
ATOM     30  C   UNL     1       6.993   4.801  17.630  0.00  0.00    +0.000 A 
ATOM     31  F   UNL     1       7.940   5.297  18.435  0.00  0.00    +0.000 F 
ATOM     32  C   UNL     1       7.175   4.850  16.254  0.00  0.00    +0.000 A 
ATOM     33  C   UNL     1       6.191   4.331  15.401  0.00  0.00    +0.000 A 
ATOM     34  C   UNL     1       5.026   3.777  15.964  0.00  0.00    +0.000 A 
BRANCH  33  35
ATOM     35  C   UNL     1       6.374   4.360  13.904  0.00  0.00    +0.000 C 
ATOM     36  F   UNL     1       7.338   5.228  13.488  0.00  0.00    +0.000 F 
ATOM     37  F   UNL     1       6.726   3.144  13.401  0.00  0.00    +0.000 F 
ATOM     38  F   UNL     1       5.238   4.721  13.246  0.00  0.00    +0.000 F 
ENDBRANCH  33  35
ENDBRANCH  27  28
ENDBRANCH  12  27
TORSDOF 9
ENDMDL
MODEL 9
REMARK VINA RESULT:      -8.8      1.077      2.648
REMARK  Name = 
REMARK  9 active torsions:
REMARK  status: ('A' for Active; 'I' for Inactive)
REMARK    1  A    between atoms: C_2  and  C_9
REMARK    2  A    between atoms: N_3  and  C_4
REMARK    3  A    between atoms: C_4  and  C_5
REMARK    4  A    between atoms: C_5  and  O_6
REMARK    5  A    between atoms: C_5  and  C_7
REMARK    6  A    between atoms: C_7  and  O_8
REMARK    7  A    between atoms: C_20  and  C_21
REMARK    8  A    between atoms: C_21  and  C_22
REMARK    9  A    between atoms: C_27  and  C_28
REMARK                            x       y       z     vdW  Elec       q    Type
REMARK                         _______ _______ _______ _____ _____    ______ ____
ROOT
ATOM      1  C   UNL     1       0.375  11.157  21.022  0.00  0.00    +0.000 A 
ATOM      2  C   UNL     1      -0.081  10.785  22.294  0.00  0.00    +0.000 A 
ATOM      3  C   UNL     1       0.030   9.460  22.724  0.00  0.00    +0.000 A 
ATOM      4  C   UNL     1       0.595   8.492  21.890  0.00  0.00    +0.000 A 
ATOM      5  C   UNL     1       1.034   8.845  20.621  0.00  0.00    +0.000 A 
ATOM      6  C   UNL     1       0.906  10.173  20.192  0.00  0.00    +0.000 A 
ATOM      7  C   UNL     1       1.496  10.315  18.832  0.00  0.00    +0.000 C 
ATOM      8  C   UNL     1       1.743   8.850  18.436  0.00  0.00    +0.000 C 
ATOM      9  N   UNL     1       1.646   8.021  19.645  0.00  0.00    +0.000 N 
ATOM     10  C   UNL     1       1.909   6.650  19.637  0.00  0.00    +0.000 A 
ATOM     11  C   UNL     1       2.420   6.013  18.499  0.00  0.00    +0.000 A 
ATOM     12  C   UNL     1       2.680   4.633  18.490  0.00  0.00    +0.000 A 
ATOM     13  C   UNL     1       2.425   3.910  19.651  0.00  0.00    +0.000 A 
ATOM     14  C   UNL     1       1.934   4.593  20.744  0.00  0.00    +0.000 A 
ATOM     15  N   UNL     1       1.679   5.919  20.752  0.00  0.00    +0.000 NA
ENDROOT
BRANCH   1  17
ATOM     16  O   UNL     1      -0.701  13.031  20.052  0.00  0.00    +0.000 OA
ATOM     17  C   UNL     1       0.299  12.578  20.590  0.00  0.00    +0.000 C 
ATOM     18  N   UNL     1       1.443  13.313  20.821  0.00  0.00    +0.000 N 
ATOM     19  H   UNL     1       2.313  12.812  20.975  0.00  0.00    +0.000 HD
BRANCH  18  20
ATOM     20  C   UNL     1       1.557  14.687  20.376  0.00  0.00    +0.000 C 
BRANCH  20  21
ATOM     21  C   UNL     1       1.489  14.775  18.850  0.00  0.00    +0.000 C 
BRANCH  21  22
ATOM     22  O   UNL     1       0.263  15.421  18.472  0.00  0.00    +0.000 OA
ATOM     23  H   UNL     1       0.289  16.333  18.815  0.00  0.00    +0.000 HD
ENDBRANCH  21  22
BRANCH  21  24
ATOM     24  C   UNL     1       2.702  15.530  18.291  0.00  0.00    +0.000 C 
BRANCH  24  25
ATOM     25  O   UNL     1       3.387  14.762  17.305  0.00  0.00    +0.000 OA
ATOM     26  H   UNL     1       2.745  14.163  16.888  0.00  0.00    +0.000 HD
ENDBRANCH  24  25
ENDBRANCH  21  24
ENDBRANCH  20  21
ENDBRANCH  18  20
ENDBRANCH   1  17
BRANCH  12  27
ATOM     27  C   UNL     1       3.248   3.965  17.261  0.00  0.00    +0.000 C 
BRANCH  27  28
ATOM     28  C   UNL     1       4.682   4.354  16.979  0.00  0.00    +0.000 A 
ATOM     29  C   UNL     1       5.207   4.219  15.687  0.00  0.00    +0.000 A 
ATOM     30  C   UNL     1       6.537   4.537  15.438  0.00  0.00    +0.000 A 
ATOM     31  F   UNL     1       7.025   4.398  14.200  0.00  0.00    +0.000 F 
ATOM     32  C   UNL     1       7.370   4.995  16.451  0.00  0.00    +0.000 A 
ATOM     33  C   UNL     1       6.869   5.148  17.751  0.00  0.00    +0.000 A 
ATOM     34  C   UNL     1       5.524   4.820  18.005  0.00  0.00    +0.000 A 
BRANCH  33  35
ATOM     35  C   UNL     1       7.751   5.657  18.864  0.00  0.00    +0.000 C 
ATOM     36  F   UNL     1       8.289   6.884  18.616  0.00  0.00    +0.000 F 
ATOM     37  F   UNL     1       7.080   5.777  20.043  0.00  0.00    +0.000 F 
ATOM     38  F   UNL     1       8.804   4.832  19.115  0.00  0.00    +0.000 F 
ENDBRANCH  33  35
ENDBRANCH  27  28
ENDBRANCH  12  27
TORSDOF 9
ENDMDL
