MODEL 1
REMARK VINA RESULT:      -8.0      0.000      0.000
REMARK  Name = 
REMARK  7 active torsions:
REMARK  status: ('A' for Active; 'I' for Inactive)
REMARK    1  A    between atoms: C_1  and  C_2
REMARK    2  A    between atoms: C_5  and  N_6
REMARK    3  A    between atoms: C_7  and  C_8
REMARK    4  A    between atoms: C_10  and  C_11
REMARK    5  A    between atoms: N_12  and  N_13
REMARK    6  A    between atoms: C_14  and  C_16
REMARK    7  A    between atoms: C_22  and  C_23
REMARK                            x       y       z     vdW  Elec       q    Type
REMARK                         _______ _______ _______ _____ _____    ______ ____
ROOT
ATOM      1  N   UNL     1      10.017  12.770  18.434  0.00  0.00    +0.000 N 
ATOM      2  C   UNL     1      10.832  11.858  19.108  0.00  0.00    +0.000 A 
ATOM      3  C   UNL     1      12.109  12.152  19.830  0.00  0.00    +0.000 C 
ATOM      4  C   UNL     1      10.208  10.624  19.076  0.00  0.00    +0.000 A 
ATOM      5  C   UNL     1       8.971  10.749  18.398  0.00  0.00    +0.000 A 
ATOM      6  C   UNL     1       8.858  12.081  18.011  0.00  0.00    +0.000 A 
ATOM      7  C   UNL     1       7.779  12.691  17.175  0.00  0.00    +0.000 C 
ENDROOT
BRANCH   1  12
ATOM      8  C   UNL     1      11.230  18.308  17.406  0.00  0.00    +0.000 C 
ATOM      9  C   UNL     1      10.900  16.874  17.684  0.00  0.00    +0.000 A 
ATOM     10  C   UNL     1      10.136  16.506  18.792  0.00  0.00    +0.000 A 
ATOM     11  C   UNL     1       9.877  15.158  19.057  0.00  0.00    +0.000 A 
ATOM     12  C   UNL     1      10.318  14.157  18.183  0.00  0.00    +0.000 A 
ATOM     13  C   UNL     1      11.055  14.540  17.058  0.00  0.00    +0.000 A 
ATOM     14  C   UNL     1      11.372  15.879  16.828  0.00  0.00    +0.000 A 
ENDBRANCH   1  12
BRANCH   5  15
ATOM     15  C   UNL     1       8.005   9.693  18.139  0.00  0.00    +0.000 C 
ATOM     16  N   UNL     1       8.311   8.736  17.324  0.00  0.00    +0.000 NA
BRANCH  16  17
ATOM     17  N   UNL     1       7.357   7.770  17.124  0.00  0.00    +0.000 N 
ATOM     18  C   UNL     1       7.358   6.647  17.942  0.00  0.00    +0.000 C 
ATOM     19  O   UNL     1       8.152   6.446  18.860  0.00  0.00    +0.000 OA
ATOM     20  H   UNL     1       6.611   7.944  16.462  0.00  0.00    +0.000 HD
BRANCH  18  21
ATOM     21  C   UNL     1       6.293   5.634  17.693  0.00  0.00    +0.000 A 
ATOM     22  C   UNL     1       5.797   5.352  16.419  0.00  0.00    +0.000 A 
ATOM     23  C   UNL     1       4.827   4.367  16.304  0.00  0.00    +0.000 A 
ATOM     24  N   UNL     1       4.335   3.669  17.348  0.00  0.00    +0.000 NA
ATOM     25  C   UNL     1       4.847   3.946  18.564  0.00  0.00    +0.000 A 
ATOM     26  C   UNL     1       5.816   4.908  18.787  0.00  0.00    +0.000 A 
ENDBRANCH  18  21
ENDBRANCH  16  17
ENDBRANCH   5  15
TORSDOF 4
ENDMDL
MODEL 2
REMARK VINA RESULT:      -7.9      0.293      1.004
REMARK  Name = 
REMARK  7 active torsions:
REMARK  status: ('A' for Active; 'I' for Inactive)
REMARK    1  A    between atoms: C_1  and  C_2
REMARK    2  A    between atoms: C_5  and  N_6
REMARK    3  A    between atoms: C_7  and  C_8
REMARK    4  A    between atoms: C_10  and  C_11
REMARK    5  A    between atoms: N_12  and  N_13
REMARK    6  A    between atoms: C_14  and  C_16
REMARK    7  A    between atoms: C_22  and  C_23
REMARK                            x       y       z     vdW  Elec       q    Type
REMARK                         _______ _______ _______ _____ _____    ______ ____
ROOT
ATOM      1  N   UNL     1      10.024  12.804  18.371  0.00  0.00    +0.000 N 
ATOM      2  C   UNL     1      10.818  11.856  19.020  0.00  0.00    +0.000 A 
ATOM      3  C   UNL     1      12.089  12.107  19.768  0.00  0.00    +0.000 C 
ATOM      4  C   UNL     1      10.179  10.634  18.934  0.00  0.00    +0.000 A 
ATOM      5  C   UNL     1       8.953  10.799  18.246  0.00  0.00    +0.000 A 
ATOM      6  C   UNL     1       8.862  12.146  17.908  0.00  0.00    +0.000 A 
ATOM      7  C   UNL     1       7.801  12.802  17.083  0.00  0.00    +0.000 C 
ENDROOT
BRANCH   1  12
ATOM      8  C   UNL     1      11.298  18.372  17.614  0.00  0.00    +0.000 C 
ATOM      9  C   UNL     1      10.983  16.920  17.802  0.00  0.00    +0.000 A 
ATOM     10  C   UNL     1      11.498  15.949  16.943  0.00  0.00    +0.000 A 
ATOM     11  C   UNL     1      11.155  14.604  17.109  0.00  0.00    +0.000 A 
ATOM     12  C   UNL     1      10.345  14.195  18.176  0.00  0.00    +0.000 A 
ATOM     13  C   UNL     1       9.861  15.174  19.050  0.00  0.00    +0.000 A 
ATOM     14  C   UNL     1      10.147  16.525  18.846  0.00  0.00    +0.000 A 
ENDBRANCH   1  12
BRANCH   5  15
ATOM     15  C   UNL     1       7.977   9.767  17.935  0.00  0.00    +0.000 C 
ATOM     16  N   UNL     1       8.373   8.547  17.767  0.00  0.00    +0.000 NA
BRANCH  16  17
ATOM     17  N   UNL     1       7.402   7.620  17.478  0.00  0.00    +0.000 N 
ATOM     18  C   UNL     1       7.382   6.427  18.188  0.00  0.00    +0.000 C 
ATOM     19  O   UNL     1       8.172   6.128  19.085  0.00  0.00    +0.000 OA
ATOM     20  H   UNL     1       6.661   7.868  16.835  0.00  0.00    +0.000 HD
BRANCH  18  21
ATOM     21  C   UNL     1       6.301   5.459  17.847  0.00  0.00    +0.000 A 
ATOM     22  C   UNL     1       6.183   4.867  16.588  0.00  0.00    +0.000 A 
ATOM     23  C   UNL     1       5.155   3.957  16.393  0.00  0.00    +0.000 A 
ATOM     24  N   UNL     1       4.263   3.613  17.345  0.00  0.00    +0.000 NA
ATOM     25  C   UNL     1       4.413   4.184  18.558  0.00  0.00    +0.000 A 
ATOM     26  C   UNL     1       5.405   5.101  18.856  0.00  0.00    +0.000 A 
ENDBRANCH  18  21
ENDBRANCH  16  17
ENDBRANCH   5  15
TORSDOF 4
ENDMDL
MODEL 3
REMARK VINA RESULT:      -7.7      2.607     10.579
REMARK  Name = 
REMARK  7 active torsions:
REMARK  status: ('A' for Active; 'I' for Inactive)
REMARK    1  A    between atoms: C_1  and  C_2
REMARK    2  A    between atoms: C_5  and  N_6
REMARK    3  A    between atoms: C_7  and  C_8
REMARK    4  A    between atoms: C_10  and  C_11
REMARK    5  A    between atoms: N_12  and  N_13
REMARK    6  A    between atoms: C_14  and  C_16
REMARK    7  A    between atoms: C_22  and  C_23
REMARK                            x       y       z     vdW  Elec       q    Type
REMARK                         _______ _______ _______ _____ _____    ______ ____
ROOT
ATOM      1  N   UNL     1       5.072   4.945  17.186  0.00  0.00    +0.000 N 
ATOM      2  C   UNL     1       5.654   5.025  15.919  0.00  0.00    +0.000 A 
ATOM      3  C   UNL     1       5.122   4.447  14.645  0.00  0.00    +0.000 C 
ATOM      4  C   UNL     1       6.782   5.818  16.017  0.00  0.00    +0.000 A 
ATOM      5  C   UNL     1       6.914   6.273  17.351  0.00  0.00    +0.000 A 
ATOM      6  C   UNL     1       5.848   5.733  18.065  0.00  0.00    +0.000 A 
ATOM      7  C   UNL     1       5.602   5.835  19.537  0.00  0.00    +0.000 C 
ENDROOT
BRANCH   1  12
ATOM      8  C   UNL     1       0.414   1.867  18.608  0.00  0.00    +0.000 C 
ATOM      9  C   UNL     1       1.632   2.651  18.231  0.00  0.00    +0.000 A 
ATOM     10  C   UNL     1       2.870   2.031  18.057  0.00  0.00    +0.000 A 
ATOM     11  C   UNL     1       4.004   2.788  17.750  0.00  0.00    +0.000 A 
ATOM     12  C   UNL     1       3.911   4.170  17.543  0.00  0.00    +0.000 A 
ATOM     13  C   UNL     1       2.659   4.776  17.688  0.00  0.00    +0.000 A 
ATOM     14  C   UNL     1       1.539   4.033  18.061  0.00  0.00    +0.000 A 
ENDBRANCH   1  12
BRANCH   5  15
ATOM     15  C   UNL     1       7.964   7.126  17.885  0.00  0.00    +0.000 C 
ATOM     16  N   UNL     1       7.836   8.411  17.815  0.00  0.00    +0.000 NA
BRANCH  16  17
ATOM     17  N   UNL     1       8.860   9.160  18.338  0.00  0.00    +0.000 N 
ATOM     18  C   UNL     1       8.865  10.532  18.123  0.00  0.00    +0.000 C 
ATOM     19  O   UNL     1       8.002  11.150  17.499  0.00  0.00    +0.000 OA
ATOM     20  H   UNL     1       9.527   8.718  18.957  0.00  0.00    +0.000 HD
BRANCH  18  21
ATOM     21  C   UNL     1       9.991  11.303  18.724  0.00  0.00    +0.000 A 
ATOM     22  C   UNL     1      10.122  11.507  20.098  0.00  0.00    +0.000 A 
ATOM     23  C   UNL     1      11.227  12.214  20.547  0.00  0.00    +0.000 A 
ATOM     24  N   UNL     1      12.180  12.717  19.735  0.00  0.00    +0.000 NA
ATOM     25  C   UNL     1      12.040  12.487  18.414  0.00  0.00    +0.000 A 
ATOM     26  C   UNL     1      10.976  11.793  17.865  0.00  0.00    +0.000 A 
ENDBRANCH  18  21
ENDBRANCH  16  17
ENDBRANCH   5  15
TORSDOF 4
ENDMDL
MODEL 4
REMARK VINA RESULT:      -7.5      7.739     11.297
REMARK  Name = 
REMARK  7 active torsions:
REMARK  status: ('A' for Active; 'I' for Inactive)
REMARK    1  A    between atoms: C_1  and  C_2
REMARK    2  A    between atoms: C_5  and  N_6
REMARK    3  A    between atoms: C_7  and  C_8
REMARK    4  A    between atoms: C_10  and  C_11
REMARK    5  A    between atoms: N_12  and  N_13
REMARK    6  A    between atoms: C_14  and  C_16
REMARK    7  A    between atoms: C_22  and  C_23
REMARK                            x       y       z     vdW  Elec       q    Type
REMARK                         _______ _______ _______ _____ _____    ______ ____
ROOT
ATOM      1  N   UNL     1       2.885   6.428  18.938  0.00  0.00    +0.000 N 
ATOM      2  C   UNL     1       2.440   5.833  20.121  0.00  0.00    +0.000 A 
ATOM      3  C   UNL     1       2.815   4.484  20.647  0.00  0.00    +0.000 C 
ATOM      4  C   UNL     1       1.648   6.750  20.787  0.00  0.00    +0.000 A 
ATOM      5  C   UNL     1       1.603   7.952  20.040  0.00  0.00    +0.000 A 
ATOM      6  C   UNL     1       2.376   7.746  18.902  0.00  0.00    +0.000 A 
ATOM      7  C   UNL     1       2.557   8.682  17.750  0.00  0.00    +0.000 C 
ENDROOT
BRANCH   1  12
ATOM      8  C   UNL     1       6.079   3.902  14.861  0.00  0.00    +0.000 C 
ATOM      9  C   UNL     1       5.255   4.575  15.915  0.00  0.00    +0.000 A 
ATOM     10  C   UNL     1       5.572   5.852  16.379  0.00  0.00    +0.000 A 
ATOM     11  C   UNL     1       4.816   6.444  17.395  0.00  0.00    +0.000 A 
ATOM     12  C   UNL     1       3.688   5.801  17.919  0.00  0.00    +0.000 A 
ATOM     13  C   UNL     1       3.360   4.535  17.423  0.00  0.00    +0.000 A 
ATOM     14  C   UNL     1       4.153   3.914  16.457  0.00  0.00    +0.000 A 
ENDBRANCH   1  12
BRANCH   5  15
ATOM     15  C   UNL     1       0.880   9.167  20.381  0.00  0.00    +0.000 C 
ATOM     16  N   UNL     1      -0.201   9.088  21.087  0.00  0.00    +0.000 NA
BRANCH  16  17
ATOM     17  N   UNL     1      -0.835  10.270  21.375  0.00  0.00    +0.000 N 
ATOM     18  C   UNL     1      -0.768  10.768  22.670  0.00  0.00    +0.000 C 
ATOM     19  O   UNL     1      -0.165  10.232  23.600  0.00  0.00    +0.000 OA
ATOM     20  H   UNL     1      -1.242  10.808  20.621  0.00  0.00    +0.000 HD
BRANCH  18  21
ATOM     21  C   UNL     1      -1.461  12.062  22.930  0.00  0.00    +0.000 A 
ATOM     22  C   UNL     1      -2.779  12.139  23.382  0.00  0.00    +0.000 A 
ATOM     23  C   UNL     1      -3.312  13.398  23.619  0.00  0.00    +0.000 A 
ATOM     24  N   UNL     1      -2.633  14.549  23.437  0.00  0.00    +0.000 NA
ATOM     25  C   UNL     1      -1.354  14.445  23.020  0.00  0.00    +0.000 A 
ATOM     26  C   UNL     1      -0.730  13.239  22.756  0.00  0.00    +0.000 A 
ENDBRANCH  18  21
ENDBRANCH  16  17
ENDBRANCH   5  15
TORSDOF 4
ENDMDL
MODEL 5
REMARK VINA RESULT:      -7.3      7.817     11.308
REMARK  Name = 
REMARK  7 active torsions:
REMARK  status: ('A' for Active; 'I' for Inactive)
REMARK    1  A    between atoms: C_1  and  C_2
REMARK    2  A    between atoms: C_5  and  N_6
REMARK    3  A    between atoms: C_7  and  C_8
REMARK    4  A    between atoms: C_10  and  C_11
REMARK    5  A    between atoms: N_12  and  N_13
REMARK    6  A    between atoms: C_14  and  C_16
REMARK    7  A    between atoms: C_22  and  C_23
REMARK                            x       y       z     vdW  Elec       q    Type
REMARK                         _______ _______ _______ _____ _____    ______ ____
ROOT
ATOM      1  N   UNL     1       2.716   6.529  19.013  0.00  0.00    +0.000 N 
ATOM      2  C   UNL     1       2.279   5.941  20.202  0.00  0.00    +0.000 A 
ATOM      3  C   UNL     1       2.688   4.611  20.752  0.00  0.00    +0.000 C 
ATOM      4  C   UNL     1       1.456   6.845  20.847  0.00  0.00    +0.000 A 
ATOM      5  C   UNL     1       1.381   8.033  20.081  0.00  0.00    +0.000 A 
ATOM      6  C   UNL     1       2.169   7.832  18.952  0.00  0.00    +0.000 A 
ATOM      7  C   UNL     1       2.332   8.754  17.787  0.00  0.00    +0.000 C 
ENDROOT
BRANCH   1  12
ATOM      8  C   UNL     1       6.047   4.073  15.005  0.00  0.00    +0.000 C 
ATOM      9  C   UNL     1       5.176   4.694  16.053  0.00  0.00    +0.000 A 
ATOM     10  C   UNL     1       4.110   3.995  16.619  0.00  0.00    +0.000 A 
ATOM     11  C   UNL     1       3.282   4.609  17.563  0.00  0.00    +0.000 A 
ATOM     12  C   UNL     1       3.545   5.910  18.010  0.00  0.00    +0.000 A 
ATOM     13  C   UNL     1       4.636   6.589  17.460  0.00  0.00    +0.000 A 
ATOM     14  C   UNL     1       5.423   6.003  16.468  0.00  0.00    +0.000 A 
ENDBRANCH   1  12
BRANCH   5  15
ATOM     15  C   UNL     1       0.621   9.232  20.397  0.00  0.00    +0.000 C 
ATOM     16  N   UNL     1       1.006   9.991  21.371  0.00  0.00    +0.000 NA
BRANCH  16  17
ATOM     17  N   UNL     1       0.246  11.108  21.616  0.00  0.00    +0.000 N 
ATOM     18  C   UNL     1      -0.626  11.101  22.698  0.00  0.00    +0.000 C 
ATOM     19  O   UNL     1      -0.769  10.161  23.480  0.00  0.00    +0.000 OA
ATOM     20  H   UNL     1       0.414  11.946  21.075  0.00  0.00    +0.000 HD
BRANCH  18  21
ATOM     21  C   UNL     1      -1.418  12.342  22.930  0.00  0.00    +0.000 A 
ATOM     22  C   UNL     1      -0.902  13.622  22.717  0.00  0.00    +0.000 A 
ATOM     23  C   UNL     1      -1.741  14.704  22.937  0.00  0.00    +0.000 A 
ATOM     24  N   UNL     1      -3.022  14.594  23.347  0.00  0.00    +0.000 NA
ATOM     25  C   UNL     1      -3.500  13.345  23.524  0.00  0.00    +0.000 A 
ATOM     26  C   UNL     1      -2.748  12.201  23.331  0.00  0.00    +0.000 A 
ENDBRANCH  18  21
ENDBRANCH  16  17
ENDBRANCH   5  15
TORSDOF 4
ENDMDL
MODEL 6
REMARK VINA RESULT:      -7.3      7.541     10.464
REMARK  Name = 
REMARK  7 active torsions:
REMARK  status: ('A' for Active; 'I' for Inactive)
REMARK    1  A    between atoms: C_1  and  C_2
REMARK    2  A    between atoms: C_5  and  N_6
REMARK    3  A    between atoms: C_7  and  C_8
REMARK    4  A    between atoms: C_10  and  C_11
REMARK    5  A    between atoms: N_12  and  N_13
REMARK    6  A    between atoms: C_14  and  C_16
REMARK    7  A    between atoms: C_22  and  C_23
REMARK                            x       y       z     vdW  Elec       q    Type
REMARK                         _______ _______ _______ _____ _____    ______ ____
ROOT
ATOM      1  N   UNL     1       3.838   5.421  18.567  0.00  0.00    +0.000 N 
ATOM      2  C   UNL     1       3.595   4.494  19.583  0.00  0.00    +0.000 A 
ATOM      3  C   UNL     1       4.312   3.200  19.811  0.00  0.00    +0.000 C 
ATOM      4  C   UNL     1       2.622   5.017  20.414  0.00  0.00    +0.000 A 
ATOM      5  C   UNL     1       2.253   6.300  19.946  0.00  0.00    +0.000 A 
ATOM      6  C   UNL     1       3.016   6.546  18.808  0.00  0.00    +0.000 A 
ATOM      7  C   UNL     1       2.918   7.723  17.891  0.00  0.00    +0.000 C 
ENDROOT
BRANCH   1  12
ATOM      8  C   UNL     1       7.417   4.727  14.106  0.00  0.00    +0.000 C 
ATOM      9  C   UNL     1       6.495   4.924  15.269  0.00  0.00    +0.000 A 
ATOM     10  C   UNL     1       6.833   5.767  16.329  0.00  0.00    +0.000 A 
ATOM     11  C   UNL     1       5.977   5.902  17.427  0.00  0.00    +0.000 A 
ATOM     12  C   UNL     1       4.738   5.251  17.455  0.00  0.00    +0.000 A 
ATOM     13  C   UNL     1       4.395   4.435  16.372  0.00  0.00    +0.000 A 
ATOM     14  C   UNL     1       5.277   4.246  15.307  0.00  0.00    +0.000 A 
ENDBRANCH   1  12
BRANCH   5  15
ATOM     15  C   UNL     1       1.262   7.193  20.526  0.00  0.00    +0.000 C 
ATOM     16  N   UNL     1       1.640   8.322  21.030  0.00  0.00    +0.000 NA
BRANCH  16  17
ATOM     17  N   UNL     1       0.656   9.118  21.560  0.00  0.00    +0.000 N 
ATOM     18  C   UNL     1       0.304  10.284  20.891  0.00  0.00    +0.000 C 
ATOM     19  O   UNL     1       0.802  10.665  19.832  0.00  0.00    +0.000 OA
ATOM     20  H   UNL     1       0.135   8.789  22.363  0.00  0.00    +0.000 HD
BRANCH  18  21
ATOM     21  C   UNL     1      -0.780  11.107  21.500  0.00  0.00    +0.000 A 
ATOM     22  C   UNL     1      -1.558  12.001  20.763  0.00  0.00    +0.000 A 
ATOM     23  C   UNL     1      -2.559  12.692  21.429  0.00  0.00    +0.000 A 
ATOM     24  N   UNL     1      -2.823  12.554  22.744  0.00  0.00    +0.000 NA
ATOM     25  C   UNL     1      -2.070  11.667  23.428  0.00  0.00    +0.000 A 
ATOM     26  C   UNL     1      -1.050  10.928  22.858  0.00  0.00    +0.000 A 
ENDBRANCH  18  21
ENDBRANCH  16  17
ENDBRANCH   5  15
TORSDOF 4
ENDMDL
MODEL 7
REMARK VINA RESULT:      -7.2      7.564     10.570
REMARK  Name = 
REMARK  7 active torsions:
REMARK  status: ('A' for Active; 'I' for Inactive)
REMARK    1  A    between atoms: C_1  and  C_2
REMARK    2  A    between atoms: C_5  and  N_6
REMARK    3  A    between atoms: C_7  and  C_8
REMARK    4  A    between atoms: C_10  and  C_11
REMARK    5  A    between atoms: N_12  and  N_13
REMARK    6  A    between atoms: C_14  and  C_16
REMARK    7  A    between atoms: C_22  and  C_23
REMARK                            x       y       z     vdW  Elec       q    Type
REMARK                         _______ _______ _______ _____ _____    ______ ____
ROOT
ATOM      1  N   UNL     1       3.781   5.398  18.670  0.00  0.00    +0.000 N 
ATOM      2  C   UNL     1       3.558   4.463  19.684  0.00  0.00    +0.000 A 
ATOM      3  C   UNL     1       4.303   3.186  19.911  0.00  0.00    +0.000 C 
ATOM      4  C   UNL     1       2.574   4.963  20.516  0.00  0.00    +0.000 A 
ATOM      5  C   UNL     1       2.177   6.240  20.049  0.00  0.00    +0.000 A 
ATOM      6  C   UNL     1       2.934   6.503  18.912  0.00  0.00    +0.000 A 
ATOM      7  C   UNL     1       2.812   7.680  17.997  0.00  0.00    +0.000 C 
ENDROOT
BRANCH   1  12
ATOM      8  C   UNL     1       7.414   4.814  14.237  0.00  0.00    +0.000 C 
ATOM      9  C   UNL     1       6.462   4.949  15.384  0.00  0.00    +0.000 A 
ATOM     10  C   UNL     1       5.220   4.313  15.376  0.00  0.00    +0.000 A 
ATOM     11  C   UNL     1       4.327   4.489  16.438  0.00  0.00    +0.000 A 
ATOM     12  C   UNL     1       4.685   5.249  17.558  0.00  0.00    +0.000 A 
ATOM     13  C   UNL     1       5.945   5.855  17.570  0.00  0.00    +0.000 A 
ATOM     14  C   UNL     1       6.811   5.736  16.482  0.00  0.00    +0.000 A 
ENDBRANCH   1  12
BRANCH   5  15
ATOM     15  C   UNL     1       1.166   7.109  20.631  0.00  0.00    +0.000 C 
ATOM     16  N   UNL     1       1.480   8.320  20.957  0.00  0.00    +0.000 NA
BRANCH  16  17
ATOM     17  N   UNL     1       0.481   9.089  21.499  0.00  0.00    +0.000 N 
ATOM     18  C   UNL     1       0.300  10.383  21.027  0.00  0.00    +0.000 C 
ATOM     19  O   UNL     1       0.968  10.907  20.135  0.00  0.00    +0.000 OA
ATOM     20  H   UNL     1      -0.169   8.666  22.149  0.00  0.00    +0.000 HD
BRANCH  18  21
ATOM     21  C   UNL     1      -0.807  11.173  21.638  0.00  0.00    +0.000 A 
ATOM     22  C   UNL     1      -1.156  11.073  22.986  0.00  0.00    +0.000 A 
ATOM     23  C   UNL     1      -2.184  11.879  23.452  0.00  0.00    +0.000 A 
ATOM     24  N   UNL     1      -2.866  12.751  22.681  0.00  0.00    +0.000 NA
ATOM     25  C   UNL     1      -2.494  12.843  21.388  0.00  0.00    +0.000 A 
ATOM     26  C   UNL     1      -1.482  12.086  20.825  0.00  0.00    +0.000 A 
ENDBRANCH  18  21
ENDBRANCH  16  17
ENDBRANCH   5  15
TORSDOF 4
ENDMDL
MODEL 8
REMARK VINA RESULT:      -7.1      7.616     10.707
REMARK  Name = 
REMARK  7 active torsions:
REMARK  status: ('A' for Active; 'I' for Inactive)
REMARK    1  A    between atoms: C_1  and  C_2
REMARK    2  A    between atoms: C_5  and  N_6
REMARK    3  A    between atoms: C_7  and  C_8
REMARK    4  A    between atoms: C_10  and  C_11
REMARK    5  A    between atoms: N_12  and  N_13
REMARK    6  A    between atoms: C_14  and  C_16
REMARK    7  A    between atoms: C_22  and  C_23
REMARK                            x       y       z     vdW  Elec       q    Type
REMARK                         _______ _______ _______ _____ _____    ______ ____
ROOT
ATOM      1  N   UNL     1       3.484   5.528  18.916  0.00  0.00    +0.000 N 
ATOM      2  C   UNL     1       3.163   4.612  19.920  0.00  0.00    +0.000 A 
ATOM      3  C   UNL     1       3.798   3.279  20.160  0.00  0.00    +0.000 C 
ATOM      4  C   UNL     1       2.201   5.186  20.729  0.00  0.00    +0.000 A 
ATOM      5  C   UNL     1       1.918   6.491  20.258  0.00  0.00    +0.000 A 
ATOM      6  C   UNL     1       2.721   6.696  19.141  0.00  0.00    +0.000 A 
ATOM      7  C   UNL     1       2.715   7.881  18.228  0.00  0.00    +0.000 C 
ENDROOT
BRANCH   1  12
ATOM      8  C   UNL     1       7.166   4.671  14.568  0.00  0.00    +0.000 C 
ATOM      9  C   UNL     1       6.202   4.877  15.695  0.00  0.00    +0.000 A 
ATOM     10  C   UNL     1       4.992   4.184  15.750  0.00  0.00    +0.000 A 
ATOM     11  C   UNL     1       4.085   4.424  16.787  0.00  0.00    +0.000 A 
ATOM     12  C   UNL     1       4.400   5.310  17.825  0.00  0.00    +0.000 A 
ATOM     13  C   UNL     1       5.630   5.975  17.776  0.00  0.00    +0.000 A 
ATOM     14  C   UNL     1       6.506   5.787  16.707  0.00  0.00    +0.000 A 
ENDBRANCH   1  12
BRANCH   5  15
ATOM     15  C   UNL     1       0.964   7.436  20.818  0.00  0.00    +0.000 C 
ATOM     16  N   UNL     1       1.395   8.536  21.346  0.00  0.00    +0.000 NA
BRANCH  16  17
ATOM     17  N   UNL     1       0.444   9.386  21.855  0.00  0.00    +0.000 N 
ATOM     18  C   UNL     1       0.119  10.532  21.141  0.00  0.00    +0.000 C 
ATOM     19  O   UNL     1       0.613  10.852  20.059  0.00  0.00    +0.000 OA
ATOM     20  H   UNL     1      -0.074   9.108  22.678  0.00  0.00    +0.000 HD
BRANCH  18  21
ATOM     21  C   UNL     1      -0.928  11.416  21.729  0.00  0.00    +0.000 A 
ATOM     22  C   UNL     1      -1.479  12.499  21.042  0.00  0.00    +0.000 A 
ATOM     23  C   UNL     1      -2.470  13.233  21.676  0.00  0.00    +0.000 A 
ATOM     24  N   UNL     1      -2.930  12.965  22.916  0.00  0.00    +0.000 NA
ATOM     25  C   UNL     1      -2.395  11.900  23.548  0.00  0.00    +0.000 A 
ATOM     26  C   UNL     1      -1.405  11.103  23.003  0.00  0.00    +0.000 A 
ENDBRANCH  18  21
ENDBRANCH  16  17
ENDBRANCH   5  15
TORSDOF 4
ENDMDL
MODEL 9
REMARK VINA RESULT:      -7.0      7.672     10.831
REMARK  Name = 
REMARK  7 active torsions:
REMARK  status: ('A' for Active; 'I' for Inactive)
REMARK    1  A    between atoms: C_1  and  C_2
REMARK    2  A    between atoms: C_5  and  N_6
REMARK    3  A    between atoms: C_7  and  C_8
REMARK    4  A    between atoms: C_10  and  C_11
REMARK    5  A    between atoms: N_12  and  N_13
REMARK    6  A    between atoms: C_14  and  C_16
REMARK    7  A    between atoms: C_22  and  C_23
REMARK                            x       y       z     vdW  Elec       q    Type
REMARK                         _______ _______ _______ _____ _____    ______ ____
ROOT
ATOM      1  N   UNL     1       3.225   5.759  18.886  0.00  0.00    +0.000 N 
ATOM      2  C   UNL     1       2.898   4.877  19.918  0.00  0.00    +0.000 A 
ATOM      3  C   UNL     1       3.467   3.513  20.152  0.00  0.00    +0.000 C 
ATOM      4  C   UNL     1       2.007   5.517  20.759  0.00  0.00    +0.000 A 
ATOM      5  C   UNL     1       1.777   6.829  20.279  0.00  0.00    +0.000 A 
ATOM      6  C   UNL     1       2.541   6.972  19.125  0.00  0.00    +0.000 A 
ATOM      7  C   UNL     1       2.560   8.142  18.194  0.00  0.00    +0.000 C 
ENDROOT
BRANCH   1  12
ATOM      8  C   UNL     1       6.622   4.600  14.379  0.00  0.00    +0.000 C 
ATOM      9  C   UNL     1       5.743   4.920  15.548  0.00  0.00    +0.000 A 
ATOM     10  C   UNL     1       5.893   6.106  16.267  0.00  0.00    +0.000 A 
ATOM     11  C   UNL     1       5.091   6.365  17.382  0.00  0.00    +0.000 A 
ATOM     12  C   UNL     1       4.079   5.474  17.760  0.00  0.00    +0.000 A 
ATOM     13  C   UNL     1       3.916   4.304  17.013  0.00  0.00    +0.000 A 
ATOM     14  C   UNL     1       4.759   4.012  15.941  0.00  0.00    +0.000 A 
ENDBRANCH   1  12
BRANCH   5  15
ATOM     15  C   UNL     1       0.905   7.835  20.865  0.00  0.00    +0.000 C 
ATOM     16  N   UNL     1       1.374   8.639  21.762  0.00  0.00    +0.000 NA
BRANCH  16  17
ATOM     17  N   UNL     1       0.500   9.566  22.273  0.00  0.00    +0.000 N 
ATOM     18  C   UNL     1       0.420  10.816  21.671  0.00  0.00    +0.000 C 
ATOM     19  O   UNL     1       1.073  11.166  20.688  0.00  0.00    +0.000 OA
ATOM     20  H   UNL     1      -0.142   9.287  23.004  0.00  0.00    +0.000 HD
BRANCH  18  21
ATOM     21  C   UNL     1      -0.553  11.782  22.255  0.00  0.00    +0.000 A 
ATOM     22  C   UNL     1      -0.429  13.165  22.109  0.00  0.00    +0.000 A 
ATOM     23  C   UNL     1      -1.412  13.967  22.669  0.00  0.00    +0.000 A 
ATOM     24  N   UNL     1      -2.477  13.492  23.346  0.00  0.00    +0.000 NA
ATOM     25  C   UNL     1      -2.584  12.152  23.454  0.00  0.00    +0.000 A 
ATOM     26  C   UNL     1      -1.660  11.265  22.931  0.00  0.00    +0.000 A 
ENDBRANCH  18  21
ENDBRANCH  16  17
ENDBRANCH   5  15
TORSDOF 4
ENDMDL
