MODEL 1
REMARK VINA RESULT:      -7.0      0.000      0.000
REMARK  Name = 
REMARK  2 active torsions:
REMARK  status: ('A' for Active; 'I' for Inactive)
REMARK    1  A    between atoms: C_1  and  C_2
REMARK    2  A    between atoms: C_7  and  C_8
REMARK                            x       y       z     vdW  Elec       q    Type
REMARK                         _______ _______ _______ _____ _____    ______ ____
ROOT
ATOM      1  C   UNL     1       7.973   5.259  13.255  0.00  0.00    +0.000 C 
ATOM      2  C   UNL     1       6.993   4.857  14.316  0.00  0.00    +0.000 A 
ATOM      3  C   UNL     1       5.703   4.430  13.982  0.00  0.00    +0.000 A 
ATOM      4  C   UNL     1       4.799   4.057  14.981  0.00  0.00    +0.000 A 
ATOM      5  C   UNL     1       5.168   4.109  16.324  0.00  0.00    +0.000 A 
ATOM      6  N   UNL     1       4.238   3.775  17.301  0.00  0.00    +0.000 NA
ATOM      7  C   UNL     1       4.603   3.887  18.535  0.00  0.00    +0.000 A 
ATOM      8  O   UNL     1       5.826   4.273  18.974  0.00  0.00    +0.000 OA
ATOM      9  C   UNL     1       6.792   4.579  18.078  0.00  0.00    +0.000 A 
ATOM     10  O   UNL     1       7.917   4.909  18.437  0.00  0.00    +0.000 OA
ATOM     11  C   UNL     1       6.447   4.522  16.656  0.00  0.00    +0.000 A 
ATOM     12  C   UNL     1       7.368   4.889  15.665  0.00  0.00    +0.000 A 
ENDROOT
BRANCH   7  13
ATOM     13  C   UNL     1       3.715   3.623  19.650  0.00  0.00    +0.000 A 
ATOM     14  C   UNL     1       3.593   2.474  20.414  0.00  0.00    +0.000 A 
ATOM     15  C   UNL     1       2.630   2.605  21.457  0.00  0.00    +0.000 A 
ATOM     16  C   UNL     1       2.035   3.845  21.454  0.00  0.00    +0.000 A 
ATOM     17  S   UNL     1       2.634   4.840  20.201  0.00  0.00    +0.000 S 
ENDBRANCH   7  13
TORSDOF 1
ENDMDL
MODEL 2
REMARK VINA RESULT:      -6.9      2.091      6.032
REMARK  Name = 
REMARK  2 active torsions:
REMARK  status: ('A' for Active; 'I' for Inactive)
REMARK    1  A    between atoms: C_1  and  C_2
REMARK    2  A    between atoms: C_7  and  C_8
REMARK                            x       y       z     vdW  Elec       q    Type
REMARK                         _______ _______ _______ _____ _____    ______ ____
ROOT
ATOM      1  C   UNL     1       1.429   2.866  21.651  0.00  0.00    +0.000 C 
ATOM      2  C   UNL     1       2.054   3.079  20.304  0.00  0.00    +0.000 A 
ATOM      3  C   UNL     1       1.351   2.787  19.130  0.00  0.00    +0.000 A 
ATOM      4  C   UNL     1       1.944   2.990  17.880  0.00  0.00    +0.000 A 
ATOM      5  C   UNL     1       3.245   3.483  17.786  0.00  0.00    +0.000 A 
ATOM      6  N   UNL     1       3.828   3.636  16.534  0.00  0.00    +0.000 NA
ATOM      7  C   UNL     1       5.053   4.044  16.492  0.00  0.00    +0.000 A 
ATOM      8  O   UNL     1       5.822   4.371  17.560  0.00  0.00    +0.000 OA
ATOM      9  C   UNL     1       5.307   4.281  18.808  0.00  0.00    +0.000 A 
ATOM     10  O   UNL     1       5.965   4.590  19.795  0.00  0.00    +0.000 OA
ATOM     11  C   UNL     1       3.937   3.781  18.947  0.00  0.00    +0.000 A 
ATOM     12  C   UNL     1       3.353   3.592  20.206  0.00  0.00    +0.000 A 
ENDROOT
BRANCH   7  13
ATOM     13  C   UNL     1       5.795   4.194  15.256  0.00  0.00    +0.000 A 
ATOM     14  C   UNL     1       5.483   3.730  13.989  0.00  0.00    +0.000 A 
ATOM     15  C   UNL     1       6.444   4.112  13.009  0.00  0.00    +0.000 A 
ATOM     16  C   UNL     1       7.470   4.848  13.556  0.00  0.00    +0.000 A 
ATOM     17  S   UNL     1       7.272   5.073  15.237  0.00  0.00    +0.000 S 
ENDBRANCH   7  13
TORSDOF 1
ENDMDL
MODEL 3
REMARK VINA RESULT:      -6.8      5.092      6.510
REMARK  Name = 
REMARK  2 active torsions:
REMARK  status: ('A' for Active; 'I' for Inactive)
REMARK    1  A    between atoms: C_1  and  C_2
REMARK    2  A    between atoms: C_7  and  C_8
REMARK                            x       y       z     vdW  Elec       q    Type
REMARK                         _______ _______ _______ _____ _____    ______ ____
ROOT
ATOM      1  C   UNL     1       4.022   3.938  17.220  0.00  0.00    +0.000 C 
ATOM      2  C   UNL     1       3.351   4.838  18.214  0.00  0.00    +0.000 A 
ATOM      3  C   UNL     1       3.022   4.379  19.494  0.00  0.00    +0.000 A 
ATOM      4  C   UNL     1       2.396   5.227  20.412  0.00  0.00    +0.000 A 
ATOM      5  C   UNL     1       2.088   6.542  20.064  0.00  0.00    +0.000 A 
ATOM      6  N   UNL     1       1.427   7.353  20.979  0.00  0.00    +0.000 NA
ATOM      7  C   UNL     1       1.112   8.546  20.599  0.00  0.00    +0.000 A 
ATOM      8  O   UNL     1       1.394   9.101  19.394  0.00  0.00    +0.000 OA
ATOM      9  C   UNL     1       2.066   8.381  18.467  0.00  0.00    +0.000 A 
ATOM     10  O   UNL     1       2.359   8.857  17.376  0.00  0.00    +0.000 OA
ATOM     11  C   UNL     1       2.421   7.000  18.801  0.00  0.00    +0.000 A 
ATOM     12  C   UNL     1       3.057   6.164  17.874  0.00  0.00    +0.000 A 
ENDROOT
BRANCH   7  13
ATOM     13  C   UNL     1       0.376   9.474  21.434  0.00  0.00    +0.000 A 
ATOM     14  C   UNL     1      -0.305   9.233  22.616  0.00  0.00    +0.000 A 
ATOM     15  C   UNL     1      -0.877  10.413  23.175  0.00  0.00    +0.000 A 
ATOM     16  C   UNL     1      -0.628  11.521  22.398  0.00  0.00    +0.000 A 
ATOM     17  S   UNL     1       0.287  11.137  21.008  0.00  0.00    +0.000 S 
ENDBRANCH   7  13
TORSDOF 1
ENDMDL
MODEL 4
REMARK VINA RESULT:      -6.7      0.893      1.074
REMARK  Name = 
REMARK  2 active torsions:
REMARK  status: ('A' for Active; 'I' for Inactive)
REMARK    1  A    between atoms: C_1  and  C_2
REMARK    2  A    between atoms: C_7  and  C_8
REMARK                            x       y       z     vdW  Elec       q    Type
REMARK                         _______ _______ _______ _____ _____    ______ ____
ROOT
ATOM      1  C   UNL     1       8.034   5.225  13.520  0.00  0.00    +0.000 C 
ATOM      2  C   UNL     1       6.954   4.829  14.482  0.00  0.00    +0.000 A 
ATOM      3  C   UNL     1       5.714   4.371  14.022  0.00  0.00    +0.000 A 
ATOM      4  C   UNL     1       4.714   4.004  14.929  0.00  0.00    +0.000 A 
ATOM      5  C   UNL     1       4.937   4.094  16.302  0.00  0.00    +0.000 A 
ATOM      6  N   UNL     1       3.913   3.765  17.183  0.00  0.00    +0.000 NA
ATOM      7  C   UNL     1       4.142   3.913  18.445  0.00  0.00    +0.000 A 
ATOM      8  O   UNL     1       5.305   4.332  19.002  0.00  0.00    +0.000 OA
ATOM      9  C   UNL     1       6.357   4.636  18.206  0.00  0.00    +0.000 A 
ATOM     10  O   UNL     1       7.431   4.995  18.675  0.00  0.00    +0.000 OA
ATOM     11  C   UNL     1       6.166   4.539  16.757  0.00  0.00    +0.000 A 
ATOM     12  C   UNL     1       7.181   4.900  15.861  0.00  0.00    +0.000 A 
ENDROOT
BRANCH   7  13
ATOM     13  C   UNL     1       3.145   3.658  19.465  0.00  0.00    +0.000 A 
ATOM     14  C   UNL     1       1.865   4.175  19.583  0.00  0.00    +0.000 A 
ATOM     15  C   UNL     1       1.161   3.654  20.708  0.00  0.00    +0.000 A 
ATOM     16  C   UNL     1       1.925   2.762  21.423  0.00  0.00    +0.000 A 
ATOM     17  S   UNL     1       3.478   2.558  20.743  0.00  0.00    +0.000 S 
ENDBRANCH   7  13
TORSDOF 1
ENDMDL
MODEL 5
REMARK VINA RESULT:      -6.6      3.809      6.707
REMARK  Name = 
REMARK  2 active torsions:
REMARK  status: ('A' for Active; 'I' for Inactive)
REMARK    1  A    between atoms: C_1  and  C_2
REMARK    2  A    between atoms: C_7  and  C_8
REMARK                            x       y       z     vdW  Elec       q    Type
REMARK                         _______ _______ _______ _____ _____    ______ ____
ROOT
ATOM      1  C   UNL     1      -0.215   9.136  21.776  0.00  0.00    +0.000 C 
ATOM      2  C   UNL     1       0.712   8.664  20.696  0.00  0.00    +0.000 A 
ATOM      3  C   UNL     1       0.966   9.454  19.568  0.00  0.00    +0.000 A 
ATOM      4  C   UNL     1       1.833   9.003  18.568  0.00  0.00    +0.000 A 
ATOM      5  C   UNL     1       2.453   7.759  18.679  0.00  0.00    +0.000 A 
ATOM      6  N   UNL     1       3.278   7.314  17.652  0.00  0.00    +0.000 NA
ATOM      7  C   UNL     1       3.790   6.134  17.767  0.00  0.00    +0.000 A 
ATOM      8  O   UNL     1       3.627   5.292  18.818  0.00  0.00    +0.000 OA
ATOM      9  C   UNL     1       2.867   5.674  19.870  0.00  0.00    +0.000 A 
ATOM     10  O   UNL     1       2.716   4.949  20.847  0.00  0.00    +0.000 OA
ATOM     11  C   UNL     1       2.210   6.981  19.798  0.00  0.00    +0.000 A 
ATOM     12  C   UNL     1       1.352   7.424  20.813  0.00  0.00    +0.000 A 
ENDROOT
BRANCH   7  13
ATOM     13  C   UNL     1       4.622   5.529  16.746  0.00  0.00    +0.000 A 
ATOM     14  C   UNL     1       5.310   6.137  15.709  0.00  0.00    +0.000 A 
ATOM     15  C   UNL     1       6.058   5.210  14.925  0.00  0.00    +0.000 A 
ATOM     16  C   UNL     1       5.912   3.920  15.378  0.00  0.00    +0.000 A 
ATOM     17  S   UNL     1       4.879   3.830  16.735  0.00  0.00    +0.000 S 
ENDBRANCH   7  13
TORSDOF 1
ENDMDL
MODEL 6
REMARK VINA RESULT:      -6.5      2.292      6.063
REMARK  Name = 
REMARK  2 active torsions:
REMARK  status: ('A' for Active; 'I' for Inactive)
REMARK    1  A    between atoms: C_1  and  C_2
REMARK    2  A    between atoms: C_7  and  C_8
REMARK                            x       y       z     vdW  Elec       q    Type
REMARK                         _______ _______ _______ _____ _____    ______ ____
ROOT
ATOM      1  C   UNL     1       2.367   3.079  21.114  0.00  0.00    +0.000 C 
ATOM      2  C   UNL     1       2.906   3.316  19.735  0.00  0.00    +0.000 A 
ATOM      3  C   UNL     1       2.102   3.130  18.604  0.00  0.00    +0.000 A 
ATOM      4  C   UNL     1       2.617   3.356  17.324  0.00  0.00    +0.000 A 
ATOM      5  C   UNL     1       3.939   3.765  17.155  0.00  0.00    +0.000 A 
ATOM      6  N   UNL     1       4.440   3.941  15.871  0.00  0.00    +0.000 NA
ATOM      7  C   UNL     1       5.684   4.268  15.756  0.00  0.00    +0.000 A 
ATOM      8  O   UNL     1       6.548   4.491  16.776  0.00  0.00    +0.000 OA
ATOM      9  C   UNL     1       6.120   4.372  18.054  0.00  0.00    +0.000 A 
ATOM     10  O   UNL     1       6.867   4.588  19.002  0.00  0.00    +0.000 OA
ATOM     11  C   UNL     1       4.732   3.958  18.273  0.00  0.00    +0.000 A 
ATOM     12  C   UNL     1       4.228   3.746  19.563  0.00  0.00    +0.000 A 
ENDROOT
BRANCH   7  13
ATOM     13  C   UNL     1       6.344   4.430  14.476  0.00  0.00    +0.000 A 
ATOM     14  C   UNL     1       7.440   5.213  14.152  0.00  0.00    +0.000 A 
ATOM     15  C   UNL     1       7.830   5.081  12.787  0.00  0.00    +0.000 A 
ATOM     16  C   UNL     1       7.014   4.209  12.103  0.00  0.00    +0.000 A 
ATOM     17  S   UNL     1       5.790   3.560  13.101  0.00  0.00    +0.000 S 
ENDBRANCH   7  13
TORSDOF 1
ENDMDL
MODEL 7
REMARK VINA RESULT:      -6.4      5.354      6.815
REMARK  Name = 
REMARK  2 active torsions:
REMARK  status: ('A' for Active; 'I' for Inactive)
REMARK    1  A    between atoms: C_1  and  C_2
REMARK    2  A    between atoms: C_7  and  C_8
REMARK                            x       y       z     vdW  Elec       q    Type
REMARK                         _______ _______ _______ _____ _____    ______ ____
ROOT
ATOM      1  C   UNL     1       4.009   3.991  17.622  0.00  0.00    +0.000 C 
ATOM      2  C   UNL     1       3.294   4.962  18.515  0.00  0.00    +0.000 A 
ATOM      3  C   UNL     1       2.899   4.596  19.807  0.00  0.00    +0.000 A 
ATOM      4  C   UNL     1       2.235   5.510  20.630  0.00  0.00    +0.000 A 
ATOM      5  C   UNL     1       1.952   6.797  20.174  0.00  0.00    +0.000 A 
ATOM      6  N   UNL     1       1.253   7.674  20.995  0.00  0.00    +0.000 NA
ATOM      7  C   UNL     1       0.964   8.838  20.515  0.00  0.00    +0.000 A 
ATOM      8  O   UNL     1       1.309   9.304  19.290  0.00  0.00    +0.000 OA
ATOM      9  C   UNL     1       2.021   8.518  18.451  0.00  0.00    +0.000 A 
ATOM     10  O   UNL     1       2.371   8.914  17.344  0.00  0.00    +0.000 OA
ATOM     11  C   UNL     1       2.351   7.163  18.900  0.00  0.00    +0.000 A 
ATOM     12  C   UNL     1       3.027   6.261  18.067  0.00  0.00    +0.000 A 
ENDROOT
BRANCH   7  13
ATOM     13  C   UNL     1       0.193   9.825  21.245  0.00  0.00    +0.000 A 
ATOM     14  C   UNL     1      -0.396  10.989  20.780  0.00  0.00    +0.000 A 
ATOM     15  C   UNL     1      -1.111  11.689  21.795  0.00  0.00    +0.000 A 
ATOM     16  C   UNL     1      -1.039  11.047  23.009  0.00  0.00    +0.000 A 
ATOM     17  S   UNL     1      -0.115   9.613  22.922  0.00  0.00    +0.000 S 
ENDBRANCH   7  13
TORSDOF 1
ENDMDL
MODEL 8
REMARK VINA RESULT:      -6.4      3.786      4.629
REMARK  Name = 
REMARK  2 active torsions:
REMARK  status: ('A' for Active; 'I' for Inactive)
REMARK    1  A    between atoms: C_1  and  C_2
REMARK    2  A    between atoms: C_7  and  C_8
REMARK                            x       y       z     vdW  Elec       q    Type
REMARK                         _______ _______ _______ _____ _____    ______ ____
ROOT
ATOM      1  C   UNL     1       5.920   3.693  15.531  0.00  0.00    +0.000 C 
ATOM      2  C   UNL     1       5.140   4.749  16.256  0.00  0.00    +0.000 A 
ATOM      3  C   UNL     1       5.260   6.099  15.907  0.00  0.00    +0.000 A 
ATOM      4  C   UNL     1       4.528   7.075  16.589  0.00  0.00    +0.000 A 
ATOM      5  C   UNL     1       3.670   6.717  17.629  0.00  0.00    +0.000 A 
ATOM      6  N   UNL     1       2.985   7.710  18.321  0.00  0.00    +0.000 NA
ATOM      7  C   UNL     1       2.243   7.341  19.312  0.00  0.00    +0.000 A 
ATOM      8  O   UNL     1       2.039   6.067  19.726  0.00  0.00    +0.000 OA
ATOM      9  C   UNL     1       2.646   5.047  19.077  0.00  0.00    +0.000 A 
ATOM     10  O   UNL     1       2.468   3.880  19.408  0.00  0.00    +0.000 OA
ATOM     11  C   UNL     1       3.544   5.381  17.968  0.00  0.00    +0.000 A 
ATOM     12  C   UNL     1       4.264   4.391  17.287  0.00  0.00    +0.000 A 
ENDROOT
BRANCH   7  13
ATOM     13  C   UNL     1       1.519   8.278  20.148  0.00  0.00    +0.000 A 
ATOM     14  C   UNL     1       1.257   8.213  21.507  0.00  0.00    +0.000 A 
ATOM     15  C   UNL     1       0.544   9.350  21.987  0.00  0.00    +0.000 A 
ATOM     16  C   UNL     1       0.270  10.246  20.980  0.00  0.00    +0.000 A 
ATOM     17  S   UNL     1       0.869   9.717  19.470  0.00  0.00    +0.000 S 
ENDBRANCH   7  13
TORSDOF 1
ENDMDL
MODEL 9
REMARK VINA RESULT:      -6.4      4.066      6.027
REMARK  Name = 
REMARK  2 active torsions:
REMARK  status: ('A' for Active; 'I' for Inactive)
REMARK    1  A    between atoms: C_1  and  C_2
REMARK    2  A    between atoms: C_7  and  C_8
REMARK                            x       y       z     vdW  Elec       q    Type
REMARK                         _______ _______ _______ _____ _____    ______ ____
ROOT
ATOM      1  C   UNL     1       3.551   1.426  18.508  0.00  0.00    +0.000 C 
ATOM      2  C   UNL     1       3.013   2.679  19.132  0.00  0.00    +0.000 A 
ATOM      3  C   UNL     1       2.225   2.627  20.287  0.00  0.00    +0.000 A 
ATOM      4  C   UNL     1       1.729   3.802  20.861  0.00  0.00    +0.000 A 
ATOM      5  C   UNL     1       2.009   5.041  20.287  0.00  0.00    +0.000 A 
ATOM      6  N   UNL     1       1.469   6.192  20.851  0.00  0.00    +0.000 NA
ATOM      7  C   UNL     1       1.709   7.314  20.258  0.00  0.00    +0.000 A 
ATOM      8  O   UNL     1       2.469   7.485  19.149  0.00  0.00    +0.000 OA
ATOM      9  C   UNL     1       3.055   6.414  18.567  0.00  0.00    +0.000 A 
ATOM     10  O   UNL     1       3.768   6.533  17.577  0.00  0.00    +0.000 OA
ATOM     11  C   UNL     1       2.796   5.095  19.150  0.00  0.00    +0.000 A 
ATOM     12  C   UNL     1       3.309   3.927  18.570  0.00  0.00    +0.000 A 
ENDROOT
BRANCH   7  13
ATOM     13  C   UNL     1       1.163   8.579  20.710  0.00  0.00    +0.000 A 
ATOM     14  C   UNL     1       0.868   8.991  21.999  0.00  0.00    +0.000 A 
ATOM     15  C   UNL     1       0.378  10.329  22.053  0.00  0.00    +0.000 A 
ATOM     16  C   UNL     1       0.301  10.897  20.802  0.00  0.00    +0.000 A 
ATOM     17  S   UNL     1       0.815   9.823  19.577  0.00  0.00    +0.000 S 
ENDBRANCH   7  13
TORSDOF 1
ENDMDL
