MODEL 1
REMARK VINA RESULT:      -5.6      0.000      0.000
REMARK  Name = 
REMARK  3 active torsions:
REMARK  status: ('A' for Active; 'I' for Inactive)
REMARK    1  A    between atoms: C_1  and  C_2
REMARK    2  A    between atoms: C_3  and  N_4
REMARK    3  A    between atoms: C_5  and  C_6
REMARK                            x       y       z     vdW  Elec       q    Type
REMARK                         _______ _______ _______ _____ _____    ______ ____
ROOT
ATOM      1  C   UNL     1       4.808   6.618  17.160  0.00  0.00    +0.000 C 
ATOM      2  C   UNL     1       5.257   5.447  16.357  0.00  0.00    +0.000 C 
ATOM      3  C   UNL     1       6.031   4.303  16.950  0.00  0.00    +0.000 C 
ATOM      4  C   UNL     1       4.628   4.071  16.406  0.00  0.00    +0.000 C 
ENDROOT
BRANCH   4   5
ATOM      5  C   UNL     1       3.520   3.624  17.338  0.00  0.00    +0.000 A 
ATOM      6  C   UNL     1       2.417   4.424  17.663  0.00  0.00    +0.000 A 
ATOM      7  C   UNL     1       1.392   3.951  18.493  0.00  0.00    +0.000 A 
ATOM      8  C   UNL     1       1.443   2.656  19.000  0.00  0.00    +0.000 A 
ATOM      9  C   UNL     1       2.515   1.831  18.676  0.00  0.00    +0.000 A 
ATOM     10  C   UNL     1       3.535   2.313  17.850  0.00  0.00    +0.000 A 
ENDBRANCH   4   5
BRANCH   3  11
ATOM     11  N   UNL     1       6.319   4.242  18.387  0.00  0.00    +0.000 NA
ATOM     12  H   UNL     1       7.311   4.070  18.557  0.00  0.00    +0.000 HD
ATOM     13  H   UNL     1       5.817   3.469  18.825  0.00  0.00    +0.000 HD
ENDBRANCH   3  11
TORSDOF 2
ENDMDL
MODEL 2
REMARK VINA RESULT:      -5.6      1.290      1.913
REMARK  Name = 
REMARK  3 active torsions:
REMARK  status: ('A' for Active; 'I' for Inactive)
REMARK    1  A    between atoms: C_1  and  C_2
REMARK    2  A    between atoms: C_3  and  N_4
REMARK    3  A    between atoms: C_5  and  C_6
REMARK                            x       y       z     vdW  Elec       q    Type
REMARK                         _______ _______ _______ _____ _____    ______ ____
ROOT
ATOM      1  C   UNL     1       6.941   7.131  17.402  0.00  0.00    +0.000 C 
ATOM      2  C   UNL     1       7.030   5.961  16.485  0.00  0.00    +0.000 C 
ATOM      3  C   UNL     1       7.166   4.548  16.980  0.00  0.00    +0.000 C 
ATOM      4  C   UNL     1       5.912   4.974  16.230  0.00  0.00    +0.000 C 
ENDROOT
BRANCH   4   5
ATOM      5  C   UNL     1       4.566   4.943  16.926  0.00  0.00    +0.000 A 
ATOM      6  C   UNL     1       3.954   6.078  17.472  0.00  0.00    +0.000 A 
ATOM      7  C   UNL     1       2.687   6.010  18.066  0.00  0.00    +0.000 A 
ATOM      8  C   UNL     1       1.997   4.802  18.107  0.00  0.00    +0.000 A 
ATOM      9  C   UNL     1       2.570   3.663  17.553  0.00  0.00    +0.000 A 
ATOM     10  C   UNL     1       3.836   3.739  16.966  0.00  0.00    +0.000 A 
ENDBRANCH   4   5
BRANCH   3  11
ATOM     11  N   UNL     1       7.136   4.237  18.414  0.00  0.00    +0.000 NA
ATOM     12  H   UNL     1       7.077   3.230  18.570  0.00  0.00    +0.000 HD
ATOM     13  H   UNL     1       6.311   4.643  18.855  0.00  0.00    +0.000 HD
ENDBRANCH   3  11
TORSDOF 2
ENDMDL
MODEL 3
REMARK VINA RESULT:      -5.5      0.130      1.454
REMARK  Name = 
REMARK  3 active torsions:
REMARK  status: ('A' for Active; 'I' for Inactive)
REMARK    1  A    between atoms: C_1  and  C_2
REMARK    2  A    between atoms: C_3  and  N_4
REMARK    3  A    between atoms: C_5  and  C_6
REMARK                            x       y       z     vdW  Elec       q    Type
REMARK                         _______ _______ _______ _____ _____    ______ ____
ROOT
ATOM      1  C   UNL     1       4.639   6.602  17.396  0.00  0.00    +0.000 C 
ATOM      2  C   UNL     1       5.161   5.517  16.520  0.00  0.00    +0.000 C 
ATOM      3  C   UNL     1       5.972   4.366  17.046  0.00  0.00    +0.000 C 
ATOM      4  C   UNL     1       4.595   4.115  16.448  0.00  0.00    +0.000 C 
ENDROOT
BRANCH   4   5
ATOM      5  C   UNL     1       3.486   3.550  17.311  0.00  0.00    +0.000 A 
ATOM      6  C   UNL     1       3.522   2.265  17.869  0.00  0.00    +0.000 A 
ATOM      7  C   UNL     1       2.493   1.801  18.699  0.00  0.00    +0.000 A 
ATOM      8  C   UNL     1       1.414   2.626  19.005  0.00  0.00    +0.000 A 
ATOM      9  C   UNL     1       1.363   3.913  18.484  0.00  0.00    +0.000 A 
ATOM     10  C   UNL     1       2.391   4.367  17.653  0.00  0.00    +0.000 A 
ENDBRANCH   4   5
BRANCH   3  11
ATOM     11  N   UNL     1       6.226   4.207  18.483  0.00  0.00    +0.000 NA
ATOM     12  H   UNL     1       7.079   3.670  18.648  0.00  0.00    +0.000 HD
ATOM     13  H   UNL     1       5.471   3.687  18.929  0.00  0.00    +0.000 HD
ENDBRANCH   3  11
TORSDOF 2
ENDMDL
MODEL 4
REMARK VINA RESULT:      -5.5      1.704      2.182
REMARK  Name = 
REMARK  3 active torsions:
REMARK  status: ('A' for Active; 'I' for Inactive)
REMARK    1  A    between atoms: C_1  and  C_2
REMARK    2  A    between atoms: C_3  and  N_4
REMARK    3  A    between atoms: C_5  and  C_6
REMARK                            x       y       z     vdW  Elec       q    Type
REMARK                         _______ _______ _______ _____ _____    ______ ____
ROOT
ATOM      1  C   UNL     1       5.755   5.376  19.065  0.00  0.00    +0.000 C 
ATOM      2  C   UNL     1       4.876   5.643  17.893  0.00  0.00    +0.000 C 
ATOM      3  C   UNL     1       4.436   4.564  16.944  0.00  0.00    +0.000 C 
ATOM      4  C   UNL     1       3.409   5.280  17.811  0.00  0.00    +0.000 C 
ENDROOT
BRANCH   4   5
ATOM      5  C   UNL     1       2.618   4.504  18.844  0.00  0.00    +0.000 A 
ATOM      6  C   UNL     1       2.761   4.691  20.225  0.00  0.00    +0.000 A 
ATOM      7  C   UNL     1       1.974   3.983  21.143  0.00  0.00    +0.000 A 
ATOM      8  C   UNL     1       1.011   3.084  20.693  0.00  0.00    +0.000 A 
ATOM      9  C   UNL     1       0.831   2.894  19.328  0.00  0.00    +0.000 A 
ATOM     10  C   UNL     1       1.623   3.602  18.419  0.00  0.00    +0.000 A 
ENDBRANCH   4   5
BRANCH   3  11
ATOM     11  N   UNL     1       4.789   3.158  17.174  0.00  0.00    +0.000 NA
ATOM     12  H   UNL     1       5.247   2.756  16.354  0.00  0.00    +0.000 HD
ATOM     13  H   UNL     1       3.953   2.597  17.337  0.00  0.00    +0.000 HD
ENDBRANCH   3  11
TORSDOF 2
ENDMDL
MODEL 5
REMARK VINA RESULT:      -5.5      1.202      1.412
REMARK  Name = 
REMARK  3 active torsions:
REMARK  status: ('A' for Active; 'I' for Inactive)
REMARK    1  A    between atoms: C_1  and  C_2
REMARK    2  A    between atoms: C_3  and  N_4
REMARK    3  A    between atoms: C_5  and  C_6
REMARK                            x       y       z     vdW  Elec       q    Type
REMARK                         _______ _______ _______ _____ _____    ______ ____
ROOT
ATOM      1  C   UNL     1       4.510   6.510  17.501  0.00  0.00    +0.000 C 
ATOM      2  C   UNL     1       4.476   5.207  16.781  0.00  0.00    +0.000 C 
ATOM      3  C   UNL     1       5.170   3.976  17.293  0.00  0.00    +0.000 C 
ATOM      4  C   UNL     1       3.651   4.009  17.201  0.00  0.00    +0.000 C 
ENDROOT
BRANCH   4   5
ATOM      5  C   UNL     1       2.814   3.892  18.458  0.00  0.00    +0.000 A 
ATOM      6  C   UNL     1       2.339   4.998  19.174  0.00  0.00    +0.000 A 
ATOM      7  C   UNL     1       1.529   4.842  20.306  0.00  0.00    +0.000 A 
ATOM      8  C   UNL     1       1.160   3.569  20.733  0.00  0.00    +0.000 A 
ATOM      9  C   UNL     1       1.598   2.453  20.029  0.00  0.00    +0.000 A 
ATOM     10  C   UNL     1       2.409   2.618  18.903  0.00  0.00    +0.000 A 
ENDBRANCH   4   5
BRANCH   3  11
ATOM     11  N   UNL     1       5.862   3.975  18.587  0.00  0.00    +0.000 NA
ATOM     12  H   UNL     1       6.876   3.949  18.462  0.00  0.00    +0.000 HD
ATOM     13  H   UNL     1       5.620   3.144  19.126  0.00  0.00    +0.000 HD
ENDBRANCH   3  11
TORSDOF 2
ENDMDL
MODEL 6
REMARK VINA RESULT:      -5.5      1.737      4.316
REMARK  Name = 
REMARK  3 active torsions:
REMARK  status: ('A' for Active; 'I' for Inactive)
REMARK    1  A    between atoms: C_1  and  C_2
REMARK    2  A    between atoms: C_3  and  N_4
REMARK    3  A    between atoms: C_5  and  C_6
REMARK                            x       y       z     vdW  Elec       q    Type
REMARK                         _______ _______ _______ _____ _____    ______ ____
ROOT
ATOM      1  C   UNL     1       2.491   2.122  17.847  0.00  0.00    +0.000 C 
ATOM      2  C   UNL     1       2.815   3.073  18.946  0.00  0.00    +0.000 C 
ATOM      3  C   UNL     1       3.984   2.879  19.871  0.00  0.00    +0.000 C 
ATOM      4  C   UNL     1       3.955   4.068  18.921  0.00  0.00    +0.000 C 
ENDROOT
BRANCH   4   5
ATOM      5  C   UNL     1       5.009   4.198  17.840  0.00  0.00    +0.000 A 
ATOM      6  C   UNL     1       4.747   3.993  16.479  0.00  0.00    +0.000 A 
ATOM      7  C   UNL     1       5.743   4.170  15.509  0.00  0.00    +0.000 A 
ATOM      8  C   UNL     1       7.020   4.577  15.884  0.00  0.00    +0.000 A 
ATOM      9  C   UNL     1       7.304   4.810  17.224  0.00  0.00    +0.000 A 
ATOM     10  C   UNL     1       6.305   4.628  18.185  0.00  0.00    +0.000 A 
ENDBRANCH   4   5
BRANCH   3  11
ATOM     11  N   UNL     1       4.925   1.770  19.686  0.00  0.00    +0.000 NA
ATOM     12  H   UNL     1       5.100   1.284  20.568  0.00  0.00    +0.000 HD
ATOM     13  H   UNL     1       5.831   2.113  19.366  0.00  0.00    +0.000 HD
ENDBRANCH   3  11
TORSDOF 2
ENDMDL
MODEL 7
REMARK VINA RESULT:      -5.5      1.710      2.262
REMARK  Name = 
REMARK  3 active torsions:
REMARK  status: ('A' for Active; 'I' for Inactive)
REMARK    1  A    between atoms: C_1  and  C_2
REMARK    2  A    between atoms: C_3  and  N_4
REMARK    3  A    between atoms: C_5  and  C_6
REMARK                            x       y       z     vdW  Elec       q    Type
REMARK                         _______ _______ _______ _____ _____    ______ ____
ROOT
ATOM      1  C   UNL     1       5.705   5.304  19.154  0.00  0.00    +0.000 C 
ATOM      2  C   UNL     1       4.888   5.644  17.956  0.00  0.00    +0.000 C 
ATOM      3  C   UNL     1       4.445   4.615  16.955  0.00  0.00    +0.000 C 
ATOM      4  C   UNL     1       3.413   5.346  17.802  0.00  0.00    +0.000 C 
ENDROOT
BRANCH   4   5
ATOM      5  C   UNL     1       2.547   4.572  18.775  0.00  0.00    +0.000 A 
ATOM      6  C   UNL     1       1.633   3.587  18.379  0.00  0.00    +0.000 A 
ATOM      7  C   UNL     1       0.886   2.864  19.319  0.00  0.00    +0.000 A 
ATOM      8  C   UNL     1       1.056   3.101  20.680  0.00  0.00    +0.000 A 
ATOM      9  C   UNL     1       1.973   4.056  21.104  0.00  0.00    +0.000 A 
ATOM     10  C   UNL     1       2.711   4.776  20.159  0.00  0.00    +0.000 A 
ENDBRANCH   4   5
BRANCH   3  11
ATOM     11  N   UNL     1       4.730   3.189  17.152  0.00  0.00    +0.000 NA
ATOM     12  H   UNL     1       4.059   2.607  16.647  0.00  0.00    +0.000 HD
ATOM     13  H   UNL     1       4.644   2.935  18.136  0.00  0.00    +0.000 HD
ENDBRANCH   3  11
TORSDOF 2
ENDMDL
MODEL 8
REMARK VINA RESULT:      -5.4      1.554      2.760
REMARK  Name = 
REMARK  3 active torsions:
REMARK  status: ('A' for Active; 'I' for Inactive)
REMARK    1  A    between atoms: C_1  and  C_2
REMARK    2  A    between atoms: C_3  and  N_4
REMARK    3  A    between atoms: C_5  and  C_6
REMARK                            x       y       z     vdW  Elec       q    Type
REMARK                         _______ _______ _______ _____ _____    ______ ____
ROOT
ATOM      1  C   UNL     1       7.329   7.190  17.642  0.00  0.00    +0.000 C 
ATOM      2  C   UNL     1       7.249   6.106  16.624  0.00  0.00    +0.000 C 
ATOM      3  C   UNL     1       7.129   4.653  16.990  0.00  0.00    +0.000 C 
ATOM      4  C   UNL     1       5.988   5.350  16.262  0.00  0.00    +0.000 C 
ENDROOT
BRANCH   4   5
ATOM      5  C   UNL     1       4.636   5.488  16.932  0.00  0.00    +0.000 A 
ATOM      6  C   UNL     1       3.780   4.406  17.171  0.00  0.00    +0.000 A 
ATOM      7  C   UNL     1       2.558   4.574  17.835  0.00  0.00    +0.000 A 
ATOM      8  C   UNL     1       2.178   5.832  18.293  0.00  0.00    +0.000 A 
ATOM      9  C   UNL     1       3.017   6.922  18.091  0.00  0.00    +0.000 A 
ATOM     10  C   UNL     1       4.233   6.745  17.423  0.00  0.00    +0.000 A 
ENDBRANCH   4   5
BRANCH   3  11
ATOM     11  N   UNL     1       7.004   4.229  18.389  0.00  0.00    +0.000 NA
ATOM     12  H   UNL     1       6.067   3.870  18.581  0.00  0.00    +0.000 HD
ATOM     13  H   UNL     1       7.141   5.018  19.020  0.00  0.00    +0.000 HD
ENDBRANCH   3  11
TORSDOF 2
ENDMDL
MODEL 9
REMARK VINA RESULT:      -5.4      1.202      1.970
REMARK  Name = 
REMARK  3 active torsions:
REMARK  status: ('A' for Active; 'I' for Inactive)
REMARK    1  A    between atoms: C_1  and  C_2
REMARK    2  A    between atoms: C_3  and  N_4
REMARK    3  A    between atoms: C_5  and  C_6
REMARK                            x       y       z     vdW  Elec       q    Type
REMARK                         _______ _______ _______ _____ _____    ______ ____
ROOT
ATOM      1  C   UNL     1       4.500   6.470  17.675  0.00  0.00    +0.000 C 
ATOM      2  C   UNL     1       4.465   5.222  16.862  0.00  0.00    +0.000 C 
ATOM      3  C   UNL     1       5.121   3.944  17.305  0.00  0.00    +0.000 C 
ATOM      4  C   UNL     1       3.607   4.014  17.168  0.00  0.00    +0.000 C 
ENDROOT
BRANCH   4   5
ATOM      5  C   UNL     1       2.727   3.823  18.387  0.00  0.00    +0.000 A 
ATOM      6  C   UNL     1       2.390   2.567  18.906  0.00  0.00    +0.000 A 
ATOM      7  C   UNL     1       1.611   2.440  20.063  0.00  0.00    +0.000 A 
ATOM      8  C   UNL     1       1.169   3.575  20.738  0.00  0.00    +0.000 A 
ATOM      9  C   UNL     1       1.507   4.835  20.259  0.00  0.00    +0.000 A 
ATOM     10  C   UNL     1       2.281   4.952  19.101  0.00  0.00    +0.000 A 
ENDBRANCH   4   5
BRANCH   3  11
ATOM     11  N   UNL     1       5.770   3.837  18.616  0.00  0.00    +0.000 NA
ATOM     12  H   UNL     1       5.310   3.134  19.198  0.00  0.00    +0.000 HD
ATOM     13  H   UNL     1       5.704   4.717  19.127  0.00  0.00    +0.000 HD
ENDBRANCH   3  11
TORSDOF 2
ENDMDL
