MODEL 1
REMARK VINA RESULT:      -7.5      0.000      0.000
REMARK  Name = 
REMARK  4 active torsions:
REMARK  status: ('A' for Active; 'I' for Inactive)
REMARK    1  A    between atoms: C_1  and  C_2
REMARK    2  A    between atoms: C_7  and  C_8
REMARK    3  A    between atoms: C_20  and  C_21
REMARK    4  A    between atoms: C_24  and  C_25
REMARK                            x       y       z     vdW  Elec       q    Type
REMARK                         _______ _______ _______ _____ _____    ______ ____
ROOT
ATOM      1  C   UNL     1       9.897  13.398  18.094  0.00  0.00    +0.000 C 
ATOM      2  C   UNL     1      10.962  12.647  17.323  0.00  0.00    +0.000 C 
ATOM      3  O   UNL     1      10.684  11.265  17.583  0.00  0.00    +0.000 OA
ATOM      4  C   UNL     1      10.004  11.204  18.773  0.00  0.00    +0.000 C 
ATOM      5  O   UNL     1       9.725  10.150  19.323  0.00  0.00    +0.000 OA
ATOM      6  N   UNL     1       9.654  12.479  19.180  0.00  0.00    +0.000 N 
ATOM      7  C   UNL     1       8.953  12.803  20.316  0.00  0.00    +0.000 A 
ATOM      8  C   UNL     1       9.392  12.087  21.555  0.00  0.00    +0.000 A 
ATOM      9  C   UNL     1       8.850  12.533  22.696  0.00  0.00    +0.000 A 
ATOM     10  N   UNL     1       7.869  13.517  22.673  0.00  0.00    +0.000 N 
ATOM     11  N   UNL     1       7.192  14.039  23.725  0.00  0.00    +0.000 NA
ATOM     12  C   UNL     1       6.222  14.757  23.159  0.00  0.00    +0.000 A 
ATOM     13  C   UNL     1       6.297  14.781  21.750  0.00  0.00    +0.000 A 
ATOM     14  C   UNL     1       7.431  14.047  21.456  0.00  0.00    +0.000 A 
ATOM     15  N   UNL     1       8.057  13.742  20.272  0.00  0.00    +0.000 NA
ENDROOT
BRANCH   1  22
ATOM     16  C   UNL     1       9.343  18.268  17.918  0.00  0.00    +0.000 C 
ATOM     17  C   UNL     1      10.141  17.087  18.387  0.00  0.00    +0.000 A 
ATOM     18  C   UNL     1      11.361  17.273  19.033  0.00  0.00    +0.000 A 
ATOM     19  C   UNL     1      12.063  16.159  19.480  0.00  0.00    +0.000 A 
ATOM     20  C   UNL     1      11.546  14.896  19.239  0.00  0.00    +0.000 A 
ATOM     21  F   UNL     1      12.219  13.815  19.656  0.00  0.00    +0.000 F 
ATOM     22  C   UNL     1      10.348  14.769  18.547  0.00  0.00    +0.000 A 
ATOM     23  N   UNL     1       9.617  15.855  18.153  0.00  0.00    +0.000 NA
ENDBRANCH   1  22
BRANCH  13  24
ATOM     24  C   UNL     1       5.377  15.326  20.767  0.00  0.00    +0.000 A 
ATOM     25  C   UNL     1       5.621  16.561  20.157  0.00  0.00    +0.000 A 
ATOM     26  C   UNL     1       4.661  17.133  19.310  0.00  0.00    +0.000 A 
ATOM     27  C   UNL     1       3.438  16.486  19.059  0.00  0.00    +0.000 A 
ATOM     28  C   UNL     1       3.227  15.236  19.641  0.00  0.00    +0.000 A 
ATOM     29  F   UNL     1       2.094  14.546  19.439  0.00  0.00    +0.000 F 
ATOM     30  C   UNL     1       4.176  14.665  20.484  0.00  0.00    +0.000 A 
BRANCH  27  31
ATOM     31  C   UNL     1       2.404  17.129  18.257  0.00  0.00    +0.000 A 
ATOM     32  N   UNL     1       1.166  17.467  18.758  0.00  0.00    +0.000 NA
ATOM     33  C   UNL     1       0.579  18.082  17.764  0.00  0.00    +0.000 A 
ATOM     34  N   UNL     1       1.414  18.108  16.699  0.00  0.00    +0.000 N 
ATOM     35  N   UNL     1       2.581  17.506  16.978  0.00  0.00    +0.000 NA
ATOM     36  H   UNL     1       1.271  18.512  15.782  0.00  0.00    +0.000 HD
ENDBRANCH  27  31
ENDBRANCH  13  24
TORSDOF 3
ENDMDL
MODEL 2
REMARK VINA RESULT:      -7.4      9.183     12.505
REMARK  Name = 
REMARK  4 active torsions:
REMARK  status: ('A' for Active; 'I' for Inactive)
REMARK    1  A    between atoms: C_1  and  C_2
REMARK    2  A    between atoms: C_7  and  C_8
REMARK    3  A    between atoms: C_20  and  C_21
REMARK    4  A    between atoms: C_24  and  C_25
REMARK                            x       y       z     vdW  Elec       q    Type
REMARK                         _______ _______ _______ _____ _____    ______ ____
ROOT
ATOM      1  C   UNL     1      -2.954  13.766  23.254  0.00  0.00    +0.000 C 
ATOM      2  C   UNL     1      -3.094  14.199  24.699  0.00  0.00    +0.000 C 
ATOM      3  O   UNL     1      -4.018  13.260  25.265  0.00  0.00    +0.000 OA
ATOM      4  C   UNL     1      -4.776  12.765  24.235  0.00  0.00    +0.000 C 
ATOM      5  O   UNL     1      -5.731  12.025  24.414  0.00  0.00    +0.000 OA
ATOM      6  N   UNL     1      -4.252  13.178  23.024  0.00  0.00    +0.000 N 
ATOM      7  C   UNL     1      -4.740  12.861  21.780  0.00  0.00    +0.000 A 
ATOM      8  C   UNL     1      -6.225  12.970  21.637  0.00  0.00    +0.000 A 
ATOM      9  C   UNL     1      -6.691  12.852  20.386  0.00  0.00    +0.000 A 
ATOM     10  N   UNL     1      -5.831  12.540  19.341  0.00  0.00    +0.000 N 
ATOM     11  N   UNL     1      -6.146  12.339  18.038  0.00  0.00    +0.000 NA
ATOM     12  C   UNL     1      -5.027  11.846  17.508  0.00  0.00    +0.000 A 
ATOM     13  C   UNL     1      -3.954  11.791  18.424  0.00  0.00    +0.000 A 
ATOM     14  C   UNL     1      -4.469  12.335  19.585  0.00  0.00    +0.000 A 
ATOM     15  N   UNL     1      -3.912  12.594  20.815  0.00  0.00    +0.000 NA
ENDROOT
BRANCH   1  22
ATOM     16  C   UNL     1      -4.267  18.044  21.248  0.00  0.00    +0.000 C 
ATOM     17  C   UNL     1      -3.301  16.898  21.298  0.00  0.00    +0.000 A 
ATOM     18  C   UNL     1      -2.268  16.806  20.368  0.00  0.00    +0.000 A 
ATOM     19  C   UNL     1      -1.372  15.746  20.460  0.00  0.00    +0.000 A 
ATOM     20  C   UNL     1      -1.554  14.794  21.450  0.00  0.00    +0.000 A 
ATOM     21  F   UNL     1      -0.703  13.763  21.540  0.00  0.00    +0.000 F 
ATOM     22  C   UNL     1      -2.631  14.911  22.320  0.00  0.00    +0.000 A 
ATOM     23  N   UNL     1      -3.484  15.978  22.281  0.00  0.00    +0.000 NA
ENDBRANCH   1  22
BRANCH  13  24
ATOM     24  C   UNL     1      -2.630  11.210  18.290  0.00  0.00    +0.000 A 
ATOM     25  C   UNL     1      -2.378  10.197  17.358  0.00  0.00    +0.000 A 
ATOM     26  C   UNL     1      -1.131   9.556  17.331  0.00  0.00    +0.000 A 
ATOM     27  C   UNL     1      -0.114   9.910  18.235  0.00  0.00    +0.000 A 
ATOM     28  C   UNL     1      -0.366  10.950  19.130  0.00  0.00    +0.000 A 
ATOM     29  F   UNL     1       0.557  11.359  20.014  0.00  0.00    +0.000 F 
ATOM     30  C   UNL     1      -1.603  11.587  19.163  0.00  0.00    +0.000 A 
BRANCH  27  31
ATOM     31  C   UNL     1       1.145   9.176  18.268  0.00  0.00    +0.000 A 
ATOM     32  N   UNL     1       1.486   8.313  19.287  0.00  0.00    +0.000 NA
ATOM     33  C   UNL     1       2.630   7.808  18.906  0.00  0.00    +0.000 A 
ATOM     34  N   UNL     1       2.980   8.346  17.713  0.00  0.00    +0.000 N 
ATOM     35  N   UNL     1       2.060   9.222  17.283  0.00  0.00    +0.000 NA
ATOM     36  H   UNL     1       3.798   8.165  17.144  0.00  0.00    +0.000 HD
ENDBRANCH  27  31
ENDBRANCH  13  24
TORSDOF 3
ENDMDL
MODEL 3
REMARK VINA RESULT:      -7.3      9.676     13.432
REMARK  Name = 
REMARK  4 active torsions:
REMARK  status: ('A' for Active; 'I' for Inactive)
REMARK    1  A    between atoms: C_1  and  C_2
REMARK    2  A    between atoms: C_7  and  C_8
REMARK    3  A    between atoms: C_20  and  C_21
REMARK    4  A    between atoms: C_24  and  C_25
REMARK                            x       y       z     vdW  Elec       q    Type
REMARK                         _______ _______ _______ _____ _____    ______ ____
ROOT
ATOM      1  C   UNL     1      -4.627  13.177  22.965  0.00  0.00    +0.000 C 
ATOM      2  C   UNL     1      -5.078  13.378  24.397  0.00  0.00    +0.000 C 
ATOM      3  O   UNL     1      -6.074  12.368  24.603  0.00  0.00    +0.000 OA
ATOM      4  C   UNL     1      -6.586  12.046  23.372  0.00  0.00    +0.000 C 
ATOM      5  O   UNL     1      -7.537  11.293  23.228  0.00  0.00    +0.000 OA
ATOM      6  N   UNL     1      -5.831  12.641  22.377  0.00  0.00    +0.000 N 
ATOM      7  C   UNL     1      -6.039  12.528  21.025  0.00  0.00    +0.000 A 
ATOM      8  C   UNL     1      -7.464  12.667  20.590  0.00  0.00    +0.000 A 
ATOM      9  C   UNL     1      -7.654  12.751  19.267  0.00  0.00    +0.000 A 
ATOM     10  N   UNL     1      -6.586  12.601  18.391  0.00  0.00    +0.000 N 
ATOM     11  N   UNL     1      -6.616  12.611  17.036  0.00  0.00    +0.000 NA
ATOM     12  C   UNL     1      -5.398  12.200  16.684  0.00  0.00    +0.000 A 
ATOM     13  C   UNL     1      -4.540  11.995  17.786  0.00  0.00    +0.000 A 
ATOM     14  C   UNL     1      -5.301  12.352  18.882  0.00  0.00    +0.000 A 
ATOM     15  N   UNL     1      -5.021  12.411  20.226  0.00  0.00    +0.000 NA
ENDROOT
BRANCH   1  22
ATOM     16  C   UNL     1      -5.591  17.746  21.465  0.00  0.00    +0.000 C 
ATOM     17  C   UNL     1      -4.635  16.590  21.514  0.00  0.00    +0.000 A 
ATOM     18  C   UNL     1      -3.441  16.633  20.799  0.00  0.00    +0.000 A 
ATOM     19  C   UNL     1      -2.564  15.557  20.888  0.00  0.00    +0.000 A 
ATOM     20  C   UNL     1      -2.920  14.461  21.656  0.00  0.00    +0.000 A 
ATOM     21  F   UNL     1      -2.088  13.414  21.740  0.00  0.00    +0.000 F 
ATOM     22  C   UNL     1      -4.146  14.453  22.310  0.00  0.00    +0.000 A 
ATOM     23  N   UNL     1      -4.992  15.526  22.280  0.00  0.00    +0.000 NA
ENDBRANCH   1  22
BRANCH  13  24
ATOM     24  C   UNL     1      -3.202  11.433  17.845  0.00  0.00    +0.000 A 
ATOM     25  C   UNL     1      -2.864  10.295  17.106  0.00  0.00    +0.000 A 
ATOM     26  C   UNL     1      -1.611   9.689  17.273  0.00  0.00    +0.000 A 
ATOM     27  C   UNL     1      -0.672  10.205  18.186  0.00  0.00    +0.000 A 
ATOM     28  C   UNL     1      -1.008  11.364  18.885  0.00  0.00    +0.000 A 
ATOM     29  F   UNL     1      -0.163  11.929  19.761  0.00  0.00    +0.000 F 
ATOM     30  C   UNL     1      -2.252  11.967  18.724  0.00  0.00    +0.000 A 
BRANCH  27  31
ATOM     31  C   UNL     1       0.590   9.516  18.428  0.00  0.00    +0.000 A 
ATOM     32  N   UNL     1       0.908   8.935  19.636  0.00  0.00    +0.000 NA
ATOM     33  C   UNL     1       2.066   8.365  19.419  0.00  0.00    +0.000 A 
ATOM     34  N   UNL     1       2.444   8.597  18.139  0.00  0.00    +0.000 N 
ATOM     35  N   UNL     1       1.530   9.330  17.485  0.00  0.00    +0.000 NA
ATOM     36  H   UNL     1       3.277   8.293  17.652  0.00  0.00    +0.000 HD
ENDBRANCH  27  31
ENDBRANCH  13  24
TORSDOF 3
ENDMDL
MODEL 4
REMARK VINA RESULT:      -7.3      7.609      9.004
REMARK  Name = 
REMARK  4 active torsions:
REMARK  status: ('A' for Active; 'I' for Inactive)
REMARK    1  A    between atoms: C_1  and  C_2
REMARK    2  A    between atoms: C_7  and  C_8
REMARK    3  A    between atoms: C_20  and  C_21
REMARK    4  A    between atoms: C_24  and  C_25
REMARK                            x       y       z     vdW  Elec       q    Type
REMARK                         _______ _______ _______ _____ _____    ______ ____
ROOT
ATOM      1  C   UNL     1       5.994   5.894  15.824  0.00  0.00    +0.000 C 
ATOM      2  C   UNL     1       6.872   5.411  14.687  0.00  0.00    +0.000 C 
ATOM      3  O   UNL     1       6.065   4.447  13.998  0.00  0.00    +0.000 OA
ATOM      4  C   UNL     1       5.148   3.968  14.898  0.00  0.00    +0.000 C 
ATOM      5  O   UNL     1       4.389   3.046  14.641  0.00  0.00    +0.000 OA
ATOM      6  N   UNL     1       5.190   4.719  16.058  0.00  0.00    +0.000 N 
ATOM      7  C   UNL     1       4.402   4.539  17.169  0.00  0.00    +0.000 A 
ATOM      8  C   UNL     1       4.249   3.117  17.611  0.00  0.00    +0.000 A 
ATOM      9  C   UNL     1       3.647   2.948  18.796  0.00  0.00    +0.000 A 
ATOM     10  N   UNL     1       3.118   4.035  19.479  0.00  0.00    +0.000 N 
ATOM     11  N   UNL     1       2.442   4.029  20.654  0.00  0.00    +0.000 NA
ATOM     12  C   UNL     1       1.957   5.266  20.754  0.00  0.00    +0.000 A 
ATOM     13  C   UNL     1       2.368   6.112  19.701  0.00  0.00    +0.000 A 
ATOM     14  C   UNL     1       3.200   5.320  18.932  0.00  0.00    +0.000 A 
ATOM     15  N   UNL     1       3.938   5.574  17.802  0.00  0.00    +0.000 NA
ENDROOT
BRANCH   1  22
ATOM     16  C   UNL     1       8.274   9.496  18.249  0.00  0.00    +0.000 C 
ATOM     17  C   UNL     1       7.947   8.036  18.138  0.00  0.00    +0.000 A 
ATOM     18  C   UNL     1       8.530   7.116  19.005  0.00  0.00    +0.000 A 
ATOM     19  C   UNL     1       8.184   5.773  18.894  0.00  0.00    +0.000 A 
ATOM     20  C   UNL     1       7.298   5.386  17.902  0.00  0.00    +0.000 A 
ATOM     21  F   UNL     1       6.966   4.094  17.779  0.00  0.00    +0.000 F 
ATOM     22  C   UNL     1       6.784   6.342  17.034  0.00  0.00    +0.000 A 
ATOM     23  N   UNL     1       7.068   7.672  17.168  0.00  0.00    +0.000 NA
ENDBRANCH   1  22
BRANCH  13  24
ATOM     24  C   UNL     1       1.965   7.467  19.369  0.00  0.00    +0.000 A 
ATOM     25  C   UNL     1       2.227   8.009  18.107  0.00  0.00    +0.000 A 
ATOM     26  C   UNL     1       1.949   9.358  17.845  0.00  0.00    +0.000 A 
ATOM     27  C   UNL     1       1.409  10.194  18.839  0.00  0.00    +0.000 A 
ATOM     28  C   UNL     1       1.115   9.628  20.080  0.00  0.00    +0.000 A 
ATOM     29  F   UNL     1       0.583  10.352  21.077  0.00  0.00    +0.000 F 
ATOM     30  C   UNL     1       1.391   8.290  20.345  0.00  0.00    +0.000 A 
BRANCH  27  31
ATOM     31  C   UNL     1       1.214  11.617  18.594  0.00  0.00    +0.000 A 
ATOM     32  N   UNL     1      -0.026  12.218  18.603  0.00  0.00    +0.000 NA
ATOM     33  C   UNL     1       0.235  13.487  18.424  0.00  0.00    +0.000 A 
ATOM     34  N   UNL     1       1.573  13.654  18.299  0.00  0.00    +0.000 N 
ATOM     35  N   UNL     1       2.223  12.484  18.397  0.00  0.00    +0.000 NA
ATOM     36  H   UNL     1       2.102  14.506  18.159  0.00  0.00    +0.000 HD
ENDBRANCH  27  31
ENDBRANCH  13  24
TORSDOF 3
ENDMDL
MODEL 5
REMARK VINA RESULT:      -7.1      8.616     12.504
REMARK  Name = 
REMARK  4 active torsions:
REMARK  status: ('A' for Active; 'I' for Inactive)
REMARK    1  A    between atoms: C_1  and  C_2
REMARK    2  A    between atoms: C_7  and  C_8
REMARK    3  A    between atoms: C_20  and  C_21
REMARK    4  A    between atoms: C_24  and  C_25
REMARK                            x       y       z     vdW  Elec       q    Type
REMARK                         _______ _______ _______ _____ _____    ______ ____
ROOT
ATOM      1  C   UNL     1      -2.948  13.839  23.159  0.00  0.00    +0.000 C 
ATOM      2  C   UNL     1      -3.097  14.292  24.597  0.00  0.00    +0.000 C 
ATOM      3  O   UNL     1      -4.031  13.366  25.168  0.00  0.00    +0.000 OA
ATOM      4  C   UNL     1      -4.783  12.860  24.138  0.00  0.00    +0.000 C 
ATOM      5  O   UNL     1      -5.743  12.128  24.318  0.00  0.00    +0.000 OA
ATOM      6  N   UNL     1      -4.246  13.255  22.926  0.00  0.00    +0.000 N 
ATOM      7  C   UNL     1      -4.726  12.924  21.682  0.00  0.00    +0.000 A 
ATOM      8  C   UNL     1      -6.210  13.039  21.525  0.00  0.00    +0.000 A 
ATOM      9  C   UNL     1      -6.665  12.907  20.272  0.00  0.00    +0.000 A 
ATOM     10  N   UNL     1      -5.798  12.576  19.239  0.00  0.00    +0.000 N 
ATOM     11  N   UNL     1      -6.104  12.360  17.936  0.00  0.00    +0.000 NA
ATOM     12  C   UNL     1      -4.983  11.853  17.422  0.00  0.00    +0.000 A 
ATOM     13  C   UNL     1      -3.918  11.805  18.347  0.00  0.00    +0.000 A 
ATOM     14  C   UNL     1      -4.440  12.367  19.497  0.00  0.00    +0.000 A 
ATOM     15  N   UNL     1      -3.892  12.640  20.727  0.00  0.00    +0.000 NA
ENDROOT
BRANCH   1  22
ATOM     16  C   UNL     1       0.195  15.852  19.978  0.00  0.00    +0.000 C 
ATOM     17  C   UNL     1      -1.072  15.970  20.772  0.00  0.00    +0.000 A 
ATOM     18  C   UNL     1      -1.786  17.165  20.787  0.00  0.00    +0.000 A 
ATOM     19  C   UNL     1      -2.971  17.233  21.511  0.00  0.00    +0.000 A 
ATOM     20  C   UNL     1      -3.388  16.121  22.225  0.00  0.00    +0.000 A 
ATOM     21  F   UNL     1      -4.523  16.178  22.935  0.00  0.00    +0.000 F 
ATOM     22  C   UNL     1      -2.610  14.970  22.213  0.00  0.00    +0.000 A 
ATOM     23  N   UNL     1      -1.475  14.868  21.459  0.00  0.00    +0.000 NA
ENDBRANCH   1  22
BRANCH  13  24
ATOM     24  C   UNL     1      -2.597  11.215  18.232  0.00  0.00    +0.000 A 
ATOM     25  C   UNL     1      -2.347  10.174  17.331  0.00  0.00    +0.000 A 
ATOM     26  C   UNL     1      -1.103   9.528  17.324  0.00  0.00    +0.000 A 
ATOM     27  C   UNL     1      -0.085   9.905  18.218  0.00  0.00    +0.000 A 
ATOM     28  C   UNL     1      -0.335  10.971  19.082  0.00  0.00    +0.000 A 
ATOM     29  F   UNL     1       0.589  11.403  19.955  0.00  0.00    +0.000 F 
ATOM     30  C   UNL     1      -1.569  11.614  19.095  0.00  0.00    +0.000 A 
BRANCH  27  31
ATOM     31  C   UNL     1       1.171   9.166  18.274  0.00  0.00    +0.000 A 
ATOM     32  N   UNL     1       1.484   8.293  19.293  0.00  0.00    +0.000 NA
ATOM     33  C   UNL     1       2.637   7.789  18.934  0.00  0.00    +0.000 A 
ATOM     34  N   UNL     1       3.017   8.337  17.756  0.00  0.00    +0.000 N 
ATOM     35  N   UNL     1       2.109   9.220  17.312  0.00  0.00    +0.000 NA
ATOM     36  H   UNL     1       3.848   8.160  17.205  0.00  0.00    +0.000 HD
ENDBRANCH  27  31
ENDBRANCH  13  24
TORSDOF 3
ENDMDL
MODEL 6
REMARK VINA RESULT:      -7.0      9.113     13.239
REMARK  Name = 
REMARK  4 active torsions:
REMARK  status: ('A' for Active; 'I' for Inactive)
REMARK    1  A    between atoms: C_1  and  C_2
REMARK    2  A    between atoms: C_7  and  C_8
REMARK    3  A    between atoms: C_20  and  C_21
REMARK    4  A    between atoms: C_24  and  C_25
REMARK                            x       y       z     vdW  Elec       q    Type
REMARK                         _______ _______ _______ _____ _____    ______ ____
ROOT
ATOM      1  C   UNL     1      -4.185  13.527  23.045  0.00  0.00    +0.000 C 
ATOM      2  C   UNL     1      -4.521  13.839  24.489  0.00  0.00    +0.000 C 
ATOM      3  O   UNL     1      -5.482  12.840  24.856  0.00  0.00    +0.000 OA
ATOM      4  C   UNL     1      -6.088  12.416  23.701  0.00  0.00    +0.000 C 
ATOM      5  O   UNL     1      -7.035  11.646  23.696  0.00  0.00    +0.000 OA
ATOM      6  N   UNL     1      -5.425  12.935  22.604  0.00  0.00    +0.000 N 
ATOM      7  C   UNL     1      -5.741  12.711  21.286  0.00  0.00    +0.000 A 
ATOM      8  C   UNL     1      -7.199  12.803  20.961  0.00  0.00    +0.000 A 
ATOM      9  C   UNL     1      -7.497  12.778  19.655  0.00  0.00    +0.000 A 
ATOM     10  N   UNL     1      -6.502  12.567  18.709  0.00  0.00    +0.000 N 
ATOM     11  N   UNL     1      -6.642  12.467  17.365  0.00  0.00    +0.000 NA
ATOM     12  C   UNL     1      -5.451  12.039  16.947  0.00  0.00    +0.000 A 
ATOM     13  C   UNL     1      -4.502  11.931  17.988  0.00  0.00    +0.000 A 
ATOM     14  C   UNL     1      -5.177  12.369  19.111  0.00  0.00    +0.000 A 
ATOM     15  N   UNL     1      -4.789  12.538  20.418  0.00  0.00    +0.000 NA
ENDROOT
BRANCH   1  22
ATOM     16  C   UNL     1      -0.732  15.948  20.543  0.00  0.00    +0.000 C 
ATOM     17  C   UNL     1      -2.106  15.939  21.145  0.00  0.00    +0.000 A 
ATOM     18  C   UNL     1      -2.882  17.095  21.146  0.00  0.00    +0.000 A 
ATOM     19  C   UNL     1      -4.162  17.046  21.686  0.00  0.00    +0.000 A 
ATOM     20  C   UNL     1      -4.615  15.859  22.239  0.00  0.00    +0.000 A 
ATOM     21  F   UNL     1      -5.843  15.804  22.772  0.00  0.00    +0.000 F 
ATOM     22  C   UNL     1      -3.778  14.750  22.253  0.00  0.00    +0.000 A 
ATOM     23  N   UNL     1      -2.541  14.765  21.673  0.00  0.00    +0.000 NA
ENDBRANCH   1  22
BRANCH  13  24
ATOM     24  C   UNL     1      -3.156  11.387  17.981  0.00  0.00    +0.000 A 
ATOM     25  C   UNL     1      -2.840  10.251  17.228  0.00  0.00    +0.000 A 
ATOM     26  C   UNL     1      -1.572   9.662  17.335  0.00  0.00    +0.000 A 
ATOM     27  C   UNL     1      -0.596  10.193  18.197  0.00  0.00    +0.000 A 
ATOM     28  C   UNL     1      -0.912  11.350  18.910  0.00  0.00    +0.000 A 
ATOM     29  F   UNL     1      -0.032  11.928  19.741  0.00  0.00    +0.000 F 
ATOM     30  C   UNL     1      -2.170  11.936  18.810  0.00  0.00    +0.000 A 
BRANCH  27  31
ATOM     31  C   UNL     1       0.685   9.521  18.378  0.00  0.00    +0.000 A 
ATOM     32  N   UNL     1       0.987   8.766  19.490  0.00  0.00    +0.000 NA
ATOM     33  C   UNL     1       2.175   8.282  19.232  0.00  0.00    +0.000 A 
ATOM     34  N   UNL     1       2.586   8.731  18.022  0.00  0.00    +0.000 N 
ATOM     35  N   UNL     1       1.664   9.525  17.456  0.00  0.00    +0.000 NA
ATOM     36  H   UNL     1       3.448   8.540  17.526  0.00  0.00    +0.000 HD
ENDBRANCH  27  31
ENDBRANCH  13  24
TORSDOF 3
ENDMDL
MODEL 7
REMARK VINA RESULT:      -7.0      6.880     10.487
REMARK  Name = 
REMARK  4 active torsions:
REMARK  status: ('A' for Active; 'I' for Inactive)
REMARK    1  A    between atoms: C_1  and  C_2
REMARK    2  A    between atoms: C_7  and  C_8
REMARK    3  A    between atoms: C_20  and  C_21
REMARK    4  A    between atoms: C_24  and  C_25
REMARK                            x       y       z     vdW  Elec       q    Type
REMARK                         _______ _______ _______ _____ _____    ______ ____
ROOT
ATOM      1  C   UNL     1       0.679  15.004  22.070  0.00  0.00    +0.000 C 
ATOM      2  C   UNL     1       0.976  16.069  23.104  0.00  0.00    +0.000 C 
ATOM      3  O   UNL     1       0.159  15.713  24.228  0.00  0.00    +0.000 OA
ATOM      4  C   UNL     1      -0.891  14.973  23.748  0.00  0.00    +0.000 C 
ATOM      5  O   UNL     1      -1.824  14.617  24.450  0.00  0.00    +0.000 OA
ATOM      6  N   UNL     1      -0.680  14.664  22.416  0.00  0.00    +0.000 N 
ATOM      7  C   UNL     1      -1.514  13.924  21.615  0.00  0.00    +0.000 A 
ATOM      8  C   UNL     1      -2.966  14.265  21.726  0.00  0.00    +0.000 A 
ATOM      9  C   UNL     1      -3.762  13.689  20.816  0.00  0.00    +0.000 A 
ATOM     10  N   UNL     1      -3.249  12.759  19.920  0.00  0.00    +0.000 N 
ATOM     11  N   UNL     1      -3.923  12.055  18.978  0.00  0.00    +0.000 NA
ATOM     12  C   UNL     1      -3.039  11.150  18.558  0.00  0.00    +0.000 A 
ATOM     13  C   UNL     1      -1.767  11.297  19.153  0.00  0.00    +0.000 A 
ATOM     14  C   UNL     1      -1.897  12.407  19.966  0.00  0.00    +0.000 A 
ATOM     15  N   UNL     1      -1.006  13.076  20.770  0.00  0.00    +0.000 NA
ENDROOT
BRANCH   1  22
ATOM     16  C   UNL     1       3.180  14.910  17.852  0.00  0.00    +0.000 C 
ATOM     17  C   UNL     1       2.085  15.520  18.677  0.00  0.00    +0.000 A 
ATOM     18  C   UNL     1       1.392  16.636  18.213  0.00  0.00    +0.000 A 
ATOM     19  C   UNL     1       0.364  17.160  18.989  0.00  0.00    +0.000 A 
ATOM     20  C   UNL     1       0.083  16.579  20.215  0.00  0.00    +0.000 A 
ATOM     21  F   UNL     1      -0.899  17.083  20.976  0.00  0.00    +0.000 F 
ATOM     22  C   UNL     1       0.839  15.497  20.648  0.00  0.00    +0.000 A 
ATOM     23  N   UNL     1       1.812  14.933  19.872  0.00  0.00    +0.000 NA
ENDBRANCH   1  22
BRANCH  13  24
ATOM     24  C   UNL     1      -0.588  10.454  19.073  0.00  0.00    +0.000 A 
ATOM     25  C   UNL     1       0.013  10.168  17.842  0.00  0.00    +0.000 A 
ATOM     26  C   UNL     1       1.070   9.249  17.767  0.00  0.00    +0.000 A 
ATOM     27  C   UNL     1       1.546   8.596  18.918  0.00  0.00    +0.000 A 
ATOM     28  C   UNL     1       0.965   8.923  20.144  0.00  0.00    +0.000 A 
ATOM     29  F   UNL     1       1.372   8.357  21.290  0.00  0.00    +0.000 F 
ATOM     30  C   UNL     1      -0.086   9.832  20.223  0.00  0.00    +0.000 A 
BRANCH  27  31
ATOM     31  C   UNL     1       2.578   7.571  18.822  0.00  0.00    +0.000 A 
ATOM     32  N   UNL     1       2.668   6.511  19.698  0.00  0.00    +0.000 NA
ATOM     33  C   UNL     1       3.656   5.795  19.228  0.00  0.00    +0.000 A 
ATOM     34  N   UNL     1       4.156   6.394  18.121  0.00  0.00    +0.000 N 
ATOM     35  N   UNL     1       3.495   7.528  17.840  0.00  0.00    +0.000 NA
ATOM     36  H   UNL     1       4.913   6.098  17.519  0.00  0.00    +0.000 HD
ENDBRANCH  27  31
ENDBRANCH  13  24
TORSDOF 3
ENDMDL
MODEL 8
REMARK VINA RESULT:      -7.0      7.328     10.063
REMARK  Name = 
REMARK  4 active torsions:
REMARK  status: ('A' for Active; 'I' for Inactive)
REMARK    1  A    between atoms: C_1  and  C_2
REMARK    2  A    between atoms: C_7  and  C_8
REMARK    3  A    between atoms: C_20  and  C_21
REMARK    4  A    between atoms: C_24  and  C_25
REMARK                            x       y       z     vdW  Elec       q    Type
REMARK                         _______ _______ _______ _____ _____    ______ ____
ROOT
ATOM      1  C   UNL     1       0.335  12.833  19.011  0.00  0.00    +0.000 C 
ATOM      2  C   UNL     1       1.679  12.444  18.430  0.00  0.00    +0.000 C 
ATOM      3  O   UNL     1       1.702  11.013  18.511  0.00  0.00    +0.000 OA
ATOM      4  C   UNL     1       0.843  10.649  19.516  0.00  0.00    +0.000 C 
ATOM      5  O   UNL     1       0.729   9.497  19.904  0.00  0.00    +0.000 OA
ATOM      6  N   UNL     1       0.121  11.750  19.940  0.00  0.00    +0.000 N 
ATOM      7  C   UNL     1      -0.842  11.759  20.919  0.00  0.00    +0.000 A 
ATOM      8  C   UNL     1      -0.489  11.003  22.161  0.00  0.00    +0.000 A 
ATOM      9  C   UNL     1      -1.331  11.165  23.190  0.00  0.00    +0.000 A 
ATOM     10  N   UNL     1      -2.499  11.901  23.035  0.00  0.00    +0.000 N 
ATOM     11  N   UNL     1      -3.472  12.118  23.953  0.00  0.00    +0.000 NA
ATOM     12  C   UNL     1      -4.461  12.671  23.251  0.00  0.00    +0.000 A 
ATOM     13  C   UNL     1      -4.125  12.895  21.898  0.00  0.00    +0.000 A 
ATOM     14  C   UNL     1      -2.812  12.475  21.798  0.00  0.00    +0.000 A 
ATOM     15  N   UNL     1      -1.915  12.474  20.757  0.00  0.00    +0.000 NA
ENDROOT
BRANCH   1  22
ATOM     16  C   UNL     1      -1.160  17.504  18.978  0.00  0.00    +0.000 C 
ATOM     17  C   UNL     1      -0.294  16.442  19.590  0.00  0.00    +0.000 A 
ATOM     18  C   UNL     1       0.629  16.770  20.580  0.00  0.00    +0.000 A 
ATOM     19  C   UNL     1       1.396  15.758  21.146  0.00  0.00    +0.000 A 
ATOM     20  C   UNL     1       1.245  14.460  20.685  0.00  0.00    +0.000 A 
ATOM     21  F   UNL     1       1.987  13.479  21.216  0.00  0.00    +0.000 F 
ATOM     22  C   UNL     1       0.343  14.200  19.661  0.00  0.00    +0.000 A 
ATOM     23  N   UNL     1      -0.461  15.172  19.135  0.00  0.00    +0.000 NA
ENDBRANCH   1  22
BRANCH  13  24
ATOM     24  C   UNL     1      -4.944  13.346  20.787  0.00  0.00    +0.000 A 
ATOM     25  C   UNL     1      -5.139  12.539  19.661  0.00  0.00    +0.000 A 
ATOM     26  C   UNL     1      -5.822  13.038  18.543  0.00  0.00    +0.000 A 
ATOM     27  C   UNL     1      -6.321  14.354  18.526  0.00  0.00    +0.000 A 
ATOM     28  C   UNL     1      -6.155  15.131  19.672  0.00  0.00    +0.000 A 
ATOM     29  F   UNL     1      -6.616  16.389  19.743  0.00  0.00    +0.000 F 
ATOM     30  C   UNL     1      -5.475  14.641  20.783  0.00  0.00    +0.000 A 
BRANCH  27  31
ATOM     31  C   UNL     1      -6.944  14.900  17.327  0.00  0.00    +0.000 A 
ATOM     32  N   UNL     1      -6.974  16.248  17.043  0.00  0.00    +0.000 NA
ATOM     33  C   UNL     1      -7.539  16.313  15.865  0.00  0.00    +0.000 A 
ATOM     34  N   UNL     1      -7.851  15.061  15.451  0.00  0.00    +0.000 N 
ATOM     35  N   UNL     1      -7.491  14.142  16.359  0.00  0.00    +0.000 NA
ATOM     36  H   UNL     1      -8.287  14.762  14.588  0.00  0.00    +0.000 HD
ENDBRANCH  27  31
ENDBRANCH  13  24
TORSDOF 3
ENDMDL
MODEL 9
REMARK VINA RESULT:      -6.9      7.666      9.057
REMARK  Name = 
REMARK  4 active torsions:
REMARK  status: ('A' for Active; 'I' for Inactive)
REMARK    1  A    between atoms: C_1  and  C_2
REMARK    2  A    between atoms: C_7  and  C_8
REMARK    3  A    between atoms: C_20  and  C_21
REMARK    4  A    between atoms: C_24  and  C_25
REMARK                            x       y       z     vdW  Elec       q    Type
REMARK                         _______ _______ _______ _____ _____    ______ ____
ROOT
ATOM      1  C   UNL     1       5.793   6.005  15.974  0.00  0.00    +0.000 C 
ATOM      2  C   UNL     1       6.602   5.551  14.777  0.00  0.00    +0.000 C 
ATOM      3  O   UNL     1       5.758   4.597  14.118  0.00  0.00    +0.000 OA
ATOM      4  C   UNL     1       4.899   4.094  15.062  0.00  0.00    +0.000 C 
ATOM      5  O   UNL     1       4.129   3.175  14.833  0.00  0.00    +0.000 OA
ATOM      6  N   UNL     1       5.009   4.822  16.234  0.00  0.00    +0.000 N 
ATOM      7  C   UNL     1       4.292   4.615  17.386  0.00  0.00    +0.000 A 
ATOM      8  C   UNL     1       4.171   3.184  17.807  0.00  0.00    +0.000 A 
ATOM      9  C   UNL     1       3.643   2.988  19.023  0.00  0.00    +0.000 A 
ATOM     10  N   UNL     1       3.153   4.058  19.760  0.00  0.00    +0.000 N 
ATOM     11  N   UNL     1       2.551   4.024  20.973  0.00  0.00    +0.000 NA
ATOM     12  C   UNL     1       2.068   5.257  21.128  0.00  0.00    +0.000 A 
ATOM     13  C   UNL     1       2.411   6.126  20.070  0.00  0.00    +0.000 A 
ATOM     14  C   UNL     1       3.197   5.354  19.236  0.00  0.00    +0.000 A 
ATOM     15  N   UNL     1       3.863   5.635  18.067  0.00  0.00    +0.000 NA
ENDROOT
BRANCH   1  22
ATOM     16  C   UNL     1       8.311   9.538  18.261  0.00  0.00    +0.000 C 
ATOM     17  C   UNL     1       7.927   8.090  18.178  0.00  0.00    +0.000 A 
ATOM     18  C   UNL     1       8.516   7.155  19.025  0.00  0.00    +0.000 A 
ATOM     19  C   UNL     1       8.118   5.826  18.941  0.00  0.00    +0.000 A 
ATOM     20  C   UNL     1       7.173   5.464  17.995  0.00  0.00    +0.000 A 
ATOM     21  F   UNL     1       6.789   4.184  17.898  0.00  0.00    +0.000 F 
ATOM     22  C   UNL     1       6.654   6.432  17.143  0.00  0.00    +0.000 A 
ATOM     23  N   UNL     1       6.991   7.752  17.252  0.00  0.00    +0.000 NA
ENDBRANCH   1  22
BRANCH  13  24
ATOM     24  C   UNL     1       1.983   7.485  19.792  0.00  0.00    +0.000 A 
ATOM     25  C   UNL     1       1.215   8.203  20.715  0.00  0.00    +0.000 A 
ATOM     26  C   UNL     1       0.700   9.464  20.379  0.00  0.00    +0.000 A 
ATOM     27  C   UNL     1       0.938  10.030  19.113  0.00  0.00    +0.000 A 
ATOM     28  C   UNL     1       1.740   9.320  18.219  0.00  0.00    +0.000 A 
ATOM     29  F   UNL     1       2.028   9.798  16.998  0.00  0.00    +0.000 F 
ATOM     30  C   UNL     1       2.251   8.068  18.547  0.00  0.00    +0.000 A 
BRANCH  27  31
ATOM     31  C   UNL     1       0.321  11.294  18.733  0.00  0.00    +0.000 A 
ATOM     32  N   UNL     1       0.921  12.517  18.942  0.00  0.00    +0.000 NA
ATOM     33  C   UNL     1       0.096  13.373  18.398  0.00  0.00    +0.000 A 
ATOM     34  N   UNL     1      -0.968  12.706  17.890  0.00  0.00    +0.000 N 
ATOM     35  N   UNL     1      -0.858  11.385  18.091  0.00  0.00    +0.000 NA
ATOM     36  H   UNL     1      -1.777  13.068  17.400  0.00  0.00    +0.000 HD
ENDBRANCH  27  31
ENDBRANCH  13  24
TORSDOF 3
ENDMDL
