MODEL 1
REMARK VINA RESULT:      -7.1      0.000      0.000
REMARK  Name = 
REMARK  5 active torsions:
REMARK  status: ('A' for Active; 'I' for Inactive)
REMARK    1  A    between atoms: C_1  and  C_2
REMARK    2  A    between atoms: C_6  and  N_7
REMARK    3  A    between atoms: C_8  and  S_9
REMARK    4  A    between atoms: C_12  and  C_13
REMARK    5  A    between atoms: C_19  and  C_20
REMARK                            x       y       z     vdW  Elec       q    Type
REMARK                         _______ _______ _______ _____ _____    ______ ____
ROOT
ATOM      1  N   UNL     1       3.045   4.038  18.416  0.00  0.00    +0.000 N 
ATOM      2  C   UNL     1       2.311   2.868  18.556  0.00  0.00    +0.000 A 
ATOM      3  N   UNL     1       3.044   1.824  18.254  0.00  0.00    +0.000 NA
ATOM      4  N   UNL     1       4.252   2.271  17.819  0.00  0.00    +0.000 NA
ATOM      5  C   UNL     1       4.266   3.593  17.878  0.00  0.00    +0.000 A 
ENDROOT
BRANCH   1  11
ATOM      6  C   UNL     1       1.395   7.857  21.336  0.00  0.00    +0.000 C 
ATOM      7  C   UNL     1       1.935   7.272  20.054  0.00  0.00    +0.000 A 
ATOM      8  C   UNL     1       2.143   8.142  18.976  0.00  0.00    +0.000 A 
ATOM      9  C   UNL     1       2.555   7.657  17.744  0.00  0.00    +0.000 A 
ATOM     10  C   UNL     1       2.752   6.291  17.572  0.00  0.00    +0.000 A 
ATOM     11  C   UNL     1       2.643   5.397  18.655  0.00  0.00    +0.000 A 
ATOM     12  C   UNL     1       2.236   5.885  19.922  0.00  0.00    +0.000 A 
ATOM     13  C   UNL     1       2.163   5.045  21.180  0.00  0.00    +0.000 C 
ENDBRANCH   1  11
BRANCH   5  14
ATOM     14  C   UNL     1       5.411   4.388  17.401  0.00  0.00    +0.000 A 
ATOM     15  C   UNL     1       5.696   4.406  16.030  0.00  0.00    +0.000 A 
ATOM     16  C   UNL     1       6.713   5.220  15.565  0.00  0.00    +0.000 A 
ATOM     17  N   UNL     1       7.447   6.027  16.360  0.00  0.00    +0.000 NA
ATOM     18  C   UNL     1       7.188   5.970  17.684  0.00  0.00    +0.000 A 
ATOM     19  C   UNL     1       6.217   5.152  18.244  0.00  0.00    +0.000 A 
ENDBRANCH   5  14
BRANCH   2  20
ATOM     20  S   UNL     1       0.603   2.727  18.850  0.00  0.00    +0.000 S 
ATOM     21  H   UNL     1       0.431   3.718  19.731  0.00  0.00    +0.000 HD
ENDBRANCH   2  20
TORSDOF 3
ENDMDL
MODEL 2
REMARK VINA RESULT:      -7.1      2.039      4.914
REMARK  Name = 
REMARK  5 active torsions:
REMARK  status: ('A' for Active; 'I' for Inactive)
REMARK    1  A    between atoms: C_1  and  C_2
REMARK    2  A    between atoms: C_6  and  N_7
REMARK    3  A    between atoms: C_8  and  S_9
REMARK    4  A    between atoms: C_12  and  C_13
REMARK    5  A    between atoms: C_19  and  C_20
REMARK                            x       y       z     vdW  Elec       q    Type
REMARK                         _______ _______ _______ _____ _____    ______ ____
ROOT
ATOM      1  N   UNL     1       3.632   4.240  19.625  0.00  0.00    +0.000 N 
ATOM      2  C   UNL     1       3.445   3.100  20.395  0.00  0.00    +0.000 A 
ATOM      3  N   UNL     1       2.337   3.190  21.092  0.00  0.00    +0.000 NA
ATOM      4  N   UNL     1       1.806   4.423  20.878  0.00  0.00    +0.000 NA
ATOM      5  C   UNL     1       2.578   5.080  20.028  0.00  0.00    +0.000 A 
ENDROOT
BRANCH   1  11
ATOM      6  C   UNL     1       5.841   4.290  15.048  0.00  0.00    +0.000 C 
ATOM      7  C   UNL     1       5.741   4.671  16.505  0.00  0.00    +0.000 A 
ATOM      8  C   UNL     1       6.753   5.481  17.038  0.00  0.00    +0.000 A 
ATOM      9  C   UNL     1       6.768   5.796  18.389  0.00  0.00    +0.000 A 
ATOM     10  C   UNL     1       5.777   5.294  19.225  0.00  0.00    +0.000 A 
ATOM     11  C   UNL     1       4.695   4.555  18.711  0.00  0.00    +0.000 A 
ATOM     12  C   UNL     1       4.662   4.238  17.329  0.00  0.00    +0.000 A 
ATOM     13  C   UNL     1       3.517   3.526  16.641  0.00  0.00    +0.000 C 
ENDBRANCH   1  11
BRANCH   5  14
ATOM     14  C   UNL     1       2.314   6.479  19.650  0.00  0.00    +0.000 A 
ATOM     15  C   UNL     1       2.541   6.876  18.326  0.00  0.00    +0.000 A 
ATOM     16  C   UNL     1       2.211   8.163  17.942  0.00  0.00    +0.000 A 
ATOM     17  N   UNL     1       1.654   9.070  18.773  0.00  0.00    +0.000 NA
ATOM     18  C   UNL     1       1.478   8.688  20.055  0.00  0.00    +0.000 A 
ATOM     19  C   UNL     1       1.820   7.433  20.539  0.00  0.00    +0.000 A 
ENDBRANCH   5  14
BRANCH   2  20
ATOM     20  S   UNL     1       4.574   1.802  20.644  0.00  0.00    +0.000 S 
ATOM     21  H   UNL     1       5.704   2.497  20.807  0.00  0.00    +0.000 HD
ENDBRANCH   2  20
TORSDOF 3
ENDMDL
MODEL 3
REMARK VINA RESULT:      -7.1      2.007      4.991
REMARK  Name = 
REMARK  5 active torsions:
REMARK  status: ('A' for Active; 'I' for Inactive)
REMARK    1  A    between atoms: C_1  and  C_2
REMARK    2  A    between atoms: C_6  and  N_7
REMARK    3  A    between atoms: C_8  and  S_9
REMARK    4  A    between atoms: C_12  and  C_13
REMARK    5  A    between atoms: C_19  and  C_20
REMARK                            x       y       z     vdW  Elec       q    Type
REMARK                         _______ _______ _______ _____ _____    ______ ____
ROOT
ATOM      1  N   UNL     1       3.829   4.109  19.480  0.00  0.00    +0.000 N 
ATOM      2  C   UNL     1       3.625   2.940  20.199  0.00  0.00    +0.000 A 
ATOM      3  N   UNL     1       2.440   2.943  20.760  0.00  0.00    +0.000 NA
ATOM      4  N   UNL     1       1.861   4.147  20.509  0.00  0.00    +0.000 NA
ATOM      5  C   UNL     1       2.684   4.873  19.771  0.00  0.00    +0.000 A 
ENDROOT
BRANCH   1  11
ATOM      6  C   UNL     1       6.506   4.506  15.177  0.00  0.00    +0.000 C 
ATOM      7  C   UNL     1       6.239   4.795  16.634  0.00  0.00    +0.000 A 
ATOM      8  C   UNL     1       7.156   5.604  17.319  0.00  0.00    +0.000 A 
ATOM      9  C   UNL     1       7.017   5.837  18.679  0.00  0.00    +0.000 A 
ATOM     10  C   UNL     1       5.962   5.254  19.373  0.00  0.00    +0.000 A 
ATOM     11  C   UNL     1       4.970   4.513  18.704  0.00  0.00    +0.000 A 
ATOM     12  C   UNL     1       5.095   4.280  17.312  0.00  0.00    +0.000 A 
ATOM     13  C   UNL     1       4.057   3.574  16.465  0.00  0.00    +0.000 C 
ENDBRANCH   1  11
BRANCH   5  14
ATOM     14  C   UNL     1       2.379   6.264  19.392  0.00  0.00    +0.000 A 
ATOM     15  C   UNL     1       1.843   7.125  20.358  0.00  0.00    +0.000 A 
ATOM     16  C   UNL     1       1.637   8.454  20.035  0.00  0.00    +0.000 A 
ATOM     17  N   UNL     1       1.946   8.987  18.834  0.00  0.00    +0.000 NA
ATOM     18  C   UNL     1       2.424   8.138  17.900  0.00  0.00    +0.000 A 
ATOM     19  C   UNL     1       2.622   6.783  18.120  0.00  0.00    +0.000 A 
ENDBRANCH   5  14
BRANCH   2  20
ATOM     20  S   UNL     1       4.797   1.706  20.553  0.00  0.00    +0.000 S 
ATOM     21  H   UNL     1       5.513   1.726  19.425  0.00  0.00    +0.000 HD
ENDBRANCH   2  20
TORSDOF 3
ENDMDL
MODEL 4
REMARK VINA RESULT:      -7.0      0.171      1.059
REMARK  Name = 
REMARK  5 active torsions:
REMARK  status: ('A' for Active; 'I' for Inactive)
REMARK    1  A    between atoms: C_1  and  C_2
REMARK    2  A    between atoms: C_6  and  N_7
REMARK    3  A    between atoms: C_8  and  S_9
REMARK    4  A    between atoms: C_12  and  C_13
REMARK    5  A    between atoms: C_19  and  C_20
REMARK                            x       y       z     vdW  Elec       q    Type
REMARK                         _______ _______ _______ _____ _____    ______ ____
ROOT
ATOM      1  N   UNL     1       2.963   4.077  18.363  0.00  0.00    +0.000 N 
ATOM      2  C   UNL     1       2.252   2.900  18.552  0.00  0.00    +0.000 A 
ATOM      3  N   UNL     1       2.971   1.863  18.196  0.00  0.00    +0.000 NA
ATOM      4  N   UNL     1       4.140   2.322  17.676  0.00  0.00    +0.000 NA
ATOM      5  C   UNL     1       4.147   3.644  17.738  0.00  0.00    +0.000 A 
ENDROOT
BRANCH   1  11
ATOM      6  C   UNL     1       1.447   7.864  21.396  0.00  0.00    +0.000 C 
ATOM      7  C   UNL     1       1.924   7.291  20.083  0.00  0.00    +0.000 A 
ATOM      8  C   UNL     1       2.073   8.172  19.003  0.00  0.00    +0.000 A 
ATOM      9  C   UNL     1       2.424   7.699  17.747  0.00  0.00    +0.000 A 
ATOM     10  C   UNL     1       2.618   6.335  17.555  0.00  0.00    +0.000 A 
ATOM     11  C   UNL     1       2.569   5.432  18.634  0.00  0.00    +0.000 A 
ATOM     12  C   UNL     1       2.224   5.907  19.924  0.00  0.00    +0.000 A 
ATOM     13  C   UNL     1       2.219   5.056  21.177  0.00  0.00    +0.000 C 
ENDBRANCH   1  11
BRANCH   5  14
ATOM     14  C   UNL     1       5.248   4.449  17.182  0.00  0.00    +0.000 A 
ATOM     15  C   UNL     1       6.132   5.085  18.063  0.00  0.00    +0.000 A 
ATOM     16  C   UNL     1       7.219   5.768  17.550  0.00  0.00    +0.000 A 
ATOM     17  N   UNL     1       7.499   5.844  16.232  0.00  0.00    +0.000 NA
ATOM     18  C   UNL     1       6.618   5.261  15.392  0.00  0.00    +0.000 A 
ATOM     19  C   UNL     1       5.478   4.592  15.814  0.00  0.00    +0.000 A 
ENDBRANCH   5  14
BRANCH   2  20
ATOM     20  S   UNL     1       0.571   2.743  18.968  0.00  0.00    +0.000 S 
ATOM     21  H   UNL     1       0.560   1.497  19.451  0.00  0.00    +0.000 HD
ENDBRANCH   2  20
TORSDOF 3
ENDMDL
MODEL 5
REMARK VINA RESULT:      -6.9      2.380      5.137
REMARK  Name = 
REMARK  5 active torsions:
REMARK  status: ('A' for Active; 'I' for Inactive)
REMARK    1  A    between atoms: C_1  and  C_2
REMARK    2  A    between atoms: C_6  and  N_7
REMARK    3  A    between atoms: C_8  and  S_9
REMARK    4  A    between atoms: C_12  and  C_13
REMARK    5  A    between atoms: C_19  and  C_20
REMARK                            x       y       z     vdW  Elec       q    Type
REMARK                         _______ _______ _______ _____ _____    ______ ____
ROOT
ATOM      1  N   UNL     1       4.312   5.392  17.436  0.00  0.00    +0.000 N 
ATOM      2  C   UNL     1       5.201   5.271  16.377  0.00  0.00    +0.000 A 
ATOM      3  N   UNL     1       5.448   6.444  15.845  0.00  0.00    +0.000 NA
ATOM      4  N   UNL     1       4.664   7.362  16.471  0.00  0.00    +0.000 NA
ATOM      5  C   UNL     1       3.954   6.752  17.406  0.00  0.00    +0.000 A 
ENDROOT
BRANCH   1  11
ATOM      6  C   UNL     1       0.657   2.295  19.135  0.00  0.00    +0.000 C 
ATOM      7  C   UNL     1       2.074   2.812  19.082  0.00  0.00    +0.000 A 
ATOM      8  C   UNL     1       3.023   2.204  19.915  0.00  0.00    +0.000 A 
ATOM      9  C   UNL     1       4.322   2.687  19.980  0.00  0.00    +0.000 A 
ATOM     10  C   UNL     1       4.683   3.794  19.219  0.00  0.00    +0.000 A 
ATOM     11  C   UNL     1       3.786   4.374  18.303  0.00  0.00    +0.000 A 
ATOM     12  C   UNL     1       2.460   3.879  18.219  0.00  0.00    +0.000 A 
ATOM     13  C   UNL     1       1.429   4.359  17.219  0.00  0.00    +0.000 C 
ENDBRANCH   1  11
BRANCH   5  14
ATOM     14  C   UNL     1       2.948   7.462  18.214  0.00  0.00    +0.000 A 
ATOM     15  C   UNL     1       2.703   7.029  19.523  0.00  0.00    +0.000 A 
ATOM     16  C   UNL     1       1.826   7.745  20.317  0.00  0.00    +0.000 A 
ATOM     17  N   UNL     1       1.196   8.867  19.909  0.00  0.00    +0.000 NA
ATOM     18  C   UNL     1       1.409   9.251  18.633  0.00  0.00    +0.000 A 
ATOM     19  C   UNL     1       2.238   8.571  17.752  0.00  0.00    +0.000 A 
ENDBRANCH   5  14
BRANCH   2  20
ATOM     20  S   UNL     1       5.769   3.801  15.644  0.00  0.00    +0.000 S 
ATOM     21  H   UNL     1       4.635   3.094  15.617  0.00  0.00    +0.000 HD
ENDBRANCH   2  20
TORSDOF 3
ENDMDL
MODEL 6
REMARK VINA RESULT:      -6.9      1.725      4.865
REMARK  Name = 
REMARK  5 active torsions:
REMARK  status: ('A' for Active; 'I' for Inactive)
REMARK    1  A    between atoms: C_1  and  C_2
REMARK    2  A    between atoms: C_6  and  N_7
REMARK    3  A    between atoms: C_8  and  S_9
REMARK    4  A    between atoms: C_12  and  C_13
REMARK    5  A    between atoms: C_19  and  C_20
REMARK                            x       y       z     vdW  Elec       q    Type
REMARK                         _______ _______ _______ _____ _____    ______ ____
ROOT
ATOM      1  N   UNL     1       3.484   3.952  18.490  0.00  0.00    +0.000 N 
ATOM      2  C   UNL     1       3.016   2.648  18.584  0.00  0.00    +0.000 A 
ATOM      3  N   UNL     1       1.723   2.635  18.798  0.00  0.00    +0.000 NA
ATOM      4  N   UNL     1       1.309   3.922  18.945  0.00  0.00    +0.000 NA
ATOM      5  C   UNL     1       2.349   4.726  18.795  0.00  0.00    +0.000 A 
ENDROOT
BRANCH   1  11
ATOM      6  C   UNL     1       7.448   5.086  15.518  0.00  0.00    +0.000 C 
ATOM      7  C   UNL     1       6.709   5.060  16.834  0.00  0.00    +0.000 A 
ATOM      8  C   UNL     1       7.346   5.615  17.952  0.00  0.00    +0.000 A 
ATOM      9  C   UNL     1       6.760   5.547  19.207  0.00  0.00    +0.000 A 
ATOM     10  C   UNL     1       5.532   4.911  19.360  0.00  0.00    +0.000 A 
ATOM     11  C   UNL     1       4.819   4.425  18.248  0.00  0.00    +0.000 A 
ATOM     12  C   UNL     1       5.403   4.501  16.959  0.00  0.00    +0.000 A 
ATOM     13  C   UNL     1       4.707   4.092  15.678  0.00  0.00    +0.000 C 
ENDBRANCH   1  11
BRANCH   5  14
ATOM     14  C   UNL     1       2.244   6.185  18.972  0.00  0.00    +0.000 A 
ATOM     15  C   UNL     1       2.436   7.016  17.861  0.00  0.00    +0.000 A 
ATOM     16  C   UNL     1       2.251   8.379  18.001  0.00  0.00    +0.000 A 
ATOM     17  N   UNL     1       1.870   8.967  19.155  0.00  0.00    +0.000 NA
ATOM     18  C   UNL     1       1.727   8.159  20.227  0.00  0.00    +0.000 A 
ATOM     19  C   UNL     1       1.934   6.788  20.191  0.00  0.00    +0.000 A 
ENDBRANCH   5  14
BRANCH   2  20
ATOM     20  S   UNL     1       3.966   1.194  18.655  0.00  0.00    +0.000 S 
ATOM     21  H   UNL     1       3.312   0.529  19.612  0.00  0.00    +0.000 HD
ENDBRANCH   2  20
TORSDOF 3
ENDMDL
MODEL 7
REMARK VINA RESULT:      -6.9      2.368      5.059
REMARK  Name = 
REMARK  5 active torsions:
REMARK  status: ('A' for Active; 'I' for Inactive)
REMARK    1  A    between atoms: C_1  and  C_2
REMARK    2  A    between atoms: C_6  and  N_7
REMARK    3  A    between atoms: C_8  and  S_9
REMARK    4  A    between atoms: C_12  and  C_13
REMARK    5  A    between atoms: C_19  and  C_20
REMARK                            x       y       z     vdW  Elec       q    Type
REMARK                         _______ _______ _______ _____ _____    ______ ____
ROOT
ATOM      1  N   UNL     1       4.336   5.370  17.414  0.00  0.00    +0.000 N 
ATOM      2  C   UNL     1       5.174   5.230  16.317  0.00  0.00    +0.000 A 
ATOM      3  N   UNL     1       5.432   6.398  15.781  0.00  0.00    +0.000 NA
ATOM      4  N   UNL     1       4.704   7.335  16.445  0.00  0.00    +0.000 NA
ATOM      5  C   UNL     1       4.017   6.740  17.407  0.00  0.00    +0.000 A 
ENDROOT
BRANCH   1  11
ATOM      6  C   UNL     1       0.678   2.341  19.226  0.00  0.00    +0.000 C 
ATOM      7  C   UNL     1       2.102   2.833  19.130  0.00  0.00    +0.000 A 
ATOM      8  C   UNL     1       3.064   2.207  19.934  0.00  0.00    +0.000 A 
ATOM      9  C   UNL     1       4.373   2.666  19.959  0.00  0.00    +0.000 A 
ATOM     10  C   UNL     1       4.732   3.766  19.187  0.00  0.00    +0.000 A 
ATOM     11  C   UNL     1       3.817   4.362  18.297  0.00  0.00    +0.000 A 
ATOM     12  C   UNL     1       2.481   3.892  18.255  0.00  0.00    +0.000 A 
ATOM     13  C   UNL     1       1.429   4.390  17.286  0.00  0.00    +0.000 C 
ENDBRANCH   1  11
BRANCH   5  14
ATOM     14  C   UNL     1       3.068   7.474  18.261  0.00  0.00    +0.000 A 
ATOM     15  C   UNL     1       2.421   8.601  17.739  0.00  0.00    +0.000 A 
ATOM     16  C   UNL     1       1.463   9.242  18.503  0.00  0.00    +0.000 A 
ATOM     17  N   UNL     1       1.091   8.830  19.734  0.00  0.00    +0.000 NA
ATOM     18  C   UNL     1       1.750   7.767  20.241  0.00  0.00    +0.000 A 
ATOM     19  C   UNL     1       2.755   7.089  19.565  0.00  0.00    +0.000 A 
ENDBRANCH   5  14
BRANCH   2  20
ATOM     20  S   UNL     1       5.666   3.748  15.552  0.00  0.00    +0.000 S 
ATOM     21  H   UNL     1       4.976   2.864  16.279  0.00  0.00    +0.000 HD
ENDBRANCH   2  20
TORSDOF 3
ENDMDL
MODEL 8
REMARK VINA RESULT:      -6.9      2.431      5.139
REMARK  Name = 
REMARK  5 active torsions:
REMARK  status: ('A' for Active; 'I' for Inactive)
REMARK    1  A    between atoms: C_1  and  C_2
REMARK    2  A    between atoms: C_6  and  N_7
REMARK    3  A    between atoms: C_8  and  S_9
REMARK    4  A    between atoms: C_12  and  C_13
REMARK    5  A    between atoms: C_19  and  C_20
REMARK                            x       y       z     vdW  Elec       q    Type
REMARK                         _______ _______ _______ _____ _____    ______ ____
ROOT
ATOM      1  N   UNL     1       4.534   5.281  16.810  0.00  0.00    +0.000 N 
ATOM      2  C   UNL     1       5.391   5.308  15.719  0.00  0.00    +0.000 A 
ATOM      3  N   UNL     1       5.629   6.544  15.350  0.00  0.00    +0.000 NA
ATOM      4  N   UNL     1       4.870   7.366  16.121  0.00  0.00    +0.000 NA
ATOM      5  C   UNL     1       4.183   6.632  16.982  0.00  0.00    +0.000 A 
ENDROOT
BRANCH   1  11
ATOM      6  C   UNL     1       4.602   1.906  20.610  0.00  0.00    +0.000 C 
ATOM      7  C   UNL     1       3.985   2.571  19.404  0.00  0.00    +0.000 A 
ATOM      8  C   UNL     1       2.742   2.098  18.962  0.00  0.00    +0.000 A 
ATOM      9  C   UNL     1       2.160   2.606  17.810  0.00  0.00    +0.000 A 
ATOM     10  C   UNL     1       2.822   3.586  17.079  0.00  0.00    +0.000 A 
ATOM     11  C   UNL     1       4.026   4.152  17.540  0.00  0.00    +0.000 A 
ATOM     12  C   UNL     1       4.623   3.649  18.723  0.00  0.00    +0.000 A 
ATOM     13  C   UNL     1       5.867   4.225  19.367  0.00  0.00    +0.000 C 
ENDBRANCH   1  11
BRANCH   5  14
ATOM     14  C   UNL     1       3.204   7.224  17.910  0.00  0.00    +0.000 A 
ATOM     15  C   UNL     1       2.973   6.594  19.139  0.00  0.00    +0.000 A 
ATOM     16  C   UNL     1       2.123   7.191  20.052  0.00  0.00    +0.000 A 
ATOM     17  N   UNL     1       1.508   8.374  19.838  0.00  0.00    +0.000 NA
ATOM     18  C   UNL     1       1.708   8.950  18.634  0.00  0.00    +0.000 A 
ATOM     19  C   UNL     1       2.509   8.403  17.641  0.00  0.00    +0.000 A 
ENDBRANCH   5  14
BRANCH   2  20
ATOM     20  S   UNL     1       5.929   3.955  14.771  0.00  0.00    +0.000 S 
ATOM     21  H   UNL     1       4.979   3.929  13.831  0.00  0.00    +0.000 HD
ENDBRANCH   2  20
TORSDOF 3
ENDMDL
MODEL 9
REMARK VINA RESULT:      -6.8      2.428      5.083
REMARK  Name = 
REMARK  5 active torsions:
REMARK  status: ('A' for Active; 'I' for Inactive)
REMARK    1  A    between atoms: C_1  and  C_2
REMARK    2  A    between atoms: C_6  and  N_7
REMARK    3  A    between atoms: C_8  and  S_9
REMARK    4  A    between atoms: C_12  and  C_13
REMARK    5  A    between atoms: C_19  and  C_20
REMARK                            x       y       z     vdW  Elec       q    Type
REMARK                         _______ _______ _______ _____ _____    ______ ____
ROOT
ATOM      1  N   UNL     1       4.571   5.242  16.781  0.00  0.00    +0.000 N 
ATOM      2  C   UNL     1       5.386   5.253  15.657  0.00  0.00    +0.000 A 
ATOM      3  N   UNL     1       5.650   6.483  15.289  0.00  0.00    +0.000 NA
ATOM      4  N   UNL     1       4.948   7.322  16.097  0.00  0.00    +0.000 NA
ATOM      5  C   UNL     1       4.272   6.603  16.977  0.00  0.00    +0.000 A 
ENDROOT
BRANCH   1  11
ATOM      6  C   UNL     1       4.614   1.902  20.612  0.00  0.00    +0.000 C 
ATOM      7  C   UNL     1       4.003   2.560  19.399  0.00  0.00    +0.000 A 
ATOM      8  C   UNL     1       2.757   2.091  18.960  0.00  0.00    +0.000 A 
ATOM      9  C   UNL     1       2.180   2.592  17.803  0.00  0.00    +0.000 A 
ATOM     10  C   UNL     1       2.849   3.561  17.063  0.00  0.00    +0.000 A 
ATOM     11  C   UNL     1       4.056   4.123  17.521  0.00  0.00    +0.000 A 
ATOM     12  C   UNL     1       4.648   3.628  18.709  0.00  0.00    +0.000 A 
ATOM     13  C   UNL     1       5.895   4.202  19.349  0.00  0.00    +0.000 C 
ENDBRANCH   1  11
BRANCH   5  14
ATOM     14  C   UNL     1       3.350   7.217  17.948  0.00  0.00    +0.000 A 
ATOM     15  C   UNL     1       2.685   8.398  17.596  0.00  0.00    +0.000 A 
ATOM     16  C   UNL     1       1.752   8.931  18.466  0.00  0.00    +0.000 A 
ATOM     17  N   UNL     1       1.419   8.362  19.644  0.00  0.00    +0.000 NA
ATOM     18  C   UNL     1       2.095   7.246  19.990  0.00  0.00    +0.000 A 
ATOM     19  C   UNL     1       3.078   6.666  19.201  0.00  0.00    +0.000 A 
ENDBRANCH   5  14
BRANCH   2  20
ATOM     20  S   UNL     1       5.842   3.891  14.677  0.00  0.00    +0.000 S 
ATOM     21  H   UNL     1       5.694   2.900  15.562  0.00  0.00    +0.000 HD
ENDBRANCH   2  20
TORSDOF 3
ENDMDL
