MODEL 1
REMARK VINA RESULT:      -9.4      0.000      0.000
REMARK  Name = 
REMARK  7 active torsions:
REMARK  status: ('A' for Active; 'I' for Inactive)
REMARK    1  A    between atoms: C_1  and  C_2
REMARK    2  A    between atoms: C_2  and  C_3
REMARK    3  A    between atoms: C_2  and  O_4
REMARK    4  A    between atoms: C_2  and  C_5
REMARK    5  A    between atoms: N_12  and  C_13
REMARK    6  A    between atoms: C_16  and  C_17
REMARK    7  A    between atoms: C_17  and  C_18
REMARK                            x       y       z     vdW  Elec       q    Type
REMARK                         _______ _______ _______ _____ _____    ______ ____
ROOT
ATOM      1  C   UNL     1      -1.478  12.264  21.730  0.00  0.00    +0.000 A 
ATOM      2  C   UNL     1      -1.710  11.895  20.409  0.00  0.00    +0.000 A 
ATOM      3  C   UNL     1      -0.865  10.984  19.789  0.00  0.00    +0.000 A 
ATOM      4  C   UNL     1       0.207  10.433  20.484  0.00  0.00    +0.000 A 
ATOM      5  N   UNL     1       1.004   9.513  19.851  0.00  0.00    +0.000 N 
ATOM      6  C   UNL     1       1.750   8.534  20.628  0.00  0.00    +0.000 C 
ATOM      7  C   UNL     1       1.741   7.217  19.826  0.00  0.00    +0.000 C 
ATOM      8  N   UNL     1       2.151   7.379  18.412  0.00  0.00    +0.000 N 
ATOM      9  C   UNL     1       1.652   8.564  17.689  0.00  0.00    +0.000 C 
ATOM     10  C   UNL     1       1.632   9.834  18.566  0.00  0.00    +0.000 C 
ATOM     11  N   UNL     1       0.414  10.728  21.781  0.00  0.00    +0.000 NA
ATOM     12  C   UNL     1      -0.413  11.632  22.365  0.00  0.00    +0.000 A 
ENDROOT
BRANCH   8  13
ATOM     13  C   UNL     1       3.193   6.637  17.877  0.00  0.00    +0.000 A 
ATOM     14  N   UNL     1       4.325   7.283  17.522  0.00  0.00    +0.000 NA
ATOM     15  N   UNL     1       5.415   6.606  17.047  0.00  0.00    +0.000 NA
ATOM     16  C   UNL     1       5.418   5.255  17.003  0.00  0.00    +0.000 A 
ATOM     17  C   UNL     1       4.291   4.512  17.400  0.00  0.00    +0.000 A 
ATOM     18  C   UNL     1       4.249   3.093  17.456  0.00  0.00    +0.000 A 
ATOM     19  C   UNL     1       3.066   2.404  17.722  0.00  0.00    +0.000 A 
ATOM     20  C   UNL     1       1.880   3.105  17.873  0.00  0.00    +0.000 A 
ATOM     21  C   UNL     1       1.916   4.495  17.855  0.00  0.00    +0.000 A 
ATOM     22  C   UNL     1       3.122   5.231  17.730  0.00  0.00    +0.000 A 
BRANCH  16  23
ATOM     23  C   UNL     1       6.619   4.638  16.324  0.00  0.00    +0.000 C 
BRANCH  23  24
ATOM     24  C   UNL     1       6.631   4.559  14.813  0.00  0.00    +0.000 A 
ATOM     25  C   UNL     1       7.624   5.260  14.104  0.00  0.00    +0.000 A 
ATOM     26  C   UNL     1       7.783   5.085  12.729  0.00  0.00    +0.000 A 
ATOM     27  C   UNL     1       6.953   4.205  12.039  0.00  0.00    +0.000 A 
ATOM     28  C   UNL     1       5.954   3.515  12.723  0.00  0.00    +0.000 A 
ATOM     29  C   UNL     1       5.795   3.688  14.100  0.00  0.00    +0.000 A 
ENDBRANCH  23  24
ENDBRANCH  16  23
ENDBRANCH   8  13
BRANCH   1  31
ATOM     30  C   UNL     1      -3.681  12.710  22.842  0.00  0.00    +0.000 C 
ATOM     31  C   UNL     1      -2.332  13.307  22.426  0.00  0.00    +0.000 C 
ATOM     32  C   UNL     1      -2.520  14.551  21.552  0.00  0.00    +0.000 C 
BRANCH  31  33
ATOM     33  O   UNL     1      -1.677  13.737  23.628  0.00  0.00    +0.000 OA
ATOM     34  H   UNL     1      -2.074  13.256  24.375  0.00  0.00    +0.000 HD
ENDBRANCH  31  33
ENDBRANCH   1  31
TORSDOF 5
ENDMDL
MODEL 2
REMARK VINA RESULT:      -8.9      0.584      1.187
REMARK  Name = 
REMARK  7 active torsions:
REMARK  status: ('A' for Active; 'I' for Inactive)
REMARK    1  A    between atoms: C_1  and  C_2
REMARK    2  A    between atoms: C_2  and  C_3
REMARK    3  A    between atoms: C_2  and  O_4
REMARK    4  A    between atoms: C_2  and  C_5
REMARK    5  A    between atoms: N_12  and  C_13
REMARK    6  A    between atoms: C_16  and  C_17
REMARK    7  A    between atoms: C_17  and  C_18
REMARK                            x       y       z     vdW  Elec       q    Type
REMARK                         _______ _______ _______ _____ _____    ______ ____
ROOT
ATOM      1  C   UNL     1      -1.518  12.255  21.596  0.00  0.00    +0.000 A 
ATOM      2  C   UNL     1      -1.684  11.900  20.261  0.00  0.00    +0.000 A 
ATOM      3  C   UNL     1      -0.821  10.982  19.679  0.00  0.00    +0.000 A 
ATOM      4  C   UNL     1       0.205  10.410  20.425  0.00  0.00    +0.000 A 
ATOM      5  N   UNL     1       1.021   9.483  19.828  0.00  0.00    +0.000 N 
ATOM      6  C   UNL     1       1.711   8.487  20.635  0.00  0.00    +0.000 C 
ATOM      7  C   UNL     1       1.726   7.176  19.822  0.00  0.00    +0.000 C 
ATOM      8  N   UNL     1       2.214   7.344  18.434  0.00  0.00    +0.000 N 
ATOM      9  C   UNL     1       1.771   8.542  17.696  0.00  0.00    +0.000 C 
ATOM     10  C   UNL     1       1.722   9.805  18.581  0.00  0.00    +0.000 C 
ATOM     11  N   UNL     1       0.347  10.691  21.734  0.00  0.00    +0.000 NA
ATOM     12  C   UNL     1      -0.497  11.603  22.281  0.00  0.00    +0.000 A 
ENDROOT
BRANCH   8  13
ATOM     13  C   UNL     1       3.272   6.591  17.949  0.00  0.00    +0.000 A 
ATOM     14  N   UNL     1       4.428   7.225  17.654  0.00  0.00    +0.000 NA
ATOM     15  N   UNL     1       5.533   6.536  17.232  0.00  0.00    +0.000 NA
ATOM     16  C   UNL     1       5.521   5.185  17.182  0.00  0.00    +0.000 A 
ATOM     17  C   UNL     1       4.367   4.454  17.519  0.00  0.00    +0.000 A 
ATOM     18  C   UNL     1       4.305   3.036  17.566  0.00  0.00    +0.000 A 
ATOM     19  C   UNL     1       3.101   2.361  17.769  0.00  0.00    +0.000 A 
ATOM     20  C   UNL     1       1.918   3.076  17.863  0.00  0.00    +0.000 A 
ATOM     21  C   UNL     1       1.971   4.466  17.853  0.00  0.00    +0.000 A 
ATOM     22  C   UNL     1       3.191   5.186  17.792  0.00  0.00    +0.000 A 
BRANCH  16  23
ATOM     23  C   UNL     1       6.747   4.555  16.562  0.00  0.00    +0.000 C 
BRANCH  23  24
ATOM     24  C   UNL     1       6.796   4.403  15.057  0.00  0.00    +0.000 A 
ATOM     25  C   UNL     1       5.817   3.617  14.421  0.00  0.00    +0.000 A 
ATOM     26  C   UNL     1       5.715   3.584  13.030  0.00  0.00    +0.000 A 
ATOM     27  C   UNL     1       6.589   4.337  12.251  0.00  0.00    +0.000 A 
ATOM     28  C   UNL     1       7.574   5.109  12.863  0.00  0.00    +0.000 A 
ATOM     29  C   UNL     1       7.675   5.145  14.256  0.00  0.00    +0.000 A 
ENDBRANCH  23  24
ENDBRANCH  16  23
ENDBRANCH   8  13
BRANCH   1  31
ATOM     30  C   UNL     1      -1.534  14.342  22.986  0.00  0.00    +0.000 C 
ATOM     31  C   UNL     1      -2.393  13.305  22.254  0.00  0.00    +0.000 C 
ATOM     32  C   UNL     1      -3.420  12.669  23.195  0.00  0.00    +0.000 C 
BRANCH  31  33
ATOM     33  O   UNL     1      -3.132  14.012  21.246  0.00  0.00    +0.000 OA
ATOM     34  H   UNL     1      -2.679  14.856  21.079  0.00  0.00    +0.000 HD
ENDBRANCH  31  33
ENDBRANCH   1  31
TORSDOF 5
ENDMDL
MODEL 3
REMARK VINA RESULT:      -8.3      0.954      1.488
REMARK  Name = 
REMARK  7 active torsions:
REMARK  status: ('A' for Active; 'I' for Inactive)
REMARK    1  A    between atoms: C_1  and  C_2
REMARK    2  A    between atoms: C_2  and  C_3
REMARK    3  A    between atoms: C_2  and  O_4
REMARK    4  A    between atoms: C_2  and  C_5
REMARK    5  A    between atoms: N_12  and  C_13
REMARK    6  A    between atoms: C_16  and  C_17
REMARK    7  A    between atoms: C_17  and  C_18
REMARK                            x       y       z     vdW  Elec       q    Type
REMARK                         _______ _______ _______ _____ _____    ______ ____
ROOT
ATOM      1  C   UNL     1      -1.653  11.863  21.350  0.00  0.00    +0.000 A 
ATOM      2  C   UNL     1      -0.616  11.281  22.072  0.00  0.00    +0.000 A 
ATOM      3  C   UNL     1       0.226  10.367  21.454  0.00  0.00    +0.000 A 
ATOM      4  C   UNL     1       0.043  10.034  20.116  0.00  0.00    +0.000 A 
ATOM      5  N   UNL     1       0.912   9.150  19.528  0.00  0.00    +0.000 N 
ATOM      6  C   UNL     1       1.122   9.178  18.088  0.00  0.00    +0.000 C 
ATOM      7  C   UNL     1       2.613   8.870  17.842  0.00  0.00    +0.000 C 
ATOM      8  N   UNL     1       3.094   7.660  18.548  0.00  0.00    +0.000 N 
ATOM      9  C   UNL     1       2.623   7.445  19.929  0.00  0.00    +0.000 C 
ATOM     10  C   UNL     1       1.140   7.828  20.121  0.00  0.00    +0.000 C 
ATOM     11  N   UNL     1      -0.915  10.630  19.380  0.00  0.00    +0.000 NA
ATOM     12  C   UNL     1      -1.738  11.510  20.006  0.00  0.00    +0.000 A 
ENDROOT
BRANCH   8  13
ATOM     13  C   UNL     1       3.703   6.622  17.861  0.00  0.00    +0.000 A 
ATOM     14  N   UNL     1       4.907   6.850  17.291  0.00  0.00    +0.000 NA
ATOM     15  N   UNL     1       5.595   5.853  16.652  0.00  0.00    +0.000 NA
ATOM     16  C   UNL     1       5.122   4.587  16.649  0.00  0.00    +0.000 A 
ATOM     17  C   UNL     1       3.897   4.266  17.262  0.00  0.00    +0.000 A 
ATOM     18  C   UNL     1       3.378   2.948  17.367  0.00  0.00    +0.000 A 
ATOM     19  C   UNL     1       2.096   2.701  17.858  0.00  0.00    +0.000 A 
ATOM     20  C   UNL     1       1.272   3.763  18.195  0.00  0.00    +0.000 A 
ATOM     21  C   UNL     1       1.782   5.056  18.129  0.00  0.00    +0.000 A 
ATOM     22  C   UNL     1       3.126   5.333  17.770  0.00  0.00    +0.000 A 
BRANCH  16  23
ATOM     23  C   UNL     1       5.896   3.615  15.788  0.00  0.00    +0.000 C 
BRANCH  23  24
ATOM     24  C   UNL     1       6.252   4.030  14.376  0.00  0.00    +0.000 A 
ATOM     25  C   UNL     1       7.314   4.931  14.181  0.00  0.00    +0.000 A 
ATOM     26  C   UNL     1       7.791   5.211  12.900  0.00  0.00    +0.000 A 
ATOM     27  C   UNL     1       7.215   4.594  11.793  0.00  0.00    +0.000 A 
ATOM     28  C   UNL     1       6.152   3.710  11.967  0.00  0.00    +0.000 A 
ATOM     29  C   UNL     1       5.676   3.427  13.249  0.00  0.00    +0.000 A 
ENDBRANCH  23  24
ENDBRANCH  16  23
ENDBRANCH   8  13
BRANCH   1  31
ATOM     30  C   UNL     1      -2.946  12.373  23.437  0.00  0.00    +0.000 C 
ATOM     31  C   UNL     1      -2.639  12.814  22.001  0.00  0.00    +0.000 C 
ATOM     32  C   UNL     1      -3.921  12.945  21.173  0.00  0.00    +0.000 C 
BRANCH  31  33
ATOM     33  O   UNL     1      -2.058  14.124  22.082  0.00  0.00    +0.000 OA
ATOM     34  H   UNL     1      -1.436  14.131  22.828  0.00  0.00    +0.000 HD
ENDBRANCH  31  33
ENDBRANCH   1  31
TORSDOF 5
ENDMDL
MODEL 4
REMARK VINA RESULT:      -8.2      0.916      1.078
REMARK  Name = 
REMARK  7 active torsions:
REMARK  status: ('A' for Active; 'I' for Inactive)
REMARK    1  A    between atoms: C_1  and  C_2
REMARK    2  A    between atoms: C_2  and  C_3
REMARK    3  A    between atoms: C_2  and  O_4
REMARK    4  A    between atoms: C_2  and  C_5
REMARK    5  A    between atoms: N_12  and  C_13
REMARK    6  A    between atoms: C_16  and  C_17
REMARK    7  A    between atoms: C_17  and  C_18
REMARK                            x       y       z     vdW  Elec       q    Type
REMARK                         _______ _______ _______ _____ _____    ______ ____
ROOT
ATOM      1  C   UNL     1      -1.643  12.581  21.701  0.00  0.00    +0.000 A 
ATOM      2  C   UNL     1      -1.870  12.127  20.405  0.00  0.00    +0.000 A 
ATOM      3  C   UNL     1      -1.000  11.208  19.834  0.00  0.00    +0.000 A 
ATOM      4  C   UNL     1       0.094  10.734  20.552  0.00  0.00    +0.000 A 
ATOM      5  N   UNL     1       0.917   9.804  19.969  0.00  0.00    +0.000 N 
ATOM      6  C   UNL     1       1.699   8.898  20.796  0.00  0.00    +0.000 C 
ATOM      7  C   UNL     1       1.728   7.536  20.074  0.00  0.00    +0.000 C 
ATOM      8  N   UNL     1       2.125   7.627  18.650  0.00  0.00    +0.000 N 
ATOM      9  C   UNL     1       1.583   8.750  17.862  0.00  0.00    +0.000 C 
ATOM     10  C   UNL     1       1.527  10.069  18.662  0.00  0.00    +0.000 C 
ATOM     11  N   UNL     1       0.299  11.112  21.828  0.00  0.00    +0.000 NA
ATOM     12  C   UNL     1      -0.554  12.023  22.364  0.00  0.00    +0.000 A 
ENDROOT
BRANCH   8  13
ATOM     13  C   UNL     1       3.187   6.888  18.152  0.00  0.00    +0.000 A 
ATOM     14  N   UNL     1       4.067   7.503  17.331  0.00  0.00    +0.000 NA
ATOM     15  N   UNL     1       5.173   6.853  16.854  0.00  0.00    +0.000 NA
ATOM     16  C   UNL     1       5.461   5.598  17.263  0.00  0.00    +0.000 A 
ATOM     17  C   UNL     1       4.615   4.911  18.153  0.00  0.00    +0.000 A 
ATOM     18  C   UNL     1       4.893   3.624  18.688  0.00  0.00    +0.000 A 
ATOM     19  C   UNL     1       3.956   2.930  19.454  0.00  0.00    +0.000 A 
ATOM     20  C   UNL     1       2.695   3.468  19.653  0.00  0.00    +0.000 A 
ATOM     21  C   UNL     1       2.424   4.741  19.163  0.00  0.00    +0.000 A 
ATOM     22  C   UNL     1       3.398   5.533  18.504  0.00  0.00    +0.000 A 
BRANCH  16  23
ATOM     23  C   UNL     1       6.623   4.941  16.553  0.00  0.00    +0.000 C 
BRANCH  23  24
ATOM     24  C   UNL     1       6.519   4.715  15.061  0.00  0.00    +0.000 A 
ATOM     25  C   UNL     1       7.521   5.239  14.223  0.00  0.00    +0.000 A 
ATOM     26  C   UNL     1       7.565   4.916  12.866  0.00  0.00    +0.000 A 
ATOM     27  C   UNL     1       6.608   4.062  12.324  0.00  0.00    +0.000 A 
ATOM     28  C   UNL     1       5.600   3.546  13.136  0.00  0.00    +0.000 A 
ATOM     29  C   UNL     1       5.557   3.867  14.495  0.00  0.00    +0.000 A 
ENDBRANCH  23  24
ENDBRANCH  16  23
ENDBRANCH   8  13
BRANCH   1  31
ATOM     30  C   UNL     1      -1.716  14.504  23.308  0.00  0.00    +0.000 C 
ATOM     31  C   UNL     1      -2.526  13.635  22.340  0.00  0.00    +0.000 C 
ATOM     32  C   UNL     1      -3.735  13.005  23.037  0.00  0.00    +0.000 C 
BRANCH  31  33
ATOM     33  O   UNL     1      -3.039  14.510  21.323  0.00  0.00    +0.000 OA
ATOM     34  H   UNL     1      -3.650  15.136  21.746  0.00  0.00    +0.000 HD
ENDBRANCH  31  33
ENDBRANCH   1  31
TORSDOF 5
ENDMDL
MODEL 5
REMARK VINA RESULT:      -7.8      3.132     11.354
REMARK  Name = 
REMARK  7 active torsions:
REMARK  status: ('A' for Active; 'I' for Inactive)
REMARK    1  A    between atoms: C_1  and  C_2
REMARK    2  A    between atoms: C_2  and  C_3
REMARK    3  A    between atoms: C_2  and  O_4
REMARK    4  A    between atoms: C_2  and  C_5
REMARK    5  A    between atoms: N_12  and  C_13
REMARK    6  A    between atoms: C_16  and  C_17
REMARK    7  A    between atoms: C_17  and  C_18
REMARK                            x       y       z     vdW  Elec       q    Type
REMARK                         _______ _______ _______ _____ _____    ______ ____
ROOT
ATOM      1  C   UNL     1       4.687   5.585  17.674  0.00  0.00    +0.000 A 
ATOM      2  C   UNL     1       4.712   6.853  17.103  0.00  0.00    +0.000 A 
ATOM      3  C   UNL     1       3.770   7.799  17.483  0.00  0.00    +0.000 A 
ATOM      4  C   UNL     1       2.806   7.488  18.437  0.00  0.00    +0.000 A 
ATOM      5  N   UNL     1       1.909   8.457  18.812  0.00  0.00    +0.000 N 
ATOM      6  C   UNL     1       1.272   8.398  20.119  0.00  0.00    +0.000 C 
ATOM      7  C   UNL     1       1.141   9.848  20.625  0.00  0.00    +0.000 C 
ATOM      8  N   UNL     1       0.525  10.767  19.640  0.00  0.00    +0.000 N 
ATOM      9  C   UNL     1       0.929  10.623  18.228  0.00  0.00    +0.000 C 
ATOM     10  C   UNL     1       1.100   9.149  17.804  0.00  0.00    +0.000 C 
ATOM     11  N   UNL     1       2.800   6.289  19.048  0.00  0.00    +0.000 NA
ATOM     12  C   UNL     1       3.719   5.372  18.652  0.00  0.00    +0.000 A 
ENDROOT
BRANCH   8  13
ATOM     13  C   UNL     1      -0.596  11.516  19.960  0.00  0.00    +0.000 A 
ATOM     14  N   UNL     1      -0.476  12.481  20.898  0.00  0.00    +0.000 NA
ATOM     15  N   UNL     1      -1.524  13.301  21.219  0.00  0.00    +0.000 NA
ATOM     16  C   UNL     1      -2.690  13.222  20.539  0.00  0.00    +0.000 A 
ATOM     17  C   UNL     1      -2.873  12.272  19.517  0.00  0.00    +0.000 A 
ATOM     18  C   UNL     1      -4.038  12.182  18.708  0.00  0.00    +0.000 A 
ATOM     19  C   UNL     1      -4.226  11.135  17.806  0.00  0.00    +0.000 A 
ATOM     20  C   UNL     1      -3.292  10.115  17.732  0.00  0.00    +0.000 A 
ATOM     21  C   UNL     1      -2.132  10.209  18.493  0.00  0.00    +0.000 A 
ATOM     22  C   UNL     1      -1.842  11.329  19.314  0.00  0.00    +0.000 A 
BRANCH  16  23
ATOM     23  C   UNL     1      -3.811  14.076  21.084  0.00  0.00    +0.000 C 
BRANCH  23  24
ATOM     24  C   UNL     1      -4.544  13.599  22.320  0.00  0.00    +0.000 A 
ATOM     25  C   UNL     1      -5.938  13.424  22.257  0.00  0.00    +0.000 A 
ATOM     26  C   UNL     1      -6.635  12.827  23.308  0.00  0.00    +0.000 A 
ATOM     27  C   UNL     1      -5.949  12.393  24.439  0.00  0.00    +0.000 A 
ATOM     28  C   UNL     1      -4.570  12.572  24.524  0.00  0.00    +0.000 A 
ATOM     29  C   UNL     1      -3.871  13.168  23.471  0.00  0.00    +0.000 A 
ENDBRANCH  23  24
ENDBRANCH  16  23
ENDBRANCH   8  13
BRANCH   1  31
ATOM     30  C   UNL     1       7.036   4.725  17.859  0.00  0.00    +0.000 C 
ATOM     31  C   UNL     1       5.652   4.498  17.240  0.00  0.00    +0.000 C 
ATOM     32  C   UNL     1       5.735   4.399  15.714  0.00  0.00    +0.000 C 
BRANCH  31  33
ATOM     33  O   UNL     1       5.186   3.226  17.716  0.00  0.00    +0.000 OA
ATOM     34  H   UNL     1       5.826   2.897  18.370  0.00  0.00    +0.000 HD
ENDBRANCH  31  33
ENDBRANCH   1  31
TORSDOF 5
ENDMDL
MODEL 6
REMARK VINA RESULT:      -7.8      3.232     11.811
REMARK  Name = 
REMARK  7 active torsions:
REMARK  status: ('A' for Active; 'I' for Inactive)
REMARK    1  A    between atoms: C_1  and  C_2
REMARK    2  A    between atoms: C_2  and  C_3
REMARK    3  A    between atoms: C_2  and  O_4
REMARK    4  A    between atoms: C_2  and  C_5
REMARK    5  A    between atoms: N_12  and  C_13
REMARK    6  A    between atoms: C_16  and  C_17
REMARK    7  A    between atoms: C_17  and  C_18
REMARK                            x       y       z     vdW  Elec       q    Type
REMARK                         _______ _______ _______ _____ _____    ______ ____
ROOT
ATOM      1  C   UNL     1       3.705   5.130  18.408  0.00  0.00    +0.000 A 
ATOM      2  C   UNL     1       3.781   6.421  17.894  0.00  0.00    +0.000 A 
ATOM      3  C   UNL     1       3.054   7.444  18.487  0.00  0.00    +0.000 A 
ATOM      4  C   UNL     1       2.255   7.186  19.597  0.00  0.00    +0.000 A 
ATOM      5  N   UNL     1       1.573   8.226  20.178  0.00  0.00    +0.000 N 
ATOM      6  C   UNL     1       1.192   8.158  21.581  0.00  0.00    +0.000 C 
ATOM      7  C   UNL     1       1.340   9.579  22.160  0.00  0.00    +0.000 C 
ATOM      8  N   UNL     1       0.670  10.623  21.351  0.00  0.00    +0.000 N 
ATOM      9  C   UNL     1       0.780  10.523  19.883  0.00  0.00    +0.000 C 
ATOM     10  C   UNL     1       0.682   9.069  19.375  0.00  0.00    +0.000 C 
ATOM     11  N   UNL     1       2.214   5.959  20.149  0.00  0.00    +0.000 NA
ATOM     12  C   UNL     1       2.920   4.969  19.545  0.00  0.00    +0.000 A 
ENDROOT
BRANCH   8  13
ATOM     13  C   UNL     1      -0.268  11.475  21.913  0.00  0.00    +0.000 A 
ATOM     14  N   UNL     1      -1.372  10.933  22.473  0.00  0.00    +0.000 NA
ATOM     15  N   UNL     1      -2.308  11.708  23.103  0.00  0.00    +0.000 NA
ATOM     16  C   UNL     1      -2.108  13.036  23.255  0.00  0.00    +0.000 A 
ATOM     17  C   UNL     1      -0.959  13.663  22.738  0.00  0.00    +0.000 A 
ATOM     18  C   UNL     1      -0.644  15.036  22.928  0.00  0.00    +0.000 A 
ATOM     19  C   UNL     1       0.433  15.638  22.278  0.00  0.00    +0.000 A 
ATOM     20  C   UNL     1       1.184  14.909  21.370  0.00  0.00    +0.000 A 
ATOM     21  C   UNL     1       0.906  13.556  21.202  0.00  0.00    +0.000 A 
ATOM     22  C   UNL     1      -0.089  12.878  21.952  0.00  0.00    +0.000 A 
BRANCH  16  23
ATOM     23  C   UNL     1      -3.277  13.799  23.834  0.00  0.00    +0.000 C 
BRANCH  23  24
ATOM     24  C   UNL     1      -4.673  13.434  23.375  0.00  0.00    +0.000 A 
ATOM     25  C   UNL     1      -5.550  12.823  24.290  0.00  0.00    +0.000 A 
ATOM     26  C   UNL     1      -6.894  12.622  23.972  0.00  0.00    +0.000 A 
ATOM     27  C   UNL     1      -7.384  13.031  22.735  0.00  0.00    +0.000 A 
ATOM     28  C   UNL     1      -6.525  13.624  21.811  0.00  0.00    +0.000 A 
ATOM     29  C   UNL     1      -5.180  13.827  22.129  0.00  0.00    +0.000 A 
ENDBRANCH  23  24
ENDBRANCH  16  23
ENDBRANCH   8  13
BRANCH   1  31
ATOM     30  C   UNL     1       4.923   4.362  16.354  0.00  0.00    +0.000 C 
ATOM     31  C   UNL     1       4.428   3.969  17.751  0.00  0.00    +0.000 C 
ATOM     32  C   UNL     1       3.545   2.719  17.696  0.00  0.00    +0.000 C 
BRANCH  31  33
ATOM     33  O   UNL     1       5.588   3.628  18.524  0.00  0.00    +0.000 OA
ATOM     34  H   UNL     1       5.327   3.602  19.460  0.00  0.00    +0.000 HD
ENDBRANCH  31  33
ENDBRANCH   1  31
TORSDOF 5
ENDMDL
MODEL 7
REMARK VINA RESULT:      -7.7      3.158     11.634
REMARK  Name = 
REMARK  7 active torsions:
REMARK  status: ('A' for Active; 'I' for Inactive)
REMARK    1  A    between atoms: C_1  and  C_2
REMARK    2  A    between atoms: C_2  and  C_3
REMARK    3  A    between atoms: C_2  and  O_4
REMARK    4  A    between atoms: C_2  and  C_5
REMARK    5  A    between atoms: N_12  and  C_13
REMARK    6  A    between atoms: C_16  and  C_17
REMARK    7  A    between atoms: C_17  and  C_18
REMARK                            x       y       z     vdW  Elec       q    Type
REMARK                         _______ _______ _______ _____ _____    ______ ____
ROOT
ATOM      1  C   UNL     1       3.896   5.170  18.360  0.00  0.00    +0.000 A 
ATOM      2  C   UNL     1       3.935   6.448  17.811  0.00  0.00    +0.000 A 
ATOM      3  C   UNL     1       3.142   7.454  18.347  0.00  0.00    +0.000 A 
ATOM      4  C   UNL     1       2.314   7.192  19.435  0.00  0.00    +0.000 A 
ATOM      5  N   UNL     1       1.567   8.216  19.960  0.00  0.00    +0.000 N 
ATOM      6  C   UNL     1       1.137   8.171  21.349  0.00  0.00    +0.000 C 
ATOM      7  C   UNL     1       1.202   9.613  21.891  0.00  0.00    +0.000 C 
ATOM      8  N   UNL     1       0.518  10.603  21.028  0.00  0.00    +0.000 N 
ATOM      9  C   UNL     1       0.686  10.466  19.569  0.00  0.00    +0.000 C 
ATOM     10  C   UNL     1       0.670   8.996  19.101  0.00  0.00    +0.000 C 
ATOM     11  N   UNL     1       2.307   5.980  20.022  0.00  0.00    +0.000 NA
ATOM     12  C   UNL     1       3.077   5.006  19.473  0.00  0.00    +0.000 A 
ENDROOT
BRANCH   8  13
ATOM     13  C   UNL     1      -0.477  11.427  21.531  0.00  0.00    +0.000 A 
ATOM     14  N   UNL     1      -1.199  10.991  22.586  0.00  0.00    +0.000 NA
ATOM     15  N   UNL     1      -2.152  11.778  23.174  0.00  0.00    +0.000 NA
ATOM     16  C   UNL     1      -2.337  13.053  22.764  0.00  0.00    +0.000 A 
ATOM     17  C   UNL     1      -1.590  13.591  21.700  0.00  0.00    +0.000 A 
ATOM     18  C   UNL     1      -1.673  14.942  21.269  0.00  0.00    +0.000 A 
ATOM     19  C   UNL     1      -1.015  15.387  20.122  0.00  0.00    +0.000 A 
ATOM     20  C   UNL     1      -0.312  14.487  19.338  0.00  0.00    +0.000 A 
ATOM     21  C   UNL     1      -0.195  13.170  19.770  0.00  0.00    +0.000 A 
ATOM     22  C   UNL     1      -0.731  12.716  21.002  0.00  0.00    +0.000 A 
BRANCH  16  23
ATOM     23  C   UNL     1      -3.515  13.764  23.391  0.00  0.00    +0.000 C 
BRANCH  23  24
ATOM     24  C   UNL     1      -4.910  13.332  22.995  0.00  0.00    +0.000 A 
ATOM     25  C   UNL     1      -5.156  12.970  21.658  0.00  0.00    +0.000 A 
ATOM     26  C   UNL     1      -6.374  12.404  21.280  0.00  0.00    +0.000 A 
ATOM     27  C   UNL     1      -7.367  12.190  22.232  0.00  0.00    +0.000 A 
ATOM     28  C   UNL     1      -7.146  12.557  23.558  0.00  0.00    +0.000 A 
ATOM     29  C   UNL     1      -5.926  13.121  23.938  0.00  0.00    +0.000 A 
ENDBRANCH  23  24
ENDBRANCH  16  23
ENDBRANCH   8  13
BRANCH   1  31
ATOM     30  C   UNL     1       5.215   4.397  16.372  0.00  0.00    +0.000 C 
ATOM     31  C   UNL     1       4.692   4.024  17.764  0.00  0.00    +0.000 C 
ATOM     32  C   UNL     1       3.869   2.733  17.722  0.00  0.00    +0.000 C 
BRANCH  31  33
ATOM     33  O   UNL     1       5.840   3.762  18.584  0.00  0.00    +0.000 OA
ATOM     34  H   UNL     1       6.207   2.901  18.321  0.00  0.00    +0.000 HD
ENDBRANCH  31  33
ENDBRANCH   1  31
TORSDOF 5
ENDMDL
MODEL 8
REMARK VINA RESULT:      -7.7      1.196      1.528
REMARK  Name = 
REMARK  7 active torsions:
REMARK  status: ('A' for Active; 'I' for Inactive)
REMARK    1  A    between atoms: C_1  and  C_2
REMARK    2  A    between atoms: C_2  and  C_3
REMARK    3  A    between atoms: C_2  and  O_4
REMARK    4  A    between atoms: C_2  and  C_5
REMARK    5  A    between atoms: N_12  and  C_13
REMARK    6  A    between atoms: C_16  and  C_17
REMARK    7  A    between atoms: C_17  and  C_18
REMARK                            x       y       z     vdW  Elec       q    Type
REMARK                         _______ _______ _______ _____ _____    ______ ____
ROOT
ATOM      1  C   UNL     1      -2.317  12.725  20.535  0.00  0.00    +0.000 A 
ATOM      2  C   UNL     1      -2.541  11.917  19.425  0.00  0.00    +0.000 A 
ATOM      3  C   UNL     1      -1.582  10.990  19.041  0.00  0.00    +0.000 A 
ATOM      4  C   UNL     1      -0.402  10.858  19.766  0.00  0.00    +0.000 A 
ATOM      5  N   UNL     1       0.511   9.910  19.378  0.00  0.00    +0.000 N 
ATOM      6  C   UNL     1       1.448   9.357  20.346  0.00  0.00    +0.000 C 
ATOM      7  C   UNL     1       1.628   7.865  20.001  0.00  0.00    +0.000 C 
ATOM      8  N   UNL     1       1.941   7.619  18.574  0.00  0.00    +0.000 N 
ATOM      9  C   UNL     1       1.214   8.418  17.569  0.00  0.00    +0.000 C 
ATOM     10  C   UNL     1       1.017   9.886  18.002  0.00  0.00    +0.000 C 
ATOM     11  N   UNL     1      -0.190  11.585  20.880  0.00  0.00    +0.000 NA
ATOM     12  C   UNL     1      -1.132  12.498  21.229  0.00  0.00    +0.000 A 
ENDROOT
BRANCH   8  13
ATOM     13  C   UNL     1       3.069   6.906  18.200  0.00  0.00    +0.000 A 
ATOM     14  N   UNL     1       4.082   7.573  17.606  0.00  0.00    +0.000 NA
ATOM     15  N   UNL     1       5.251   6.945  17.267  0.00  0.00    +0.000 NA
ATOM     16  C   UNL     1       5.454   5.651  17.599  0.00  0.00    +0.000 A 
ATOM     17  C   UNL     1       4.461   4.904  18.260  0.00  0.00    +0.000 A 
ATOM     18  C   UNL     1       4.634   3.567  18.709  0.00  0.00    +0.000 A 
ATOM     19  C   UNL     1       3.573   2.827  19.232  0.00  0.00    +0.000 A 
ATOM     20  C   UNL     1       2.300   3.373  19.260  0.00  0.00    +0.000 A 
ATOM     21  C   UNL     1       2.127   4.692  18.854  0.00  0.00    +0.000 A 
ATOM     22  C   UNL     1       3.206   5.519  18.452  0.00  0.00    +0.000 A 
BRANCH  16  23
ATOM     23  C   UNL     1       6.718   5.037  17.042  0.00  0.00    +0.000 C 
BRANCH  23  24
ATOM     24  C   UNL     1       6.752   4.666  15.575  0.00  0.00    +0.000 A 
ATOM     25  C   UNL     1       5.694   3.906  15.042  0.00  0.00    +0.000 A 
ATOM     26  C   UNL     1       5.591   3.685  13.668  0.00  0.00    +0.000 A 
ATOM     27  C   UNL     1       6.543   4.219  12.804  0.00  0.00    +0.000 A 
ATOM     28  C   UNL     1       7.605   4.961  13.317  0.00  0.00    +0.000 A 
ATOM     29  C   UNL     1       7.708   5.186  14.692  0.00  0.00    +0.000 A 
ENDBRANCH  23  24
ENDBRANCH  16  23
ENDBRANCH   8  13
BRANCH   1  31
ATOM     30  C   UNL     1      -3.375  13.908  22.477  0.00  0.00    +0.000 C 
ATOM     31  C   UNL     1      -3.305  13.799  20.949  0.00  0.00    +0.000 C 
ATOM     32  C   UNL     1      -4.690  13.550  20.345  0.00  0.00    +0.000 C 
BRANCH  31  33
ATOM     33  O   UNL     1      -2.858  15.073  20.461  0.00  0.00    +0.000 OA
ATOM     34  H   UNL     1      -3.175  15.758  21.074  0.00  0.00    +0.000 HD
ENDBRANCH  31  33
ENDBRANCH   1  31
TORSDOF 5
ENDMDL
MODEL 9
REMARK VINA RESULT:      -7.7      1.617      2.419
REMARK  Name = 
REMARK  7 active torsions:
REMARK  status: ('A' for Active; 'I' for Inactive)
REMARK    1  A    between atoms: C_1  and  C_2
REMARK    2  A    between atoms: C_2  and  C_3
REMARK    3  A    between atoms: C_2  and  O_4
REMARK    4  A    between atoms: C_2  and  C_5
REMARK    5  A    between atoms: N_12  and  C_13
REMARK    6  A    between atoms: C_16  and  C_17
REMARK    7  A    between atoms: C_17  and  C_18
REMARK                            x       y       z     vdW  Elec       q    Type
REMARK                         _______ _______ _______ _____ _____    ______ ____
ROOT
ATOM      1  C   UNL     1      -2.269  12.776  22.366  0.00  0.00    +0.000 A 
ATOM      2  C   UNL     1      -1.471  11.963  23.165  0.00  0.00    +0.000 A 
ATOM      3  C   UNL     1      -0.732  10.939  22.588  0.00  0.00    +0.000 A 
ATOM      4  C   UNL     1      -0.780  10.726  21.214  0.00  0.00    +0.000 A 
ATOM      5  N   UNL     1      -0.014   9.725  20.672  0.00  0.00    +0.000 N 
ATOM      6  C   UNL     1       0.403   9.794  19.279  0.00  0.00    +0.000 C 
ATOM      7  C   UNL     1       1.831   9.217  19.204  0.00  0.00    +0.000 C 
ATOM      8  N   UNL     1       1.974   7.899  19.864  0.00  0.00    +0.000 N 
ATOM      9  C   UNL     1       1.278   7.700  21.149  0.00  0.00    +0.000 C 
ATOM     10  C   UNL     1      -0.121   8.352  21.178  0.00  0.00    +0.000 C 
ATOM     11  N   UNL     1      -1.496  11.537  20.413  0.00  0.00    +0.000 NA
ATOM     12  C   UNL     1      -2.224  12.523  20.998  0.00  0.00    +0.000 A 
ENDROOT
BRANCH   8  13
ATOM     13  C   UNL     1       2.473   6.803  19.177  0.00  0.00    +0.000 A 
ATOM     14  N   UNL     1       3.001   7.002  17.949  0.00  0.00    +0.000 NA
ATOM     15  N   UNL     1       3.569   5.978  17.241  0.00  0.00    +0.000 NA
ATOM     16  C   UNL     1       3.694   4.750  17.792  0.00  0.00    +0.000 A 
ATOM     17  C   UNL     1       3.209   4.479  19.085  0.00  0.00    +0.000 A 
ATOM     18  C   UNL     1       3.375   3.239  19.757  0.00  0.00    +0.000 A 
ATOM     19  C   UNL     1       2.754   2.978  20.979  0.00  0.00    +0.000 A 
ATOM     20  C   UNL     1       1.898   3.917  21.531  0.00  0.00    +0.000 A 
ATOM     21  C   UNL     1       1.755   5.148  20.898  0.00  0.00    +0.000 A 
ATOM     22  C   UNL     1       2.482   5.501  19.732  0.00  0.00    +0.000 A 
BRANCH  16  23
ATOM     23  C   UNL     1       4.202   3.676  16.858  0.00  0.00    +0.000 C 
BRANCH  23  24
ATOM     24  C   UNL     1       5.393   3.990  15.979  0.00  0.00    +0.000 A 
ATOM     25  C   UNL     1       5.285   3.790  14.591  0.00  0.00    +0.000 A 
ATOM     26  C   UNL     1       6.287   4.224  13.722  0.00  0.00    +0.000 A 
ATOM     27  C   UNL     1       7.415   4.865  14.227  0.00  0.00    +0.000 A 
ATOM     28  C   UNL     1       7.546   5.057  15.601  0.00  0.00    +0.000 A 
ATOM     29  C   UNL     1       6.541   4.627  16.471  0.00  0.00    +0.000 A 
ENDBRANCH  23  24
ENDBRANCH  16  23
ENDBRANCH   8  13
BRANCH   1  31
ATOM     30  C   UNL     1      -3.148  13.775  24.491  0.00  0.00    +0.000 C 
ATOM     31  C   UNL     1      -3.146  13.861  22.961  0.00  0.00    +0.000 C 
ATOM     32  C   UNL     1      -4.569  13.802  22.398  0.00  0.00    +0.000 C 
BRANCH  31  33
ATOM     33  O   UNL     1      -2.613  15.149  22.616  0.00  0.00    +0.000 OA
ATOM     34  H   UNL     1      -1.726  15.016  22.240  0.00  0.00    +0.000 HD
ENDBRANCH  31  33
ENDBRANCH   1  31
TORSDOF 5
ENDMDL
