MODEL 1
REMARK VINA RESULT:      -8.3      0.000      0.000
REMARK  Name = 
REMARK  7 active torsions:
REMARK  status: ('A' for Active; 'I' for Inactive)
REMARK    1  A    between atoms: C_1  and  N_2
REMARK    2  A    between atoms: N_2  and  C_3
REMARK    3  A    between atoms: C_3  and  C_4
REMARK    4  A    between atoms: C_4  and  N_5
REMARK    5  A    between atoms: C_8  and  C_9
REMARK    6  A    between atoms: C_9  and  C_11
REMARK    7  A    between atoms: C_20  and  C_22
REMARK                            x       y       z     vdW  Elec       q    Type
REMARK                         _______ _______ _______ _____ _____    ______ ____
ROOT
ATOM      1  C   UNL     1       1.802   7.060  20.428  0.00  0.00    +0.000 C 
ENDROOT
BRANCH   1   2
ATOM      2  N   UNL     1       1.750   8.497  20.066  0.00  0.00    +0.000 NA
ATOM      3  C   UNL     1       1.832   8.662  18.607  0.00  0.00    +0.000 C 
ATOM      4  C   UNL     1       1.758  10.130  18.208  0.00  0.00    +0.000 C 
ATOM      5  C   UNL     1       0.454  10.776  18.673  0.00  0.00    +0.000 C 
ATOM      6  C   UNL     1       0.359  10.573  20.197  0.00  0.00    +0.000 C 
ATOM      7  C   UNL     1       0.514   9.098  20.601  0.00  0.00    +0.000 C 
BRANCH   5   8
ATOM      8  C   UNL     1      -0.801  10.226  17.977  0.00  0.00    +0.000 C 
ATOM      9  O   UNL     1      -0.734   9.294  17.173  0.00  0.00    +0.000 OA
BRANCH   8  10
ATOM     10  C   UNL     1      -2.164  10.762  18.285  0.00  0.00    +0.000 A 
ATOM     11  C   UNL     1      -3.338  10.282  17.692  0.00  0.00    +0.000 A 
ATOM     12  C   UNL     1      -4.575  10.840  18.034  0.00  0.00    +0.000 A 
ATOM     13  C   UNL     1      -4.636  11.891  18.940  0.00  0.00    +0.000 A 
ATOM     14  F   UNL     1      -5.822  12.432  19.247  0.00  0.00    +0.000 F 
ATOM     15  C   UNL     1      -3.483  12.396  19.523  0.00  0.00    +0.000 A 
ATOM     16  C   UNL     1      -2.250  11.829  19.200  0.00  0.00    +0.000 A 
ENDBRANCH   8  10
ENDBRANCH   5   8
ENDBRANCH   1   2
BRANCH   1  17
ATOM     17  C   UNL     1       2.617   6.209  19.431  0.00  0.00    +0.000 C 
BRANCH  17  19
ATOM     18  C   UNL     1       1.664   4.149  20.442  0.00  0.00    +0.000 C 
ATOM     19  N   UNL     1       2.816   4.824  19.868  0.00  0.00    +0.000 N 
ATOM     20  C   UNL     1       3.905   4.014  19.495  0.00  0.00    +0.000 C 
ATOM     21  O   UNL     1       3.831   2.786  19.632  0.00  0.00    +0.000 OA
BRANCH  20  22
ATOM     22  C   UNL     1       5.135   4.619  18.917  0.00  0.00    +0.000 A 
ATOM     23  N   UNL     1       6.092   5.125  19.706  0.00  0.00    +0.000 NA
ATOM     24  S   UNL     1       7.357   5.647  18.796  0.00  0.00    +0.000 S 
ATOM     25  C   UNL     1       6.711   5.191  17.278  0.00  0.00    +0.000 A 
ATOM     26  C   UNL     1       7.285   5.305  16.000  0.00  0.00    +0.000 A 
ATOM     27  C   UNL     1       6.555   4.846  14.903  0.00  0.00    +0.000 A 
ATOM     28  C   UNL     1       5.282   4.319  15.071  0.00  0.00    +0.000 A 
ATOM     29  C   UNL     1       4.717   4.219  16.347  0.00  0.00    +0.000 A 
ATOM     30  C   UNL     1       5.443   4.642  17.492  0.00  0.00    +0.000 A 
ENDBRANCH  20  22
ENDBRANCH  17  19
ENDBRANCH   1  17
TORSDOF 6
ENDMDL
MODEL 2
REMARK VINA RESULT:      -8.2      2.638      3.539
REMARK  Name = 
REMARK  7 active torsions:
REMARK  status: ('A' for Active; 'I' for Inactive)
REMARK    1  A    between atoms: C_1  and  N_2
REMARK    2  A    between atoms: N_2  and  C_3
REMARK    3  A    between atoms: C_3  and  C_4
REMARK    4  A    between atoms: C_4  and  N_5
REMARK    5  A    between atoms: C_8  and  C_9
REMARK    6  A    between atoms: C_9  and  C_11
REMARK    7  A    between atoms: C_20  and  C_22
REMARK                            x       y       z     vdW  Elec       q    Type
REMARK                         _______ _______ _______ _____ _____    ______ ____
ROOT
ATOM      1  C   UNL     1       2.583   7.337  19.662  0.00  0.00    +0.000 C 
ENDROOT
BRANCH   1   2
ATOM      2  N   UNL     1       1.359   8.161  19.515  0.00  0.00    +0.000 NA
ATOM      3  C   UNL     1       0.908   8.648  20.827  0.00  0.00    +0.000 C 
ATOM      4  C   UNL     1      -0.338   9.516  20.700  0.00  0.00    +0.000 C 
ATOM      5  C   UNL     1      -0.085  10.737  19.817  0.00  0.00    +0.000 C 
ATOM      6  C   UNL     1       0.417  10.221  18.454  0.00  0.00    +0.000 C 
ATOM      7  C   UNL     1       1.625   9.281  18.594  0.00  0.00    +0.000 C 
BRANCH   5   8
ATOM      8  C   UNL     1       0.909  11.746  20.411  0.00  0.00    +0.000 C 
ATOM      9  O   UNL     1       1.458  11.546  21.496  0.00  0.00    +0.000 OA
BRANCH   8  10
ATOM     10  C   UNL     1       1.295  12.991  19.673  0.00  0.00    +0.000 A 
ATOM     11  C   UNL     1       2.554  13.188  19.092  0.00  0.00    +0.000 A 
ATOM     12  C   UNL     1       2.835  14.383  18.420  0.00  0.00    +0.000 A 
ATOM     13  C   UNL     1       1.877  15.385  18.355  0.00  0.00    +0.000 A 
ATOM     14  F   UNL     1       2.161  16.534  17.726  0.00  0.00    +0.000 F 
ATOM     15  C   UNL     1       0.630  15.219  18.941  0.00  0.00    +0.000 A 
ATOM     16  C   UNL     1       0.339  14.021  19.594  0.00  0.00    +0.000 A 
ENDBRANCH   8  10
ENDBRANCH   5   8
ENDBRANCH   1   2
BRANCH   1  17
ATOM     17  C   UNL     1       2.574   6.068  18.782  0.00  0.00    +0.000 C 
BRANCH  17  19
ATOM     18  C   UNL     1       1.659   4.205  20.147  0.00  0.00    +0.000 C 
ATOM     19  N   UNL     1       2.816   4.833  19.533  0.00  0.00    +0.000 N 
ATOM     20  C   UNL     1       3.986   4.054  19.440  0.00  0.00    +0.000 C 
ATOM     21  O   UNL     1       3.977   2.884  19.841  0.00  0.00    +0.000 OA
BRANCH  20  22
ATOM     22  C   UNL     1       5.226   4.620  18.844  0.00  0.00    +0.000 A 
ATOM     23  N   UNL     1       6.183   5.152  19.616  0.00  0.00    +0.000 NA
ATOM     24  S   UNL     1       7.459   5.619  18.691  0.00  0.00    +0.000 S 
ATOM     25  C   UNL     1       6.818   5.102  17.191  0.00  0.00    +0.000 A 
ATOM     26  C   UNL     1       7.401   5.153  15.914  0.00  0.00    +0.000 A 
ATOM     27  C   UNL     1       6.674   4.652  14.833  0.00  0.00    +0.000 A 
ATOM     28  C   UNL     1       5.394   4.146  15.016  0.00  0.00    +0.000 A 
ATOM     29  C   UNL     1       4.820   4.109  16.292  0.00  0.00    +0.000 A 
ATOM     30  C   UNL     1       5.543   4.576  17.421  0.00  0.00    +0.000 A 
ENDBRANCH  20  22
ENDBRANCH  17  19
ENDBRANCH   1  17
TORSDOF 6
ENDMDL
MODEL 3
REMARK VINA RESULT:      -8.1      1.380      1.752
REMARK  Name = 
REMARK  7 active torsions:
REMARK  status: ('A' for Active; 'I' for Inactive)
REMARK    1  A    between atoms: C_1  and  N_2
REMARK    2  A    between atoms: N_2  and  C_3
REMARK    3  A    between atoms: C_3  and  C_4
REMARK    4  A    between atoms: C_4  and  N_5
REMARK    5  A    between atoms: C_8  and  C_9
REMARK    6  A    between atoms: C_9  and  C_11
REMARK    7  A    between atoms: C_20  and  C_22
REMARK                            x       y       z     vdW  Elec       q    Type
REMARK                         _______ _______ _______ _____ _____    ______ ____
ROOT
ATOM      1  C   UNL     1       2.086   6.809  20.183  0.00  0.00    +0.000 C 
ENDROOT
BRANCH   1   2
ATOM      2  N   UNL     1       2.037   8.221  19.736  0.00  0.00    +0.000 NA
ATOM      3  C   UNL     1       1.354   8.325  18.437  0.00  0.00    +0.000 C 
ATOM      4  C   UNL     1       1.271   9.772  17.966  0.00  0.00    +0.000 C 
ATOM      5  C   UNL     1       0.507  10.645  18.960  0.00  0.00    +0.000 C 
ATOM      6  C   UNL     1       1.207  10.508  20.326  0.00  0.00    +0.000 C 
ATOM      7  C   UNL     1       1.361   9.041  20.759  0.00  0.00    +0.000 C 
BRANCH   5   8
ATOM      8  C   UNL     1      -0.985  10.297  19.082  0.00  0.00    +0.000 C 
ATOM      9  O   UNL     1      -1.469   9.908  20.147  0.00  0.00    +0.000 OA
BRANCH   8  10
ATOM     10  C   UNL     1      -1.925  10.466  17.929  0.00  0.00    +0.000 A 
ATOM     11  C   UNL     1      -2.999  11.364  17.931  0.00  0.00    +0.000 A 
ATOM     12  C   UNL     1      -3.833  11.460  16.811  0.00  0.00    +0.000 A 
ATOM     13  C   UNL     1      -3.614  10.643  15.710  0.00  0.00    +0.000 A 
ATOM     14  F   UNL     1      -4.428  10.728  14.650  0.00  0.00    +0.000 F 
ATOM     15  C   UNL     1      -2.568   9.732  15.695  0.00  0.00    +0.000 A 
ATOM     16  C   UNL     1      -1.721   9.648  16.802  0.00  0.00    +0.000 A 
ENDBRANCH   8  10
ENDBRANCH   5   8
ENDBRANCH   1   2
BRANCH   1  17
ATOM     17  C   UNL     1       2.782   5.873  19.171  0.00  0.00    +0.000 C 
BRANCH  17  19
ATOM     18  C   UNL     1       1.981   3.824  20.325  0.00  0.00    +0.000 C 
ATOM     19  N   UNL     1       3.084   4.545  19.714  0.00  0.00    +0.000 N 
ATOM     20  C   UNL     1       4.240   3.800  19.412  0.00  0.00    +0.000 C 
ATOM     21  O   UNL     1       4.263   2.584  19.640  0.00  0.00    +0.000 OA
BRANCH  20  22
ATOM     22  C   UNL     1       5.427   4.458  18.803  0.00  0.00    +0.000 A 
ATOM     23  N   UNL     1       6.382   5.003  19.566  0.00  0.00    +0.000 NA
ATOM     24  S   UNL     1       7.598   5.580  18.623  0.00  0.00    +0.000 S 
ATOM     25  C   UNL     1       6.931   5.098  17.122  0.00  0.00    +0.000 A 
ATOM     26  C   UNL     1       7.464   5.238  15.830  0.00  0.00    +0.000 A 
ATOM     27  C   UNL     1       6.726   4.750  14.751  0.00  0.00    +0.000 A 
ATOM     28  C   UNL     1       5.481   4.168  14.953  0.00  0.00    +0.000 A 
ATOM     29  C   UNL     1       4.956   4.042  16.244  0.00  0.00    +0.000 A 
ATOM     30  C   UNL     1       5.694   4.496  17.369  0.00  0.00    +0.000 A 
ENDBRANCH  20  22
ENDBRANCH  17  19
ENDBRANCH   1  17
TORSDOF 6
ENDMDL
MODEL 4
REMARK VINA RESULT:      -8.0      1.381      1.617
REMARK  Name = 
REMARK  7 active torsions:
REMARK  status: ('A' for Active; 'I' for Inactive)
REMARK    1  A    between atoms: C_1  and  N_2
REMARK    2  A    between atoms: N_2  and  C_3
REMARK    3  A    between atoms: C_3  and  C_4
REMARK    4  A    between atoms: C_4  and  N_5
REMARK    5  A    between atoms: C_8  and  C_9
REMARK    6  A    between atoms: C_9  and  C_11
REMARK    7  A    between atoms: C_20  and  C_22
REMARK                            x       y       z     vdW  Elec       q    Type
REMARK                         _______ _______ _______ _____ _____    ______ ____
ROOT
ATOM      1  C   UNL     1       2.582   6.521  18.552  0.00  0.00    +0.000 C 
ENDROOT
BRANCH   1   2
ATOM      2  N   UNL     1       2.476   7.965  18.869  0.00  0.00    +0.000 NA
ATOM      3  C   UNL     1       1.676   8.657  17.846  0.00  0.00    +0.000 C 
ATOM      4  C   UNL     1       1.534  10.141  18.162  0.00  0.00    +0.000 C 
ATOM      5  C   UNL     1       0.853  10.367  19.511  0.00  0.00    +0.000 C 
ATOM      6  C   UNL     1       1.677   9.614  20.573  0.00  0.00    +0.000 C 
ATOM      7  C   UNL     1       1.887   8.135  20.210  0.00  0.00    +0.000 C 
BRANCH   5   8
ATOM      8  C   UNL     1      -0.617   9.921  19.554  0.00  0.00    +0.000 C 
ATOM      9  O   UNL     1      -1.064   9.272  20.501  0.00  0.00    +0.000 OA
BRANCH   8  10
ATOM     10  C   UNL     1      -1.582  10.303  18.475  0.00  0.00    +0.000 A 
ATOM     11  C   UNL     1      -1.594   9.717  17.203  0.00  0.00    +0.000 A 
ATOM     12  C   UNL     1      -2.529  10.133  16.249  0.00  0.00    +0.000 A 
ATOM     13  C   UNL     1      -3.428  11.148  16.553  0.00  0.00    +0.000 A 
ATOM     14  F   UNL     1      -4.307  11.553  15.628  0.00  0.00    +0.000 F 
ATOM     15  C   UNL     1      -3.420  11.756  17.800  0.00  0.00    +0.000 A 
ATOM     16  C   UNL     1      -2.501  11.330  18.761  0.00  0.00    +0.000 A 
ENDBRANCH   8  10
ENDBRANCH   5   8
ENDBRANCH   1   2
BRANCH   1  17
ATOM     17  C   UNL     1       3.147   5.679  19.717  0.00  0.00    +0.000 C 
BRANCH  17  19
ATOM     18  C   UNL     1       1.843   3.571  19.894  0.00  0.00    +0.000 C 
ATOM     19  N   UNL     1       3.071   4.234  19.487  0.00  0.00    +0.000 N 
ATOM     20  C   UNL     1       3.930   3.512  18.637  0.00  0.00    +0.000 C 
ATOM     21  O   UNL     1       3.602   2.384  18.248  0.00  0.00    +0.000 OA
BRANCH  20  22
ATOM     22  C   UNL     1       5.218   4.102  18.184  0.00  0.00    +0.000 A 
ATOM     23  N   UNL     1       6.178   4.421  19.062  0.00  0.00    +0.000 NA
ATOM     24  S   UNL     1       7.508   4.974  18.270  0.00  0.00    +0.000 S 
ATOM     25  C   UNL     1       6.887   4.785  16.686  0.00  0.00    +0.000 A 
ATOM     26  C   UNL     1       7.514   5.037  15.454  0.00  0.00    +0.000 A 
ATOM     27  C   UNL     1       6.795   4.792  14.282  0.00  0.00    +0.000 A 
ATOM     28  C   UNL     1       5.484   4.339  14.340  0.00  0.00    +0.000 A 
ATOM     29  C   UNL     1       4.867   4.101  15.573  0.00  0.00    +0.000 A 
ATOM     30  C   UNL     1       5.579   4.305  16.785  0.00  0.00    +0.000 A 
ENDBRANCH  20  22
ENDBRANCH  17  19
ENDBRANCH   1  17
TORSDOF 6
ENDMDL
MODEL 5
REMARK VINA RESULT:      -7.8      3.499      8.924
REMARK  Name = 
REMARK  7 active torsions:
REMARK  status: ('A' for Active; 'I' for Inactive)
REMARK    1  A    between atoms: C_1  and  N_2
REMARK    2  A    between atoms: N_2  and  C_3
REMARK    3  A    between atoms: C_3  and  C_4
REMARK    4  A    between atoms: C_4  and  N_5
REMARK    5  A    between atoms: C_8  and  C_9
REMARK    6  A    between atoms: C_9  and  C_11
REMARK    7  A    between atoms: C_20  and  C_22
REMARK                            x       y       z     vdW  Elec       q    Type
REMARK                         _______ _______ _______ _____ _____    ______ ____
ROOT
ATOM      1  C   UNL     1       2.094   6.614  20.524  0.00  0.00    +0.000 C 
ENDROOT
BRANCH   1   2
ATOM      2  N   UNL     1       1.608   5.244  20.240  0.00  0.00    +0.000 NA
ATOM      3  C   UNL     1       1.841   4.899  18.829  0.00  0.00    +0.000 C 
ATOM      4  C   UNL     1       1.369   3.485  18.516  0.00  0.00    +0.000 C 
ATOM      5  C   UNL     1       2.095   2.447  19.371  0.00  0.00    +0.000 C 
ATOM      6  C   UNL     1       1.872   2.830  20.846  0.00  0.00    +0.000 C 
ATOM      7  C   UNL     1       2.275   4.285  21.139  0.00  0.00    +0.000 C 
BRANCH   5   8
ATOM      8  C   UNL     1       3.595   2.322  19.066  0.00  0.00    +0.000 C 
ATOM      9  O   UNL     1       4.231   1.312  19.372  0.00  0.00    +0.000 OA
BRANCH   8  10
ATOM     10  C   UNL     1       4.338   3.399  18.338  0.00  0.00    +0.000 A 
ATOM     11  C   UNL     1       4.347   3.528  16.944  0.00  0.00    +0.000 A 
ATOM     12  C   UNL     1       5.069   4.564  16.341  0.00  0.00    +0.000 A 
ATOM     13  C   UNL     1       5.803   5.446  17.123  0.00  0.00    +0.000 A 
ATOM     14  F   UNL     1       6.507   6.423  16.537  0.00  0.00    +0.000 F 
ATOM     15  C   UNL     1       5.825   5.324  18.505  0.00  0.00    +0.000 A 
ATOM     16  C   UNL     1       5.089   4.305  19.111  0.00  0.00    +0.000 A 
ENDBRANCH   8  10
ENDBRANCH   5   8
ENDBRANCH   1   2
BRANCH   1  17
ATOM     17  C   UNL     1       1.259   7.714  19.833  0.00  0.00    +0.000 C 
BRANCH  17  19
ATOM     18  C   UNL     1       3.069   7.791  18.134  0.00  0.00    +0.000 C 
ATOM     19  N   UNL     1       2.015   8.491  18.847  0.00  0.00    +0.000 N 
ATOM     20  C   UNL     1       1.606   9.730  18.318  0.00  0.00    +0.000 C 
ATOM     21  O   UNL     1       2.119  10.151  17.274  0.00  0.00    +0.000 OA
BRANCH  20  22
ATOM     22  C   UNL     1       0.546  10.528  18.992  0.00  0.00    +0.000 A 
ATOM     23  N   UNL     1       0.828  11.294  20.054  0.00  0.00    +0.000 NA
ATOM     24  S   UNL     1      -0.514  12.114  20.532  0.00  0.00    +0.000 S 
ATOM     25  C   UNL     1      -1.556  11.515  19.313  0.00  0.00    +0.000 A 
ATOM     26  C   UNL     1      -2.905  11.824  19.071  0.00  0.00    +0.000 A 
ATOM     27  C   UNL     1      -3.545  11.205  17.996  0.00  0.00    +0.000 A 
ATOM     28  C   UNL     1      -2.868  10.285  17.207  0.00  0.00    +0.000 A 
ATOM     29  C   UNL     1      -1.528   9.978  17.464  0.00  0.00    +0.000 A 
ATOM     30  C   UNL     1      -0.834  10.614  18.527  0.00  0.00    +0.000 A 
ENDBRANCH  20  22
ENDBRANCH  17  19
ENDBRANCH   1  17
TORSDOF 6
ENDMDL
MODEL 6
REMARK VINA RESULT:      -7.7      1.284      1.759
REMARK  Name = 
REMARK  7 active torsions:
REMARK  status: ('A' for Active; 'I' for Inactive)
REMARK    1  A    between atoms: C_1  and  N_2
REMARK    2  A    between atoms: N_2  and  C_3
REMARK    3  A    between atoms: C_3  and  C_4
REMARK    4  A    between atoms: C_4  and  N_5
REMARK    5  A    between atoms: C_8  and  C_9
REMARK    6  A    between atoms: C_9  and  C_11
REMARK    7  A    between atoms: C_20  and  C_22
REMARK                            x       y       z     vdW  Elec       q    Type
REMARK                         _______ _______ _______ _____ _____    ______ ____
ROOT
ATOM      1  C   UNL     1       1.681   6.903  20.274  0.00  0.00    +0.000 C 
ENDROOT
BRANCH   1   2
ATOM      2  N   UNL     1       1.841   8.375  20.200  0.00  0.00    +0.000 NA
ATOM      3  C   UNL     1       1.424   8.870  18.879  0.00  0.00    +0.000 C 
ATOM      4  C   UNL     1       1.559  10.385  18.785  0.00  0.00    +0.000 C 
ATOM      5  C   UNL     1       0.704  11.093  19.835  0.00  0.00    +0.000 C 
ATOM      6  C   UNL     1       1.124  10.547  21.213  0.00  0.00    +0.000 C 
ATOM      7  C   UNL     1       1.063   9.012  21.278  0.00  0.00    +0.000 C 
BRANCH   5   8
ATOM      8  C   UNL     1      -0.809  10.926  19.628  0.00  0.00    +0.000 C 
ATOM      9  O   UNL     1      -1.262  10.103  18.830  0.00  0.00    +0.000 OA
BRANCH   8  10
ATOM     10  C   UNL     1      -1.800  11.718  20.424  0.00  0.00    +0.000 A 
ATOM     11  C   UNL     1      -1.717  11.892  21.810  0.00  0.00    +0.000 A 
ATOM     12  C   UNL     1      -2.687  12.647  22.480  0.00  0.00    +0.000 A 
ATOM     13  C   UNL     1      -3.748  13.199  21.775  0.00  0.00    +0.000 A 
ATOM     14  F   UNL     1      -4.682  13.904  22.426  0.00  0.00    +0.000 F 
ATOM     15  C   UNL     1      -3.860  13.021  20.403  0.00  0.00    +0.000 A 
ATOM     16  C   UNL     1      -2.884  12.286  19.728  0.00  0.00    +0.000 A 
ENDBRANCH   8  10
ENDBRANCH   5   8
ENDBRANCH   1   2
BRANCH   1  17
ATOM     17  C   UNL     1       2.739   6.131  19.455  0.00  0.00    +0.000 C 
BRANCH  17  19
ATOM     18  C   UNL     1       1.901   4.101  20.618  0.00  0.00    +0.000 C 
ATOM     19  N   UNL     1       3.006   4.783  19.966  0.00  0.00    +0.000 N 
ATOM     20  C   UNL     1       4.113   3.994  19.603  0.00  0.00    +0.000 C 
ATOM     21  O   UNL     1       4.093   2.775  19.813  0.00  0.00    +0.000 OA
BRANCH  20  22
ATOM     22  C   UNL     1       5.299   4.609  18.948  0.00  0.00    +0.000 A 
ATOM     23  N   UNL     1       6.280   5.163  19.674  0.00  0.00    +0.000 NA
ATOM     24  S   UNL     1       7.486   5.685  18.688  0.00  0.00    +0.000 S 
ATOM     25  C   UNL     1       6.781   5.165  17.218  0.00  0.00    +0.000 A 
ATOM     26  C   UNL     1       7.291   5.252  15.912  0.00  0.00    +0.000 A 
ATOM     27  C   UNL     1       6.522   4.741  14.865  0.00  0.00    +0.000 A 
ATOM     28  C   UNL     1       5.272   4.189  15.110  0.00  0.00    +0.000 A 
ATOM     29  C   UNL     1       4.771   4.116  16.415  0.00  0.00    +0.000 A 
ATOM     30  C   UNL     1       5.539   4.594  17.509  0.00  0.00    +0.000 A 
ENDBRANCH  20  22
ENDBRANCH  17  19
ENDBRANCH   1  17
TORSDOF 6
ENDMDL
MODEL 7
REMARK VINA RESULT:      -7.7      3.057      4.679
REMARK  Name = 
REMARK  7 active torsions:
REMARK  status: ('A' for Active; 'I' for Inactive)
REMARK    1  A    between atoms: C_1  and  N_2
REMARK    2  A    between atoms: N_2  and  C_3
REMARK    3  A    between atoms: C_3  and  C_4
REMARK    4  A    between atoms: C_4  and  N_5
REMARK    5  A    between atoms: C_8  and  C_9
REMARK    6  A    between atoms: C_9  and  C_11
REMARK    7  A    between atoms: C_20  and  C_22
REMARK                            x       y       z     vdW  Elec       q    Type
REMARK                         _______ _______ _______ _____ _____    ______ ____
ROOT
ATOM      1  C   UNL     1       3.520   8.004  18.100  0.00  0.00    +0.000 C 
ENDROOT
BRANCH   1   2
ATOM      2  N   UNL     1       2.103   8.248  18.457  0.00  0.00    +0.000 NA
ATOM      3  C   UNL     1       1.922   8.180  19.915  0.00  0.00    +0.000 C 
ATOM      4  C   UNL     1       0.476   8.450  20.310  0.00  0.00    +0.000 C 
ATOM      5  C   UNL     1       0.015   9.833  19.852  0.00  0.00    +0.000 C 
ATOM      6  C   UNL     1       0.235   9.908  18.329  0.00  0.00    +0.000 C 
ATOM      7  C   UNL     1       1.677   9.557  17.928  0.00  0.00    +0.000 C 
BRANCH   5   8
ATOM      8  C   UNL     1       0.727  10.997  20.558  0.00  0.00    +0.000 C 
ATOM      9  O   UNL     1       1.350  10.828  21.608  0.00  0.00    +0.000 OA
BRANCH   8  10
ATOM     10  C   UNL     1       0.741  12.375  19.973  0.00  0.00    +0.000 A 
ATOM     11  C   UNL     1      -0.413  13.140  19.763  0.00  0.00    +0.000 A 
ATOM     12  C   UNL     1      -0.314  14.421  19.210  0.00  0.00    +0.000 A 
ATOM     13  C   UNL     1       0.927  14.923  18.840  0.00  0.00    +0.000 A 
ATOM     14  F   UNL     1       1.012  16.143  18.293  0.00  0.00    +0.000 F 
ATOM     15  C   UNL     1       2.081  14.175  19.020  0.00  0.00    +0.000 A 
ATOM     16  C   UNL     1       1.988  12.904  19.591  0.00  0.00    +0.000 A 
ENDBRANCH   8  10
ENDBRANCH   5   8
ENDBRANCH   1   2
BRANCH   1  17
ATOM     17  C   UNL     1       3.730   6.709  17.284  0.00  0.00    +0.000 C 
BRANCH  17  19
ATOM     18  C   UNL     1       6.194   7.026  17.314  0.00  0.00    +0.000 C 
ATOM     19  N   UNL     1       5.064   6.123  17.448  0.00  0.00    +0.000 N 
ATOM     20  C   UNL     1       5.321   4.866  18.025  0.00  0.00    +0.000 C 
ATOM     21  O   UNL     1       6.462   4.594  18.420  0.00  0.00    +0.000 OA
BRANCH  20  22
ATOM     22  C   UNL     1       4.229   3.868  18.185  0.00  0.00    +0.000 A 
ATOM     23  N   UNL     1       4.108   2.836  17.340  0.00  0.00    +0.000 NA
ATOM     24  S   UNL     1       2.868   1.864  17.810  0.00  0.00    +0.000 S 
ATOM     25  C   UNL     1       2.436   2.755  19.206  0.00  0.00    +0.000 A 
ATOM     26  C   UNL     1       1.439   2.482  20.158  0.00  0.00    +0.000 A 
ATOM     27  C   UNL     1       1.285   3.364  21.228  0.00  0.00    +0.000 A 
ATOM     28  C   UNL     1       2.078   4.499  21.328  0.00  0.00    +0.000 A 
ATOM     29  C   UNL     1       3.061   4.766  20.369  0.00  0.00    +0.000 A 
ATOM     30  C   UNL     1       3.272   3.872  19.285  0.00  0.00    +0.000 A 
ENDBRANCH  20  22
ENDBRANCH  17  19
ENDBRANCH   1  17
TORSDOF 6
ENDMDL
MODEL 8
REMARK VINA RESULT:      -7.7      1.456      2.119
REMARK  Name = 
REMARK  7 active torsions:
REMARK  status: ('A' for Active; 'I' for Inactive)
REMARK    1  A    between atoms: C_1  and  N_2
REMARK    2  A    between atoms: N_2  and  C_3
REMARK    3  A    between atoms: C_3  and  C_4
REMARK    4  A    between atoms: C_4  and  N_5
REMARK    5  A    between atoms: C_8  and  C_9
REMARK    6  A    between atoms: C_9  and  C_11
REMARK    7  A    between atoms: C_20  and  C_22
REMARK                            x       y       z     vdW  Elec       q    Type
REMARK                         _______ _______ _______ _____ _____    ______ ____
ROOT
ATOM      1  C   UNL     1       1.744   5.994  20.510  0.00  0.00    +0.000 C 
ENDROOT
BRANCH   1   2
ATOM      2  N   UNL     1       2.065   7.386  20.112  0.00  0.00    +0.000 NA
ATOM      3  C   UNL     1       2.166   7.490  18.648  0.00  0.00    +0.000 C 
ATOM      4  C   UNL     1       2.474   8.917  18.212  0.00  0.00    +0.000 C 
ATOM      5  C   UNL     1       1.392   9.893  18.671  0.00  0.00    +0.000 C 
ATOM      6  C   UNL     1       1.269   9.756  20.201  0.00  0.00    +0.000 C 
ATOM      7  C   UNL     1       1.038   8.301  20.641  0.00  0.00    +0.000 C 
BRANCH   5   8
ATOM      8  C   UNL     1       0.027   9.676  17.999  0.00  0.00    +0.000 C 
ATOM      9  O   UNL     1      -0.147   8.782  17.169  0.00  0.00    +0.000 OA
BRANCH   8  10
ATOM     10  C   UNL     1      -1.165  10.506  18.364  0.00  0.00    +0.000 A 
ATOM     11  C   UNL     1      -1.134  11.529  19.319  0.00  0.00    +0.000 A 
ATOM     12  C   UNL     1      -2.294  12.258  19.603  0.00  0.00    +0.000 A 
ATOM     13  C   UNL     1      -3.485  11.947  18.959  0.00  0.00    +0.000 A 
ATOM     14  F   UNL     1      -4.595  12.636  19.251  0.00  0.00    +0.000 F 
ATOM     15  C   UNL     1      -3.543  10.924  18.024  0.00  0.00    +0.000 A 
ATOM     16  C   UNL     1      -2.383  10.208  17.723  0.00  0.00    +0.000 A 
ENDBRANCH   8  10
ENDBRANCH   5   8
ENDBRANCH   1   2
BRANCH   1  17
ATOM     17  C   UNL     1       2.265   4.938  19.511  0.00  0.00    +0.000 C 
BRANCH  17  19
ATOM     18  C   UNL     1       2.571   3.279  21.335  0.00  0.00    +0.000 C 
ATOM     19  N   UNL     1       3.097   3.904  20.134  0.00  0.00    +0.000 N 
ATOM     20  C   UNL     1       4.180   3.260  19.505  0.00  0.00    +0.000 C 
ATOM     21  O   UNL     1       4.610   2.194  19.964  0.00  0.00    +0.000 OA
BRANCH  20  22
ATOM     22  C   UNL     1       4.796   3.838  18.281  0.00  0.00    +0.000 A 
ATOM     23  N   UNL     1       4.326   3.538  17.062  0.00  0.00    +0.000 NA
ATOM     24  S   UNL     1       5.148   4.382  15.916  0.00  0.00    +0.000 S 
ATOM     25  C   UNL     1       6.169   5.235  16.992  0.00  0.00    +0.000 A 
ATOM     26  C   UNL     1       7.146   6.204  16.706  0.00  0.00    +0.000 A 
ATOM     27  C   UNL     1       7.850   6.770  17.769  0.00  0.00    +0.000 A 
ATOM     28  C   UNL     1       7.608   6.362  19.074  0.00  0.00    +0.000 A 
ATOM     29  C   UNL     1       6.639   5.390  19.346  0.00  0.00    +0.000 A 
ATOM     30  C   UNL     1       5.878   4.816  18.293  0.00  0.00    +0.000 A 
ENDBRANCH  20  22
ENDBRANCH  17  19
ENDBRANCH   1  17
TORSDOF 6
ENDMDL
MODEL 9
REMARK VINA RESULT:      -7.6      1.952      2.546
REMARK  Name = 
REMARK  7 active torsions:
REMARK  status: ('A' for Active; 'I' for Inactive)
REMARK    1  A    between atoms: C_1  and  N_2
REMARK    2  A    between atoms: N_2  and  C_3
REMARK    3  A    between atoms: C_3  and  C_4
REMARK    4  A    between atoms: C_4  and  N_5
REMARK    5  A    between atoms: C_8  and  C_9
REMARK    6  A    between atoms: C_9  and  C_11
REMARK    7  A    between atoms: C_20  and  C_22
REMARK                            x       y       z     vdW  Elec       q    Type
REMARK                         _______ _______ _______ _____ _____    ______ ____
ROOT
ATOM      1  C   UNL     1       1.931   7.727  20.058  0.00  0.00    +0.000 C 
ENDROOT
BRANCH   1   2
ATOM      2  N   UNL     1       1.312   8.757  19.191  0.00  0.00    +0.000 NA
ATOM      3  C   UNL     1      -0.014   9.131  19.706  0.00  0.00    +0.000 C 
ATOM      4  C   UNL     1      -0.663  10.207  18.843  0.00  0.00    +0.000 C 
ATOM      5  C   UNL     1       0.187  11.475  18.791  0.00  0.00    +0.000 C 
ATOM      6  C   UNL     1       1.584  11.072  18.281  0.00  0.00    +0.000 C 
ATOM      7  C   UNL     1       2.201   9.931  19.106  0.00  0.00    +0.000 C 
BRANCH   5   8
ATOM      8  C   UNL     1       0.296  12.213  20.135  0.00  0.00    +0.000 C 
ATOM      9  O   UNL     1       1.299  12.865  20.430  0.00  0.00    +0.000 OA
BRANCH   8  10
ATOM     10  C   UNL     1      -0.831  12.215  21.120  0.00  0.00    +0.000 A 
ATOM     11  C   UNL     1      -2.033  12.905  20.921  0.00  0.00    +0.000 A 
ATOM     12  C   UNL     1      -3.038  12.857  21.894  0.00  0.00    +0.000 A 
ATOM     13  C   UNL     1      -2.832  12.150  23.071  0.00  0.00    +0.000 A 
ATOM     14  F   UNL     1      -3.791  12.125  24.005  0.00  0.00    +0.000 F 
ATOM     15  C   UNL     1      -1.640  11.476  23.298  0.00  0.00    +0.000 A 
ATOM     16  C   UNL     1      -0.643  11.505  22.321  0.00  0.00    +0.000 A 
ENDBRANCH   8  10
ENDBRANCH   5   8
ENDBRANCH   1   2
BRANCH   1  17
ATOM     17  C   UNL     1       2.855   6.757  19.289  0.00  0.00    +0.000 C 
BRANCH  17  19
ATOM     18  C   UNL     1       1.692   4.935  20.514  0.00  0.00    +0.000 C 
ATOM     19  N   UNL     1       2.903   5.411  19.867  0.00  0.00    +0.000 N 
ATOM     20  C   UNL     1       3.887   4.447  19.574  0.00  0.00    +0.000 C 
ATOM     21  O   UNL     1       3.677   3.257  19.838  0.00  0.00    +0.000 OA
BRANCH  20  22
ATOM     22  C   UNL     1       5.167   4.845  18.930  0.00  0.00    +0.000 A 
ATOM     23  N   UNL     1       6.197   5.296  19.660  0.00  0.00    +0.000 NA
ATOM     24  S   UNL     1       7.494   5.579  18.691  0.00  0.00    +0.000 S 
ATOM     25  C   UNL     1       6.763   5.076  17.228  0.00  0.00    +0.000 A 
ATOM     26  C   UNL     1       7.318   5.008  15.939  0.00  0.00    +0.000 A 
ATOM     27  C   UNL     1       6.513   4.549  14.895  0.00  0.00    +0.000 A 
ATOM     28  C   UNL     1       5.190   4.198  15.124  0.00  0.00    +0.000 A 
ATOM     29  C   UNL     1       4.646   4.279  16.411  0.00  0.00    +0.000 A 
ATOM     30  C   UNL     1       5.444   4.707  17.505  0.00  0.00    +0.000 A 
ENDBRANCH  20  22
ENDBRANCH  17  19
ENDBRANCH   1  17
TORSDOF 6
ENDMDL
