MODEL 1
REMARK VINA RESULT:      -7.0      0.000      0.000
REMARK  Name = 
REMARK  12 active torsions:
REMARK  status: ('A' for Active; 'I' for Inactive)
REMARK    1  A    between atoms: C_1  and  O_2
REMARK    2  A    between atoms: O_2  and  C_3
REMARK    3  A    between atoms: C_3  and  C_4
REMARK    4  A    between atoms: C_4  and  N_5
REMARK    5  A    between atoms: N_5  and  C_6
REMARK    6  A    between atoms: C_8  and  C_9
REMARK    7  A    between atoms: C_14  and  C_15
REMARK    8  A    between atoms: N_21  and  C_22
REMARK    9  A    between atoms: C_22  and  C_23
REMARK   10  A    between atoms: C_23  and  C_24
REMARK   11  A    between atoms: C_24  and  N_25
REMARK   12  A    between atoms: C_30  and  C_31
REMARK                            x       y       z     vdW  Elec       q    Type
REMARK                         _______ _______ _______ _____ _____    ______ ____
ROOT
ATOM      1  C   UNL     1       0.766  10.143  20.947  0.00  0.00    +0.000 A 
ATOM      2  N   UNL     1       1.002  11.193  20.096  0.00  0.00    +0.000 NA
ATOM      3  C   UNL     1       1.623  10.992  18.925  0.00  0.00    +0.000 A 
ATOM      4  C   UNL     1       1.857  12.139  17.995  0.00  0.00    +0.000 C 
ATOM      5  N   UNL     1       2.047   9.817  18.481  0.00  0.00    +0.000 NA
ATOM      6  C   UNL     1       1.785   8.799  19.305  0.00  0.00    +0.000 A 
ATOM      7  C   UNL     1       1.168   8.848  20.529  0.00  0.00    +0.000 A 
ATOM      8  N   UNL     1       1.080   7.553  21.049  0.00  0.00    +0.000 NA
ATOM      9  C   UNL     1       1.620   6.726  20.141  0.00  0.00    +0.000 A 
ATOM     10  N   UNL     1       2.068   7.488  19.065  0.00  0.00    +0.000 N 
ENDROOT
BRANCH   9  11
ATOM     11  C   UNL     1       1.695   5.227  20.259  0.00  0.00    +0.000 A 
ATOM     12  C   UNL     1       2.244   4.643  21.408  0.00  0.00    +0.000 A 
ATOM     13  C   UNL     1       2.294   3.245  21.576  0.00  0.00    +0.000 A 
ATOM     14  C   UNL     1       1.802   2.382  20.598  0.00  0.00    +0.000 A 
ATOM     15  C   UNL     1       1.267   2.926  19.448  0.00  0.00    +0.000 A 
ATOM     16  C   UNL     1       1.223   4.318  19.287  0.00  0.00    +0.000 A 
ENDBRANCH   9  11
BRANCH   1  17
ATOM     17  N   UNL     1       0.142  10.412  22.166  0.00  0.00    +0.000 N 
ATOM     18  H   UNL     1       0.208   9.638  22.817  0.00  0.00    +0.000 HD
BRANCH  17  19
ATOM     19  C   UNL     1      -1.137  11.114  22.053  0.00  0.00    +0.000 C 
BRANCH  19  20
ATOM     20  C   UNL     1      -1.231  12.289  23.030  0.00  0.00    +0.000 C 
BRANCH  20  22
ATOM     21  C   UNL     1      -2.801  13.979  23.518  0.00  0.00    +0.000 C 
ATOM     22  O   UNL     1      -2.600  12.590  23.307  0.00  0.00    +0.000 OA
ENDBRANCH  20  22
ENDBRANCH  19  20
ENDBRANCH  17  19
ENDBRANCH   1  17
BRANCH  10  23
ATOM     23  C   UNL     1       2.657   7.009  17.833  0.00  0.00    +0.000 C 
BRANCH  23  24
ATOM     24  C   UNL     1       4.100   7.381  17.510  0.00  0.00    +0.000 C 
BRANCH  24  25
ATOM     25  C   UNL     1       4.718   6.389  16.541  0.00  0.00    +0.000 C 
BRANCH  25  26
ATOM     26  N   UNL     1       4.795   5.014  17.072  0.00  0.00    +0.000 NA
ATOM     27  C   UNL     1       5.598   4.096  16.236  0.00  0.00    +0.000 C 
ATOM     28  C   UNL     1       7.082   4.450  16.204  0.00  0.00    +0.000 C 
ATOM     29  C   UNL     1       7.660   4.574  17.611  0.00  0.00    +0.000 C 
ATOM     30  C   UNL     1       6.784   5.429  18.526  0.00  0.00    +0.000 C 
ATOM     31  C   UNL     1       5.296   5.040  18.463  0.00  0.00    +0.000 C 
ATOM     32  C   UNL     1       5.017   3.708  19.171  0.00  0.00    +0.000 C 
ENDBRANCH  25  26
ENDBRANCH  24  25
ENDBRANCH  23  24
ENDBRANCH  10  23
TORSDOF 9
ENDMDL
MODEL 2
REMARK VINA RESULT:      -6.9      1.120      1.607
REMARK  Name = 
REMARK  12 active torsions:
REMARK  status: ('A' for Active; 'I' for Inactive)
REMARK    1  A    between atoms: C_1  and  O_2
REMARK    2  A    between atoms: O_2  and  C_3
REMARK    3  A    between atoms: C_3  and  C_4
REMARK    4  A    between atoms: C_4  and  N_5
REMARK    5  A    between atoms: N_5  and  C_6
REMARK    6  A    between atoms: C_8  and  C_9
REMARK    7  A    between atoms: C_14  and  C_15
REMARK    8  A    between atoms: N_21  and  C_22
REMARK    9  A    between atoms: C_22  and  C_23
REMARK   10  A    between atoms: C_23  and  C_24
REMARK   11  A    between atoms: C_24  and  N_25
REMARK   12  A    between atoms: C_30  and  C_31
REMARK                            x       y       z     vdW  Elec       q    Type
REMARK                         _______ _______ _______ _____ _____    ______ ____
ROOT
ATOM      1  C   UNL     1       0.704   9.918  21.544  0.00  0.00    +0.000 A 
ATOM      2  N   UNL     1       0.642  11.048  20.767  0.00  0.00    +0.000 NA
ATOM      3  C   UNL     1       1.026  11.011  19.483  0.00  0.00    +0.000 A 
ATOM      4  C   UNL     1       0.935  12.242  18.638  0.00  0.00    +0.000 C 
ATOM      5  N   UNL     1       1.475   9.934  18.854  0.00  0.00    +0.000 NA
ATOM      6  C   UNL     1       1.502   8.835  19.612  0.00  0.00    +0.000 A 
ATOM      7  C   UNL     1       1.150   8.718  20.933  0.00  0.00    +0.000 A 
ATOM      8  N   UNL     1       1.315   7.389  21.334  0.00  0.00    +0.000 NA
ATOM      9  C   UNL     1       1.743   6.703  20.263  0.00  0.00    +0.000 A 
ATOM     10  N   UNL     1       1.872   7.591  19.197  0.00  0.00    +0.000 N 
ENDROOT
BRANCH   9  11
ATOM     11  C   UNL     1       2.004   5.221  20.221  0.00  0.00    +0.000 A 
ATOM     12  C   UNL     1       3.306   4.747  20.013  0.00  0.00    +0.000 A 
ATOM     13  C   UNL     1       3.599   3.369  20.009  0.00  0.00    +0.000 A 
ATOM     14  C   UNL     1       2.600   2.417  20.206  0.00  0.00    +0.000 A 
ATOM     15  C   UNL     1       1.305   2.852  20.400  0.00  0.00    +0.000 A 
ATOM     16  C   UNL     1       1.021   4.225  20.401  0.00  0.00    +0.000 A 
ENDBRANCH   9  11
BRANCH   1  17
ATOM     17  N   UNL     1       0.321  10.019  22.881  0.00  0.00    +0.000 N 
ATOM     18  H   UNL     1       0.734   9.297  23.461  0.00  0.00    +0.000 HD
BRANCH  17  19
ATOM     19  C   UNL     1      -1.090  10.347  23.087  0.00  0.00    +0.000 C 
BRANCH  19  20
ATOM     20  C   UNL     1      -1.333  11.859  23.071  0.00  0.00    +0.000 C 
BRANCH  20  22
ATOM     21  C   UNL     1      -2.108  13.396  21.460  0.00  0.00    +0.000 C 
ATOM     22  O   UNL     1      -2.371  12.181  22.143  0.00  0.00    +0.000 OA
ENDBRANCH  20  22
ENDBRANCH  19  20
ENDBRANCH  17  19
ENDBRANCH   1  17
BRANCH  10  23
ATOM     23  C   UNL     1       2.242   7.279  17.834  0.00  0.00    +0.000 C 
BRANCH  23  24
ATOM     24  C   UNL     1       3.531   7.862  17.266  0.00  0.00    +0.000 C 
BRANCH  24  25
ATOM     25  C   UNL     1       4.743   7.089  17.751  0.00  0.00    +0.000 C 
BRANCH  25  26
ATOM     26  N   UNL     1       5.721   6.793  16.686  0.00  0.00    +0.000 NA
ATOM     27  C   UNL     1       7.125   7.043  17.077  0.00  0.00    +0.000 C 
ATOM     28  C   UNL     1       7.626   6.098  18.165  0.00  0.00    +0.000 C 
ATOM     29  C   UNL     1       7.405   4.637  17.785  0.00  0.00    +0.000 C 
ATOM     30  C   UNL     1       5.989   4.379  17.269  0.00  0.00    +0.000 C 
ATOM     31  C   UNL     1       5.542   5.404  16.211  0.00  0.00    +0.000 C 
ATOM     32  C   UNL     1       6.247   5.190  14.865  0.00  0.00    +0.000 C 
ENDBRANCH  25  26
ENDBRANCH  24  25
ENDBRANCH  23  24
ENDBRANCH  10  23
TORSDOF 9
ENDMDL
MODEL 3
REMARK VINA RESULT:      -6.9      3.767      8.432
REMARK  Name = 
REMARK  12 active torsions:
REMARK  status: ('A' for Active; 'I' for Inactive)
REMARK    1  A    between atoms: C_1  and  O_2
REMARK    2  A    between atoms: O_2  and  C_3
REMARK    3  A    between atoms: C_3  and  C_4
REMARK    4  A    between atoms: C_4  and  N_5
REMARK    5  A    between atoms: N_5  and  C_6
REMARK    6  A    between atoms: C_8  and  C_9
REMARK    7  A    between atoms: C_14  and  C_15
REMARK    8  A    between atoms: N_21  and  C_22
REMARK    9  A    between atoms: C_22  and  C_23
REMARK   10  A    between atoms: C_23  and  C_24
REMARK   11  A    between atoms: C_24  and  N_25
REMARK   12  A    between atoms: C_30  and  C_31
REMARK                            x       y       z     vdW  Elec       q    Type
REMARK                         _______ _______ _______ _____ _____    ______ ____
ROOT
ATOM      1  C   UNL     1       6.964   5.528  16.190  0.00  0.00    +0.000 A 
ATOM      2  N   UNL     1       7.636   6.697  16.448  0.00  0.00    +0.000 NA
ATOM      3  C   UNL     1       7.157   7.572  17.344  0.00  0.00    +0.000 A 
ATOM      4  C   UNL     1       7.906   8.834  17.633  0.00  0.00    +0.000 C 
ATOM      5  N   UNL     1       6.046   7.407  18.048  0.00  0.00    +0.000 NA
ATOM      6  C   UNL     1       5.418   6.253  17.810  0.00  0.00    +0.000 A 
ATOM      7  C   UNL     1       5.779   5.269  16.926  0.00  0.00    +0.000 A 
ATOM      8  N   UNL     1       4.855   4.223  17.003  0.00  0.00    +0.000 NA
ATOM      9  C   UNL     1       3.954   4.561  17.938  0.00  0.00    +0.000 A 
ATOM     10  N   UNL     1       4.288   5.819  18.435  0.00  0.00    +0.000 N 
ENDROOT
BRANCH   9  11
ATOM     11  C   UNL     1       2.801   3.706  18.391  0.00  0.00    +0.000 A 
ATOM     12  C   UNL     1       1.498   4.010  17.973  0.00  0.00    +0.000 A 
ATOM     13  C   UNL     1       0.398   3.210  18.340  0.00  0.00    +0.000 A 
ATOM     14  C   UNL     1       0.561   2.082  19.142  0.00  0.00    +0.000 A 
ATOM     15  C   UNL     1       1.830   1.763  19.581  0.00  0.00    +0.000 A 
ATOM     16  C   UNL     1       2.919   2.565  19.213  0.00  0.00    +0.000 A 
ENDBRANCH   9  11
BRANCH   1  17
ATOM     17  N   UNL     1       7.491   4.667  15.227  0.00  0.00    +0.000 N 
ATOM     18  H   UNL     1       8.488   4.797  15.091  0.00  0.00    +0.000 HD
BRANCH  17  19
ATOM     19  C   UNL     1       6.649   4.488  14.044  0.00  0.00    +0.000 C 
BRANCH  19  20
ATOM     20  C   UNL     1       7.414   4.779  12.751  0.00  0.00    +0.000 C 
BRANCH  20  22
ATOM     21  C   UNL     1       5.901   3.094  12.095  0.00  0.00    +0.000 C 
ATOM     22  O   UNL     1       7.067   3.823  11.747  0.00  0.00    +0.000 OA
ENDBRANCH  20  22
ENDBRANCH  19  20
ENDBRANCH  17  19
ENDBRANCH   1  17
BRANCH  10  23
ATOM     23  C   UNL     1       3.633   6.544  19.501  0.00  0.00    +0.000 C 
BRANCH  23  24
ATOM     24  C   UNL     1       2.404   7.386  19.176  0.00  0.00    +0.000 C 
BRANCH  24  25
ATOM     25  C   UNL     1       1.811   7.999  20.432  0.00  0.00    +0.000 C 
BRANCH  25  26
ATOM     26  N   UNL     1       0.430   8.491  20.254  0.00  0.00    +0.000 NA
ATOM     27  C   UNL     1      -0.386   8.434  21.485  0.00  0.00    +0.000 C 
ATOM     28  C   UNL     1       0.096   9.388  22.574  0.00  0.00    +0.000 C 
ATOM     29  C   UNL     1       0.222  10.817  22.053  0.00  0.00    +0.000 C 
ATOM     30  C   UNL     1       0.967  10.885  20.720  0.00  0.00    +0.000 C 
ATOM     31  C   UNL     1       0.453   9.859  19.695  0.00  0.00    +0.000 C 
ATOM     32  C   UNL     1      -0.922  10.243  19.132  0.00  0.00    +0.000 C 
ENDBRANCH  25  26
ENDBRANCH  24  25
ENDBRANCH  23  24
ENDBRANCH  10  23
TORSDOF 9
ENDMDL
MODEL 4
REMARK VINA RESULT:      -6.9      3.637      8.262
REMARK  Name = 
REMARK  12 active torsions:
REMARK  status: ('A' for Active; 'I' for Inactive)
REMARK    1  A    between atoms: C_1  and  O_2
REMARK    2  A    between atoms: O_2  and  C_3
REMARK    3  A    between atoms: C_3  and  C_4
REMARK    4  A    between atoms: C_4  and  N_5
REMARK    5  A    between atoms: N_5  and  C_6
REMARK    6  A    between atoms: C_8  and  C_9
REMARK    7  A    between atoms: C_14  and  C_15
REMARK    8  A    between atoms: N_21  and  C_22
REMARK    9  A    between atoms: C_22  and  C_23
REMARK   10  A    between atoms: C_23  and  C_24
REMARK   11  A    between atoms: C_24  and  N_25
REMARK   12  A    between atoms: C_30  and  C_31
REMARK                            x       y       z     vdW  Elec       q    Type
REMARK                         _______ _______ _______ _____ _____    ______ ____
ROOT
ATOM      1  C   UNL     1       6.953   5.386  16.498  0.00  0.00    +0.000 A 
ATOM      2  N   UNL     1       7.608   6.587  16.606  0.00  0.00    +0.000 NA
ATOM      3  C   UNL     1       7.077   7.588  17.323  0.00  0.00    +0.000 A 
ATOM      4  C   UNL     1       7.808   8.887  17.451  0.00  0.00    +0.000 C 
ATOM      5  N   UNL     1       5.926   7.527  17.977  0.00  0.00    +0.000 NA
ATOM      6  C   UNL     1       5.313   6.344  17.888  0.00  0.00    +0.000 A 
ATOM      7  C   UNL     1       5.726   5.235  17.194  0.00  0.00    +0.000 A 
ATOM      8  N   UNL     1       4.798   4.207  17.381  0.00  0.00    +0.000 NA
ATOM      9  C   UNL     1       3.843   4.681  18.197  0.00  0.00    +0.000 A 
ATOM     10  N   UNL     1       4.147   6.004  18.507  0.00  0.00    +0.000 N 
ENDROOT
BRANCH   9  11
ATOM     11  C   UNL     1       2.665   3.897  18.711  0.00  0.00    +0.000 A 
ATOM     12  C   UNL     1       1.961   3.046  17.848  0.00  0.00    +0.000 A 
ATOM     13  C   UNL     1       0.879   2.265  18.299  0.00  0.00    +0.000 A 
ATOM     14  C   UNL     1       0.460   2.311  19.628  0.00  0.00    +0.000 A 
ATOM     15  C   UNL     1       1.124   3.149  20.500  0.00  0.00    +0.000 A 
ATOM     16  C   UNL     1       2.198   3.925  20.043  0.00  0.00    +0.000 A 
ENDBRANCH   9  11
BRANCH   1  17
ATOM     17  N   UNL     1       7.536   4.388  15.717  0.00  0.00    +0.000 N 
ATOM     18  H   UNL     1       8.456   4.120  16.049  0.00  0.00    +0.000 HD
BRANCH  17  19
ATOM     19  C   UNL     1       7.342   4.551  14.276  0.00  0.00    +0.000 C 
BRANCH  19  20
ATOM     20  C   UNL     1       6.057   3.874  13.793  0.00  0.00    +0.000 C 
BRANCH  20  22
ATOM     21  C   UNL     1       4.961   3.163  11.830  0.00  0.00    +0.000 C 
ATOM     22  O   UNL     1       6.211   3.429  12.444  0.00  0.00    +0.000 OA
ENDBRANCH  20  22
ENDBRANCH  19  20
ENDBRANCH  17  19
ENDBRANCH   1  17
BRANCH  10  23
ATOM     23  C   UNL     1       3.431   6.883  19.403  0.00  0.00    +0.000 C 
BRANCH  23  24
ATOM     24  C   UNL     1       2.177   7.592  18.900  0.00  0.00    +0.000 C 
BRANCH  24  25
ATOM     25  C   UNL     1       1.564   8.458  19.984  0.00  0.00    +0.000 C 
BRANCH  25  26
ATOM     26  N   UNL     1       1.602   9.902  19.678  0.00  0.00    +0.000 NA
ATOM     27  C   UNL     1       1.130  10.236  18.317  0.00  0.00    +0.000 C 
ATOM     28  C   UNL     1      -0.356   9.961  18.109  0.00  0.00    +0.000 C 
ATOM     29  C   UNL     1      -1.208  10.640  19.178  0.00  0.00    +0.000 C 
ATOM     30  C   UNL     1      -0.670  10.400  20.588  0.00  0.00    +0.000 C 
ATOM     31  C   UNL     1       0.844  10.653  20.701  0.00  0.00    +0.000 C 
ATOM     32  C   UNL     1       1.186  12.148  20.650  0.00  0.00    +0.000 C 
ENDBRANCH  25  26
ENDBRANCH  24  25
ENDBRANCH  23  24
ENDBRANCH  10  23
TORSDOF 9
ENDMDL
MODEL 5
REMARK VINA RESULT:      -6.9      0.899      1.351
REMARK  Name = 
REMARK  12 active torsions:
REMARK  status: ('A' for Active; 'I' for Inactive)
REMARK    1  A    between atoms: C_1  and  O_2
REMARK    2  A    between atoms: O_2  and  C_3
REMARK    3  A    between atoms: C_3  and  C_4
REMARK    4  A    between atoms: C_4  and  N_5
REMARK    5  A    between atoms: N_5  and  C_6
REMARK    6  A    between atoms: C_8  and  C_9
REMARK    7  A    between atoms: C_14  and  C_15
REMARK    8  A    between atoms: N_21  and  C_22
REMARK    9  A    between atoms: C_22  and  C_23
REMARK   10  A    between atoms: C_23  and  C_24
REMARK   11  A    between atoms: C_24  and  N_25
REMARK   12  A    between atoms: C_30  and  C_31
REMARK                            x       y       z     vdW  Elec       q    Type
REMARK                         _______ _______ _______ _____ _____    ______ ____
ROOT
ATOM      1  C   UNL     1       0.440  10.115  21.181  0.00  0.00    +0.000 A 
ATOM      2  N   UNL     1       0.524  11.224  20.376  0.00  0.00    +0.000 NA
ATOM      3  C   UNL     1       1.138  11.154  19.187  0.00  0.00    +0.000 A 
ATOM      4  C   UNL     1       1.207  12.362  18.307  0.00  0.00    +0.000 C 
ATOM      5  N   UNL     1       1.695  10.062  18.682  0.00  0.00    +0.000 NA
ATOM      6  C   UNL     1       1.581   8.984  19.461  0.00  0.00    +0.000 A 
ATOM      7  C   UNL     1       0.990   8.901  20.696  0.00  0.00    +0.000 A 
ATOM      8  N   UNL     1       1.076   7.584  21.157  0.00  0.00    +0.000 NA
ATOM      9  C   UNL     1       1.695   6.872  20.202  0.00  0.00    +0.000 A 
ATOM     10  N   UNL     1       2.020   7.731  19.156  0.00  0.00    +0.000 N 
ENDROOT
BRANCH   9  11
ATOM     11  C   UNL     1       1.959   5.390  20.249  0.00  0.00    +0.000 A 
ATOM     12  C   UNL     1       3.270   4.910  20.139  0.00  0.00    +0.000 A 
ATOM     13  C   UNL     1       3.563   3.534  20.220  0.00  0.00    +0.000 A 
ATOM     14  C   UNL     1       2.554   2.591  20.410  0.00  0.00    +0.000 A 
ATOM     15  C   UNL     1       1.250   3.031  20.509  0.00  0.00    +0.000 A 
ATOM     16  C   UNL     1       0.966   4.402  20.424  0.00  0.00    +0.000 A 
ENDBRANCH   9  11
BRANCH   1  17
ATOM     17  N   UNL     1      -0.185  10.250  22.421  0.00  0.00    +0.000 N 
ATOM     18  H   UNL     1      -0.740   9.438  22.669  0.00  0.00    +0.000 HD
BRANCH  17  19
ATOM     19  C   UNL     1      -0.748  11.576  22.678  0.00  0.00    +0.000 C 
BRANCH  19  20
ATOM     20  C   UNL     1      -2.143  11.493  23.302  0.00  0.00    +0.000 C 
BRANCH  20  22
ATOM     21  C   UNL     1      -2.444  13.556  22.201  0.00  0.00    +0.000 C 
ATOM     22  O   UNL     1      -2.735  12.793  23.360  0.00  0.00    +0.000 OA
ENDBRANCH  20  22
ENDBRANCH  19  20
ENDBRANCH  17  19
ENDBRANCH   1  17
BRANCH  10  23
ATOM     23  C   UNL     1       2.636   7.384  17.894  0.00  0.00    +0.000 C 
BRANCH  23  24
ATOM     24  C   UNL     1       4.124   7.655  17.698  0.00  0.00    +0.000 C 
BRANCH  24  25
ATOM     25  C   UNL     1       4.717   6.727  16.653  0.00  0.00    +0.000 C 
BRANCH  25  26
ATOM     26  N   UNL     1       5.383   5.541  17.226  0.00  0.00    +0.000 NA
ATOM     27  C   UNL     1       4.788   4.257  16.798  0.00  0.00    +0.000 C 
ATOM     28  C   UNL     1       4.974   3.972  15.311  0.00  0.00    +0.000 C 
ATOM     29  C   UNL     1       6.441   4.072  14.899  0.00  0.00    +0.000 C 
ATOM     30  C   UNL     1       7.107   5.342  15.430  0.00  0.00    +0.000 C 
ATOM     31  C   UNL     1       6.830   5.582  16.925  0.00  0.00    +0.000 C 
ATOM     32  C   UNL     1       7.605   4.606  17.820  0.00  0.00    +0.000 C 
ENDBRANCH  25  26
ENDBRANCH  24  25
ENDBRANCH  23  24
ENDBRANCH  10  23
TORSDOF 9
ENDMDL
MODEL 6
REMARK VINA RESULT:      -6.9      2.862      8.159
REMARK  Name = 
REMARK  12 active torsions:
REMARK  status: ('A' for Active; 'I' for Inactive)
REMARK    1  A    between atoms: C_1  and  O_2
REMARK    2  A    between atoms: O_2  and  C_3
REMARK    3  A    between atoms: C_3  and  C_4
REMARK    4  A    between atoms: C_4  and  N_5
REMARK    5  A    between atoms: N_5  and  C_6
REMARK    6  A    between atoms: C_8  and  C_9
REMARK    7  A    between atoms: C_14  and  C_15
REMARK    8  A    between atoms: N_21  and  C_22
REMARK    9  A    between atoms: C_22  and  C_23
REMARK   10  A    between atoms: C_23  and  C_24
REMARK   11  A    between atoms: C_24  and  N_25
REMARK   12  A    between atoms: C_30  and  C_31
REMARK                            x       y       z     vdW  Elec       q    Type
REMARK                         _______ _______ _______ _____ _____    ______ ____
ROOT
ATOM      1  C   UNL     1       2.664   6.278  19.917  0.00  0.00    +0.000 A 
ATOM      2  N   UNL     1       3.517   6.037  18.868  0.00  0.00    +0.000 NA
ATOM      3  C   UNL     1       3.621   6.916  17.861  0.00  0.00    +0.000 A 
ATOM      4  C   UNL     1       4.567   6.653  16.733  0.00  0.00    +0.000 C 
ATOM      5  N   UNL     1       2.953   8.057  17.776  0.00  0.00    +0.000 NA
ATOM      6  C   UNL     1       2.150   8.295  18.816  0.00  0.00    +0.000 A 
ATOM      7  C   UNL     1       1.935   7.495  19.910  0.00  0.00    +0.000 A 
ATOM      8  N   UNL     1       1.031   8.127  20.768  0.00  0.00    +0.000 NA
ATOM      9  C   UNL     1       0.717   9.307  20.211  0.00  0.00    +0.000 A 
ATOM     10  N   UNL     1       1.395   9.414  19.000  0.00  0.00    +0.000 N 
ENDROOT
BRANCH   9  11
ATOM     11  C   UNL     1      -0.190  10.346  20.816  0.00  0.00    +0.000 A 
ATOM     12  C   UNL     1      -0.167  10.574  22.198  0.00  0.00    +0.000 A 
ATOM     13  C   UNL     1      -0.969  11.565  22.797  0.00  0.00    +0.000 A 
ATOM     14  C   UNL     1      -1.826  12.359  22.036  0.00  0.00    +0.000 A 
ATOM     15  C   UNL     1      -1.881  12.149  20.673  0.00  0.00    +0.000 A 
ATOM     16  C   UNL     1      -1.082  11.159  20.085  0.00  0.00    +0.000 A 
ENDBRANCH   9  11
BRANCH   1  17
ATOM     17  N   UNL     1       2.574   5.317  20.923  0.00  0.00    +0.000 N 
ATOM     18  H   UNL     1       3.216   5.492  21.689  0.00  0.00    +0.000 HD
BRANCH  17  19
ATOM     19  C   UNL     1       2.429   3.943  20.443  0.00  0.00    +0.000 C 
BRANCH  19  20
ATOM     20  C   UNL     1       0.960   3.555  20.257  0.00  0.00    +0.000 C 
BRANCH  20  22
ATOM     21  C   UNL     1       1.951   2.505  18.393  0.00  0.00    +0.000 C 
ATOM     22  O   UNL     1       0.753   3.025  18.946  0.00  0.00    +0.000 OA
ENDBRANCH  20  22
ENDBRANCH  19  20
ENDBRANCH  17  19
ENDBRANCH   1  17
BRANCH  10  23
ATOM     23  C   UNL     1       1.405  10.543  18.095  0.00  0.00    +0.000 C 
BRANCH  23  24
ATOM     24  C   UNL     1       2.217  11.780  18.465  0.00  0.00    +0.000 C 
BRANCH  24  25
ATOM     25  C   UNL     1       1.411  13.048  18.253  0.00  0.00    +0.000 C 
BRANCH  25  26
ATOM     26  N   UNL     1       2.085  14.266  18.747  0.00  0.00    +0.000 NA
ATOM     27  C   UNL     1       1.197  15.445  18.833  0.00  0.00    +0.000 C 
ATOM     28  C   UNL     1       0.104  15.302  19.888  0.00  0.00    +0.000 C 
ATOM     29  C   UNL     1       0.684  14.939  21.252  0.00  0.00    +0.000 C 
ATOM     30  C   UNL     1       1.692  13.793  21.168  0.00  0.00    +0.000 C 
ATOM     31  C   UNL     1       2.730  13.991  20.048  0.00  0.00    +0.000 C 
ATOM     32  C   UNL     1       3.753  15.081  20.394  0.00  0.00    +0.000 C 
ENDBRANCH  25  26
ENDBRANCH  24  25
ENDBRANCH  23  24
ENDBRANCH  10  23
TORSDOF 9
ENDMDL
MODEL 7
REMARK VINA RESULT:      -6.8      2.882      7.833
REMARK  Name = 
REMARK  12 active torsions:
REMARK  status: ('A' for Active; 'I' for Inactive)
REMARK    1  A    between atoms: C_1  and  O_2
REMARK    2  A    between atoms: O_2  and  C_3
REMARK    3  A    between atoms: C_3  and  C_4
REMARK    4  A    between atoms: C_4  and  N_5
REMARK    5  A    between atoms: N_5  and  C_6
REMARK    6  A    between atoms: C_8  and  C_9
REMARK    7  A    between atoms: C_14  and  C_15
REMARK    8  A    between atoms: N_21  and  C_22
REMARK    9  A    between atoms: C_22  and  C_23
REMARK   10  A    between atoms: C_23  and  C_24
REMARK   11  A    between atoms: C_24  and  N_25
REMARK   12  A    between atoms: C_30  and  C_31
REMARK                            x       y       z     vdW  Elec       q    Type
REMARK                         _______ _______ _______ _____ _____    ______ ____
ROOT
ATOM      1  C   UNL     1       4.092   4.443  18.680  0.00  0.00    +0.000 A 
ATOM      2  N   UNL     1       4.780   4.542  17.496  0.00  0.00    +0.000 NA
ATOM      3  C   UNL     1       4.699   5.656  16.754  0.00  0.00    +0.000 A 
ATOM      4  C   UNL     1       5.468   5.763  15.476  0.00  0.00    +0.000 C 
ATOM      5  N   UNL     1       3.989   6.729  17.070  0.00  0.00    +0.000 NA
ATOM      6  C   UNL     1       3.348   6.632  18.238  0.00  0.00    +0.000 A 
ATOM      7  C   UNL     1       3.330   5.564  19.098  0.00  0.00    +0.000 A 
ATOM      8  N   UNL     1       2.549   5.887  20.212  0.00  0.00    +0.000 NA
ATOM      9  C   UNL     1       2.114   7.144  20.038  0.00  0.00    +0.000 A 
ATOM     10  N   UNL     1       2.594   7.609  18.816  0.00  0.00    +0.000 N 
ENDROOT
BRANCH   9  11
ATOM     11  C   UNL     1       1.278   7.923  21.017  0.00  0.00    +0.000 A 
ATOM     12  C   UNL     1       1.899   8.720  21.989  0.00  0.00    +0.000 A 
ATOM     13  C   UNL     1       1.152   9.496  22.896  0.00  0.00    +0.000 A 
ATOM     14  C   UNL     1      -0.242   9.499  22.868  0.00  0.00    +0.000 A 
ATOM     15  C   UNL     1      -0.884   8.715  21.932  0.00  0.00    +0.000 A 
ATOM     16  C   UNL     1      -0.134   7.943  21.033  0.00  0.00    +0.000 A 
ENDBRANCH   9  11
BRANCH   1  17
ATOM     17  N   UNL     1       4.190   3.251  19.398  0.00  0.00    +0.000 N 
ATOM     18  H   UNL     1       5.063   3.173  19.907  0.00  0.00    +0.000 HD
BRANCH  17  19
ATOM     19  C   UNL     1       3.695   2.071  18.688  0.00  0.00    +0.000 C 
BRANCH  19  20
ATOM     20  C   UNL     1       2.322   2.318  18.057  0.00  0.00    +0.000 C 
BRANCH  20  22
ATOM     21  C   UNL     1       0.708   2.935  19.661  0.00  0.00    +0.000 C 
ATOM     22  O   UNL     1       1.289   1.865  18.934  0.00  0.00    +0.000 OA
ENDBRANCH  20  22
ENDBRANCH  19  20
ENDBRANCH  17  19
ENDBRANCH   1  17
BRANCH  10  23
ATOM     23  C   UNL     1       2.427   8.930  18.251  0.00  0.00    +0.000 C 
BRANCH  23  24
ATOM     24  C   UNL     1       1.017   9.461  18.014  0.00  0.00    +0.000 C 
BRANCH  24  25
ATOM     25  C   UNL     1       0.949  10.959  18.243  0.00  0.00    +0.000 C 
BRANCH  25  26
ATOM     26  N   UNL     1       0.378  11.331  19.553  0.00  0.00    +0.000 NA
ATOM     27  C   UNL     1       1.319  12.063  20.428  0.00  0.00    +0.000 C 
ATOM     28  C   UNL     1       1.686  13.445  19.898  0.00  0.00    +0.000 C 
ATOM     29  C   UNL     1       0.444  14.279  19.594  0.00  0.00    +0.000 C 
ATOM     30  C   UNL     1      -0.593  13.500  18.784  0.00  0.00    +0.000 C 
ATOM     31  C   UNL     1      -0.870  12.099  19.357  0.00  0.00    +0.000 C 
ATOM     32  C   UNL     1      -1.688  12.156  20.654  0.00  0.00    +0.000 C 
ENDBRANCH  25  26
ENDBRANCH  24  25
ENDBRANCH  23  24
ENDBRANCH  10  23
TORSDOF 9
ENDMDL
MODEL 8
REMARK VINA RESULT:      -6.7      2.859      7.840
REMARK  Name = 
REMARK  12 active torsions:
REMARK  status: ('A' for Active; 'I' for Inactive)
REMARK    1  A    between atoms: C_1  and  O_2
REMARK    2  A    between atoms: O_2  and  C_3
REMARK    3  A    between atoms: C_3  and  C_4
REMARK    4  A    between atoms: C_4  and  N_5
REMARK    5  A    between atoms: N_5  and  C_6
REMARK    6  A    between atoms: C_8  and  C_9
REMARK    7  A    between atoms: C_14  and  C_15
REMARK    8  A    between atoms: N_21  and  C_22
REMARK    9  A    between atoms: C_22  and  C_23
REMARK   10  A    between atoms: C_23  and  C_24
REMARK   11  A    between atoms: C_24  and  N_25
REMARK   12  A    between atoms: C_30  and  C_31
REMARK                            x       y       z     vdW  Elec       q    Type
REMARK                         _______ _______ _______ _____ _____    ______ ____
ROOT
ATOM      1  C   UNL     1       4.027   4.606  18.632  0.00  0.00    +0.000 A 
ATOM      2  N   UNL     1       4.705   4.738  17.446  0.00  0.00    +0.000 NA
ATOM      3  C   UNL     1       4.615   5.870  16.734  0.00  0.00    +0.000 A 
ATOM      4  C   UNL     1       5.374   6.011  15.453  0.00  0.00    +0.000 C 
ATOM      5  N   UNL     1       3.904   6.932  17.083  0.00  0.00    +0.000 NA
ATOM      6  C   UNL     1       3.273   6.803  18.252  0.00  0.00    +0.000 A 
ATOM      7  C   UNL     1       3.265   5.714  19.086  0.00  0.00    +0.000 A 
ATOM      8  N   UNL     1       2.492   6.006  20.213  0.00  0.00    +0.000 NA
ATOM      9  C   UNL     1       2.052   7.266  20.074  0.00  0.00    +0.000 A 
ATOM     10  N   UNL     1       2.520   7.763  18.861  0.00  0.00    +0.000 N 
ENDROOT
BRANCH   9  11
ATOM     11  C   UNL     1       1.221   8.018  21.080  0.00  0.00    +0.000 A 
ATOM     12  C   UNL     1       1.840   8.880  21.994  0.00  0.00    +0.000 A 
ATOM     13  C   UNL     1       1.095   9.632  22.923  0.00  0.00    +0.000 A 
ATOM     14  C   UNL     1      -0.295   9.545  22.974  0.00  0.00    +0.000 A 
ATOM     15  C   UNL     1      -0.935   8.694  22.095  0.00  0.00    +0.000 A 
ATOM     16  C   UNL     1      -0.186   7.947  21.175  0.00  0.00    +0.000 A 
ENDBRANCH   9  11
BRANCH   1  17
ATOM     17  N   UNL     1       4.133   3.397  19.319  0.00  0.00    +0.000 N 
ATOM     18  H   UNL     1       4.985   3.332  19.865  0.00  0.00    +0.000 HD
BRANCH  17  19
ATOM     19  C   UNL     1       3.711   2.223  18.554  0.00  0.00    +0.000 C 
BRANCH  19  20
ATOM     20  C   UNL     1       2.288   1.790  18.913  0.00  0.00    +0.000 C 
BRANCH  20  22
ATOM     21  C   UNL     1       0.702   3.102  20.064  0.00  0.00    +0.000 C 
ATOM     22  O   UNL     1       1.903   2.355  20.168  0.00  0.00    +0.000 OA
ENDBRANCH  20  22
ENDBRANCH  19  20
ENDBRANCH  17  19
ENDBRANCH   1  17
BRANCH  10  23
ATOM     23  C   UNL     1       2.346   9.098  18.331  0.00  0.00    +0.000 C 
BRANCH  23  24
ATOM     24  C   UNL     1       0.977   9.509  17.799  0.00  0.00    +0.000 C 
BRANCH  24  25
ATOM     25  C   UNL     1       0.210  10.321  18.826  0.00  0.00    +0.000 C 
BRANCH  25  26
ATOM     26  N   UNL     1       0.098  11.753  18.483  0.00  0.00    +0.000 NA
ATOM     27  C   UNL     1      -1.290  12.262  18.494  0.00  0.00    +0.000 C 
ATOM     28  C   UNL     1      -1.918  12.273  19.885  0.00  0.00    +0.000 C 
ATOM     29  C   UNL     1      -1.043  13.017  20.890  0.00  0.00    +0.000 C 
ATOM     30  C   UNL     1       0.422  12.584  20.816  0.00  0.00    +0.000 C 
ATOM     31  C   UNL     1       0.964  12.552  19.376  0.00  0.00    +0.000 C 
ATOM     32  C   UNL     1       1.183  13.961  18.809  0.00  0.00    +0.000 C 
ENDBRANCH  25  26
ENDBRANCH  24  25
ENDBRANCH  23  24
ENDBRANCH  10  23
TORSDOF 9
ENDMDL
MODEL 9
REMARK VINA RESULT:      -6.7      2.999      8.303
REMARK  Name = 
REMARK  12 active torsions:
REMARK  status: ('A' for Active; 'I' for Inactive)
REMARK    1  A    between atoms: C_1  and  O_2
REMARK    2  A    between atoms: O_2  and  C_3
REMARK    3  A    between atoms: C_3  and  C_4
REMARK    4  A    between atoms: C_4  and  N_5
REMARK    5  A    between atoms: N_5  and  C_6
REMARK    6  A    between atoms: C_8  and  C_9
REMARK    7  A    between atoms: C_14  and  C_15
REMARK    8  A    between atoms: N_21  and  C_22
REMARK    9  A    between atoms: C_22  and  C_23
REMARK   10  A    between atoms: C_23  and  C_24
REMARK   11  A    between atoms: C_24  and  N_25
REMARK   12  A    between atoms: C_30  and  C_31
REMARK                            x       y       z     vdW  Elec       q    Type
REMARK                         _______ _______ _______ _____ _____    ______ ____
ROOT
ATOM      1  C   UNL     1       2.539   6.319  19.998  0.00  0.00    +0.000 A 
ATOM      2  N   UNL     1       3.418   5.979  19.000  0.00  0.00    +0.000 NA
ATOM      3  C   UNL     1       3.600   6.791  17.949  0.00  0.00    +0.000 A 
ATOM      4  C   UNL     1       4.575   6.422  16.877  0.00  0.00    +0.000 C 
ATOM      5  N   UNL     1       2.989   7.954  17.772  0.00  0.00    +0.000 NA
ATOM      6  C   UNL     1       2.159   8.287  18.764  0.00  0.00    +0.000 A 
ATOM      7  C   UNL     1       1.866   7.564  19.892  0.00  0.00    +0.000 A 
ATOM      8  N   UNL     1       0.960   8.285  20.675  0.00  0.00    +0.000 NA
ATOM      9  C   UNL     1       0.722   9.442  20.039  0.00  0.00    +0.000 A 
ATOM     10  N   UNL     1       1.450   9.448  18.851  0.00  0.00    +0.000 N 
ENDROOT
BRANCH   9  11
ATOM     11  C   UNL     1      -0.158  10.553  20.546  0.00  0.00    +0.000 A 
ATOM     12  C   UNL     1       0.066  11.099  21.817  0.00  0.00    +0.000 A 
ATOM     13  C   UNL     1      -0.708  12.167  22.310  0.00  0.00    +0.000 A 
ATOM     14  C   UNL     1      -1.738  12.724  21.553  0.00  0.00    +0.000 A 
ATOM     15  C   UNL     1      -1.993  12.199  20.302  0.00  0.00    +0.000 A 
ATOM     16  C   UNL     1      -1.219  11.135  19.818  0.00  0.00    +0.000 A 
ENDBRANCH   9  11
BRANCH   1  17
ATOM     17  N   UNL     1       2.366   5.425  21.054  0.00  0.00    +0.000 N 
ATOM     18  H   UNL     1       3.165   5.399  21.678  0.00  0.00    +0.000 HD
BRANCH  17  19
ATOM     19  C   UNL     1       1.738   4.157  20.682  0.00  0.00    +0.000 C 
BRANCH  19  20
ATOM     20  C   UNL     1       2.010   3.061  21.715  0.00  0.00    +0.000 C 
BRANCH  20  22
ATOM     21  C   UNL     1       3.607   2.391  20.115  0.00  0.00    +0.000 C 
ATOM     22  O   UNL     1       3.301   2.488  21.496  0.00  0.00    +0.000 OA
ENDBRANCH  20  22
ENDBRANCH  19  20
ENDBRANCH  17  19
ENDBRANCH   1  17
BRANCH  10  23
ATOM     23  C   UNL     1       1.545  10.519  17.885  0.00  0.00    +0.000 C 
BRANCH  23  24
ATOM     24  C   UNL     1       2.425  11.724  18.201  0.00  0.00    +0.000 C 
BRANCH  24  25
ATOM     25  C   UNL     1       1.589  12.972  18.415  0.00  0.00    +0.000 C 
BRANCH  25  26
ATOM     26  N   UNL     1       2.057  13.811  19.537  0.00  0.00    +0.000 NA
ATOM     27  C   UNL     1       3.248  14.626  19.216  0.00  0.00    +0.000 C 
ATOM     28  C   UNL     1       2.977  15.707  18.174  0.00  0.00    +0.000 C 
ATOM     29  C   UNL     1       1.790  16.583  18.568  0.00  0.00    +0.000 C 
ATOM     30  C   UNL     1       0.582  15.758  19.013  0.00  0.00    +0.000 C 
ATOM     31  C   UNL     1       0.949  14.659  20.026  0.00  0.00    +0.000 C 
ATOM     32  C   UNL     1       1.270  15.235  21.412  0.00  0.00    +0.000 C 
ENDBRANCH  25  26
ENDBRANCH  24  25
ENDBRANCH  23  24
ENDBRANCH  10  23
TORSDOF 9
ENDMDL
