MODEL 1
REMARK VINA RESULT:      -7.6      0.000      0.000
REMARK  Name = 
REMARK  9 active torsions:
REMARK  status: ('A' for Active; 'I' for Inactive)
REMARK    1  A    between atoms: C_1  and  C_2
REMARK    2  A    between atoms: C_2  and  C_3
REMARK    3  A    between atoms: C_3  and  C_4
REMARK    4  A    between atoms: C_3  and  C_5
REMARK    5  A    between atoms: C_5  and  C_6
REMARK    6  A    between atoms: C_6  and  C_7
REMARK    7  A    between atoms: C_10  and  O_11
REMARK    8  A    between atoms: O_11  and  C_12
REMARK    9  A    between atoms: C_18  and  C_19
REMARK                            x       y       z     vdW  Elec       q    Type
REMARK                         _______ _______ _______ _____ _____    ______ ____
ROOT
ATOM      1  C   UNL     1       6.150   5.107  15.782  0.00  0.00    +0.000 A 
ATOM      2  C   UNL     1       6.687   4.397  16.850  0.00  0.00    +0.000 A 
ATOM      3  N   UNL     1       6.192   4.472  18.100  0.00  0.00    +0.000 NA
ATOM      4  C   UNL     1       5.174   5.349  18.288  0.00  0.00    +0.000 A 
ATOM      5  C   UNL     1       4.673   6.134  17.247  0.00  0.00    +0.000 A 
ATOM      6  C   UNL     1       3.637   7.193  17.466  0.00  0.00    +0.000 C 
ATOM      7  N   UNL     1       5.149   6.006  15.974  0.00  0.00    +0.000 NA
ENDROOT
BRANCH   1   8
ATOM      8  C   UNL     1       6.600   4.827  14.374  0.00  0.00    +0.000 C 
BRANCH   8   9
ATOM      9  C   UNL     1       5.869   3.633  13.723  0.00  0.00    +0.000 C 
BRANCH   9  10
ATOM     10  C   UNL     1       5.893   3.604  12.174  0.00  0.00    +0.000 C 
ATOM     11  C   UNL     1       4.516   3.217  11.618  0.00  0.00    +0.000 C 
BRANCH  10  13
ATOM     12  C   UNL     1       6.445   1.358  11.073  0.00  0.00    +0.000 C 
ATOM     13  C   UNL     1       6.986   2.649  11.659  0.00  0.00    +0.000 C 
ENDBRANCH  10  13
ENDBRANCH   9  10
ENDBRANCH   8   9
ENDBRANCH   1   8
BRANCH   4  14
ATOM     14  O   UNL     1       4.581   5.432  19.542  0.00  0.00    +0.000 OA
BRANCH  14  15
ATOM     15  C   UNL     1       3.463   4.656  19.775  0.00  0.00    +0.000 A 
ATOM     16  C   UNL     1       3.459   3.276  19.568  0.00  0.00    +0.000 A 
ATOM     17  C   UNL     1       2.303   2.530  19.809  0.00  0.00    +0.000 A 
ATOM     18  C   UNL     1       1.170   3.159  20.314  0.00  0.00    +0.000 A 
ATOM     19  C   UNL     1       1.183   4.533  20.572  0.00  0.00    +0.000 A 
ATOM     20  C   UNL     1       2.327   5.282  20.308  0.00  0.00    +0.000 A 
ENDBRANCH  14  15
ENDBRANCH   4  14
TORSDOF 6
ENDMDL
MODEL 2
REMARK VINA RESULT:      -7.6      0.190      1.091
REMARK  Name = 
REMARK  9 active torsions:
REMARK  status: ('A' for Active; 'I' for Inactive)
REMARK    1  A    between atoms: C_1  and  C_2
REMARK    2  A    between atoms: C_2  and  C_3
REMARK    3  A    between atoms: C_3  and  C_4
REMARK    4  A    between atoms: C_3  and  C_5
REMARK    5  A    between atoms: C_5  and  C_6
REMARK    6  A    between atoms: C_6  and  C_7
REMARK    7  A    between atoms: C_10  and  O_11
REMARK    8  A    between atoms: O_11  and  C_12
REMARK    9  A    between atoms: C_18  and  C_19
REMARK                            x       y       z     vdW  Elec       q    Type
REMARK                         _______ _______ _______ _____ _____    ______ ____
ROOT
ATOM      1  C   UNL     1       6.069   5.186  15.730  0.00  0.00    +0.000 A 
ATOM      2  C   UNL     1       6.592   4.405  16.755  0.00  0.00    +0.000 A 
ATOM      3  N   UNL     1       6.110   4.429  18.012  0.00  0.00    +0.000 NA
ATOM      4  C   UNL     1       5.121   5.326  18.255  0.00  0.00    +0.000 A 
ATOM      5  C   UNL     1       4.636   6.178  17.261  0.00  0.00    +0.000 A 
ATOM      6  C   UNL     1       3.635   7.255  17.544  0.00  0.00    +0.000 C 
ATOM      7  N   UNL     1       5.098   6.103  15.979  0.00  0.00    +0.000 NA
ENDROOT
BRANCH   1   8
ATOM      8  C   UNL     1       6.499   4.966  14.306  0.00  0.00    +0.000 C 
BRANCH   8   9
ATOM      9  C   UNL     1       6.023   3.618  13.722  0.00  0.00    +0.000 C 
BRANCH   9  10
ATOM     10  C   UNL     1       5.963   3.548  12.175  0.00  0.00    +0.000 C 
ATOM     11  C   UNL     1       4.529   3.279  11.701  0.00  0.00    +0.000 C 
BRANCH  10  13
ATOM     12  C   UNL     1       6.248   1.217  11.151  0.00  0.00    +0.000 C 
ATOM     13  C   UNL     1       6.934   2.482  11.635  0.00  0.00    +0.000 C 
ENDBRANCH  10  13
ENDBRANCH   9  10
ENDBRANCH   8   9
ENDBRANCH   1   8
BRANCH   4  14
ATOM     14  O   UNL     1       4.541   5.360  19.517  0.00  0.00    +0.000 OA
BRANCH  14  15
ATOM     15  C   UNL     1       3.399   4.611  19.718  0.00  0.00    +0.000 A 
ATOM     16  C   UNL     1       2.257   5.142  20.321  0.00  0.00    +0.000 A 
ATOM     17  C   UNL     1       1.126   4.347  20.511  0.00  0.00    +0.000 A 
ATOM     18  C   UNL     1       1.118   3.036  20.045  0.00  0.00    +0.000 A 
ATOM     19  C   UNL     1       2.240   2.514  19.395  0.00  0.00    +0.000 A 
ATOM     20  C   UNL     1       3.377   3.298  19.227  0.00  0.00    +0.000 A 
ENDBRANCH  14  15
ENDBRANCH   4  14
TORSDOF 6
ENDMDL
MODEL 3
REMARK VINA RESULT:      -7.4      3.799      5.955
REMARK  Name = 
REMARK  9 active torsions:
REMARK  status: ('A' for Active; 'I' for Inactive)
REMARK    1  A    between atoms: C_1  and  C_2
REMARK    2  A    between atoms: C_2  and  C_3
REMARK    3  A    between atoms: C_3  and  C_4
REMARK    4  A    between atoms: C_3  and  C_5
REMARK    5  A    between atoms: C_5  and  C_6
REMARK    6  A    between atoms: C_6  and  C_7
REMARK    7  A    between atoms: C_10  and  O_11
REMARK    8  A    between atoms: O_11  and  C_12
REMARK    9  A    between atoms: C_18  and  C_19
REMARK                            x       y       z     vdW  Elec       q    Type
REMARK                         _______ _______ _______ _____ _____    ______ ____
ROOT
ATOM      1  C   UNL     1       7.394   6.804  18.145  0.00  0.00    +0.000 A 
ATOM      2  C   UNL     1       7.064   5.797  19.045  0.00  0.00    +0.000 A 
ATOM      3  N   UNL     1       6.333   4.720  18.702  0.00  0.00    +0.000 NA
ATOM      4  C   UNL     1       5.857   4.702  17.431  0.00  0.00    +0.000 A 
ATOM      5  C   UNL     1       6.107   5.742  16.534  0.00  0.00    +0.000 A 
ATOM      6  C   UNL     1       5.487   5.794  15.172  0.00  0.00    +0.000 C 
ATOM      7  N   UNL     1       6.896   6.800  16.881  0.00  0.00    +0.000 NA
ENDROOT
BRANCH   1   8
ATOM      8  C   UNL     1       8.387   7.870  18.520  0.00  0.00    +0.000 C 
BRANCH   8   9
ATOM      9  C   UNL     1       8.067   9.250  17.903  0.00  0.00    +0.000 C 
BRANCH   9  10
ATOM     10  C   UNL     1       9.064  10.382  18.256  0.00  0.00    +0.000 C 
ATOM     11  C   UNL     1       9.335  10.413  19.766  0.00  0.00    +0.000 C 
BRANCH  10  13
ATOM     12  C   UNL     1       9.510  12.892  18.003  0.00  0.00    +0.000 C 
ATOM     13  C   UNL     1       8.547  11.744  17.758  0.00  0.00    +0.000 C 
ENDBRANCH  10  13
ENDBRANCH   9  10
ENDBRANCH   8   9
ENDBRANCH   1   8
BRANCH   4  14
ATOM     14  O   UNL     1       5.144   3.592  16.997  0.00  0.00    +0.000 OA
BRANCH  14  15
ATOM     15  C   UNL     1       3.867   3.416  17.492  0.00  0.00    +0.000 A 
ATOM     16  C   UNL     1       3.457   2.222  18.087  0.00  0.00    +0.000 A 
ATOM     17  C   UNL     1       2.154   2.084  18.569  0.00  0.00    +0.000 A 
ATOM     18  C   UNL     1       1.279   3.164  18.507  0.00  0.00    +0.000 A 
ATOM     19  C   UNL     1       1.699   4.380  17.959  0.00  0.00    +0.000 A 
ATOM     20  C   UNL     1       2.990   4.510  17.455  0.00  0.00    +0.000 A 
ENDBRANCH  14  15
ENDBRANCH   4  14
TORSDOF 6
ENDMDL
MODEL 4
REMARK VINA RESULT:      -7.4      1.683      6.963
REMARK  Name = 
REMARK  9 active torsions:
REMARK  status: ('A' for Active; 'I' for Inactive)
REMARK    1  A    between atoms: C_1  and  C_2
REMARK    2  A    between atoms: C_2  and  C_3
REMARK    3  A    between atoms: C_3  and  C_4
REMARK    4  A    between atoms: C_3  and  C_5
REMARK    5  A    between atoms: C_5  and  C_6
REMARK    6  A    between atoms: C_6  and  C_7
REMARK    7  A    between atoms: C_10  and  O_11
REMARK    8  A    between atoms: O_11  and  C_12
REMARK    9  A    between atoms: C_18  and  C_19
REMARK                            x       y       z     vdW  Elec       q    Type
REMARK                         _______ _______ _______ _____ _____    ______ ____
ROOT
ATOM      1  C   UNL     1       4.441   5.995  18.151  0.00  0.00    +0.000 A 
ATOM      2  C   UNL     1       4.374   6.688  16.948  0.00  0.00    +0.000 A 
ATOM      3  N   UNL     1       5.335   6.618  16.008  0.00  0.00    +0.000 NA
ATOM      4  C   UNL     1       6.432   5.885  16.330  0.00  0.00    +0.000 A 
ATOM      5  C   UNL     1       6.558   5.248  17.566  0.00  0.00    +0.000 A 
ATOM      6  C   UNL     1       7.811   4.541  17.982  0.00  0.00    +0.000 C 
ATOM      7  N   UNL     1       5.550   5.284  18.485  0.00  0.00    +0.000 NA
ENDROOT
BRANCH   1   8
ATOM      8  C   UNL     1       3.251   5.938  19.069  0.00  0.00    +0.000 C 
BRANCH   8   9
ATOM      9  C   UNL     1       2.160   4.952  18.598  0.00  0.00    +0.000 C 
BRANCH   9  10
ATOM     10  C   UNL     1       2.244   3.529  19.205  0.00  0.00    +0.000 C 
ATOM     11  C   UNL     1       0.954   2.745  18.929  0.00  0.00    +0.000 C 
BRANCH  10  13
ATOM     12  C   UNL     1       1.594   2.761  21.561  0.00  0.00    +0.000 C 
ATOM     13  C   UNL     1       2.542   3.592  20.715  0.00  0.00    +0.000 C 
ENDBRANCH  10  13
ENDBRANCH   9  10
ENDBRANCH   8   9
ENDBRANCH   1   8
BRANCH   4  14
ATOM     14  O   UNL     1       7.435   5.725  15.382  0.00  0.00    +0.000 OA
BRANCH  14  15
ATOM     15  C   UNL     1       7.119   5.044  14.223  0.00  0.00    +0.000 A 
ATOM     16  C   UNL     1       7.784   5.276  13.018  0.00  0.00    +0.000 A 
ATOM     17  C   UNL     1       7.427   4.570  11.868  0.00  0.00    +0.000 A 
ATOM     18  C   UNL     1       6.443   3.589  11.939  0.00  0.00    +0.000 A 
ATOM     19  C   UNL     1       5.808   3.315  13.154  0.00  0.00    +0.000 A 
ATOM     20  C   UNL     1       6.145   4.037  14.296  0.00  0.00    +0.000 A 
ENDBRANCH  14  15
ENDBRANCH   4  14
TORSDOF 6
ENDMDL
MODEL 5
REMARK VINA RESULT:      -7.3      1.314      1.634
REMARK  Name = 
REMARK  9 active torsions:
REMARK  status: ('A' for Active; 'I' for Inactive)
REMARK    1  A    between atoms: C_1  and  C_2
REMARK    2  A    between atoms: C_2  and  C_3
REMARK    3  A    between atoms: C_3  and  C_4
REMARK    4  A    between atoms: C_3  and  C_5
REMARK    5  A    between atoms: C_5  and  C_6
REMARK    6  A    between atoms: C_6  and  C_7
REMARK    7  A    between atoms: C_10  and  O_11
REMARK    8  A    between atoms: O_11  and  C_12
REMARK    9  A    between atoms: C_18  and  C_19
REMARK                            x       y       z     vdW  Elec       q    Type
REMARK                         _______ _______ _______ _____ _____    ______ ____
ROOT
ATOM      1  C   UNL     1       6.110   4.060  15.447  0.00  0.00    +0.000 A 
ATOM      2  C   UNL     1       4.875   3.672  15.953  0.00  0.00    +0.000 A 
ATOM      3  N   UNL     1       4.501   3.902  17.226  0.00  0.00    +0.000 NA
ATOM      4  C   UNL     1       5.436   4.471  18.029  0.00  0.00    +0.000 A 
ATOM      5  C   UNL     1       6.713   4.793  17.563  0.00  0.00    +0.000 A 
ATOM      6  C   UNL     1       7.792   5.306  18.467  0.00  0.00    +0.000 C 
ATOM      7  N   UNL     1       7.056   4.604  16.256  0.00  0.00    +0.000 NA
ENDROOT
BRANCH   1   8
ATOM      8  C   UNL     1       6.394   3.972  13.972  0.00  0.00    +0.000 C 
BRANCH   8   9
ATOM      9  C   UNL     1       5.117   3.933  13.104  0.00  0.00    +0.000 C 
BRANCH   9  10
ATOM     10  C   UNL     1       5.292   3.312  11.694  0.00  0.00    +0.000 C 
ATOM     11  C   UNL     1       3.939   3.208  10.978  0.00  0.00    +0.000 C 
BRANCH  10  13
ATOM     12  C   UNL     1       7.270   1.847  10.985  0.00  0.00    +0.000 C 
ATOM     13  C   UNL     1       5.980   1.937  11.781  0.00  0.00    +0.000 C 
ENDBRANCH  10  13
ENDBRANCH   9  10
ENDBRANCH   8   9
ENDBRANCH   1   8
BRANCH   4  14
ATOM     14  O   UNL     1       5.095   4.787  19.338  0.00  0.00    +0.000 OA
BRANCH  14  15
ATOM     15  C   UNL     1       3.845   4.406  19.784  0.00  0.00    +0.000 A 
ATOM     16  C   UNL     1       3.546   3.086  20.122  0.00  0.00    +0.000 A 
ATOM     17  C   UNL     1       2.266   2.743  20.563  0.00  0.00    +0.000 A 
ATOM     18  C   UNL     1       1.303   3.734  20.721  0.00  0.00    +0.000 A 
ATOM     19  C   UNL     1       1.611   5.067  20.433  0.00  0.00    +0.000 A 
ATOM     20  C   UNL     1       2.879   5.406  19.969  0.00  0.00    +0.000 A 
ENDBRANCH  14  15
ENDBRANCH   4  14
TORSDOF 6
ENDMDL
MODEL 6
REMARK VINA RESULT:      -7.3      1.647      6.975
REMARK  Name = 
REMARK  9 active torsions:
REMARK  status: ('A' for Active; 'I' for Inactive)
REMARK    1  A    between atoms: C_1  and  C_2
REMARK    2  A    between atoms: C_2  and  C_3
REMARK    3  A    between atoms: C_3  and  C_4
REMARK    4  A    between atoms: C_3  and  C_5
REMARK    5  A    between atoms: C_5  and  C_6
REMARK    6  A    between atoms: C_6  and  C_7
REMARK    7  A    between atoms: C_10  and  O_11
REMARK    8  A    between atoms: O_11  and  C_12
REMARK    9  A    between atoms: C_18  and  C_19
REMARK                            x       y       z     vdW  Elec       q    Type
REMARK                         _______ _______ _______ _____ _____    ______ ____
ROOT
ATOM      1  C   UNL     1       4.363   6.328  17.975  0.00  0.00    +0.000 A 
ATOM      2  C   UNL     1       4.384   6.902  16.709  0.00  0.00    +0.000 A 
ATOM      3  N   UNL     1       5.379   6.692  15.827  0.00  0.00    +0.000 NA
ATOM      4  C   UNL     1       6.421   5.942  16.270  0.00  0.00    +0.000 A 
ATOM      5  C   UNL     1       6.461   5.425  17.566  0.00  0.00    +0.000 A 
ATOM      6  C   UNL     1       7.656   4.703  18.107  0.00  0.00    +0.000 C 
ATOM      7  N   UNL     1       5.417   5.601  18.429  0.00  0.00    +0.000 NA
ENDROOT
BRANCH   1   8
ATOM      8  C   UNL     1       3.133   6.420  18.836  0.00  0.00    +0.000 C 
BRANCH   8   9
ATOM      9  C   UNL     1       2.152   5.246  18.631  0.00  0.00    +0.000 C 
BRANCH   9  10
ATOM     10  C   UNL     1       2.400   4.008  19.530  0.00  0.00    +0.000 C 
ATOM     11  C   UNL     1       2.912   2.827  18.696  0.00  0.00    +0.000 C 
BRANCH  10  13
ATOM     12  C   UNL     1       1.382   2.739  21.509  0.00  0.00    +0.000 C 
ATOM     13  C   UNL     1       1.125   3.627  20.305  0.00  0.00    +0.000 C 
ENDBRANCH  10  13
ENDBRANCH   9  10
ENDBRANCH   8   9
ENDBRANCH   1   8
BRANCH   4  14
ATOM     14  O   UNL     1       7.453   5.641  15.390  0.00  0.00    +0.000 OA
BRANCH  14  15
ATOM     15  C   UNL     1       7.137   4.933  14.248  0.00  0.00    +0.000 A 
ATOM     16  C   UNL     1       6.186   3.911  14.246  0.00  0.00    +0.000 A 
ATOM     17  C   UNL     1       5.901   3.216  13.069  0.00  0.00    +0.000 A 
ATOM     18  C   UNL     1       6.527   3.583  11.882  0.00  0.00    +0.000 A 
ATOM     19  C   UNL     1       7.443   4.640  11.867  0.00  0.00    +0.000 A 
ATOM     20  C   UNL     1       7.747   5.317  13.045  0.00  0.00    +0.000 A 
ENDBRANCH  14  15
ENDBRANCH   4  14
TORSDOF 6
ENDMDL
MODEL 7
REMARK VINA RESULT:      -7.3      1.692      6.710
REMARK  Name = 
REMARK  9 active torsions:
REMARK  status: ('A' for Active; 'I' for Inactive)
REMARK    1  A    between atoms: C_1  and  C_2
REMARK    2  A    between atoms: C_2  and  C_3
REMARK    3  A    between atoms: C_3  and  C_4
REMARK    4  A    between atoms: C_3  and  C_5
REMARK    5  A    between atoms: C_5  and  C_6
REMARK    6  A    between atoms: C_6  and  C_7
REMARK    7  A    between atoms: C_10  and  O_11
REMARK    8  A    between atoms: O_11  and  C_12
REMARK    9  A    between atoms: C_18  and  C_19
REMARK                            x       y       z     vdW  Elec       q    Type
REMARK                         _______ _______ _______ _____ _____    ______ ____
ROOT
ATOM      1  C   UNL     1       4.447   5.978  18.175  0.00  0.00    +0.000 A 
ATOM      2  C   UNL     1       4.385   6.720  17.000  0.00  0.00    +0.000 A 
ATOM      3  N   UNL     1       5.341   6.671  16.053  0.00  0.00    +0.000 NA
ATOM      4  C   UNL     1       6.427   5.909  16.340  0.00  0.00    +0.000 A 
ATOM      5  C   UNL     1       6.548   5.221  17.550  0.00  0.00    +0.000 A 
ATOM      6  C   UNL     1       7.792   4.479  17.930  0.00  0.00    +0.000 C 
ATOM      7  N   UNL     1       5.545   5.238  18.475  0.00  0.00    +0.000 NA
ENDROOT
BRANCH   1   8
ATOM      8  C   UNL     1       3.260   5.905  19.096  0.00  0.00    +0.000 C 
BRANCH   8   9
ATOM      9  C   UNL     1       2.023   5.241  18.451  0.00  0.00    +0.000 C 
BRANCH   9  10
ATOM     10  C   UNL     1       1.478   3.993  19.190  0.00  0.00    +0.000 C 
ATOM     11  C   UNL     1       2.190   3.808  20.536  0.00  0.00    +0.000 C 
BRANCH  10  13
ATOM     12  C   UNL     1       3.018   2.161  18.276  0.00  0.00    +0.000 C 
ATOM     13  C   UNL     1       1.612   2.733  18.315  0.00  0.00    +0.000 C 
ENDBRANCH  10  13
ENDBRANCH   9  10
ENDBRANCH   8   9
ENDBRANCH   1   8
BRANCH   4  14
ATOM     14  O   UNL     1       7.422   5.770  15.381  0.00  0.00    +0.000 OA
BRANCH  14  15
ATOM     15  C   UNL     1       7.125   5.038  14.249  0.00  0.00    +0.000 A 
ATOM     16  C   UNL     1       6.124   4.065  14.233  0.00  0.00    +0.000 A 
ATOM     17  C   UNL     1       5.861   3.343  13.068  0.00  0.00    +0.000 A 
ATOM     18  C   UNL     1       6.561   3.637  11.902  0.00  0.00    +0.000 A 
ATOM     19  C   UNL     1       7.528   4.646  11.897  0.00  0.00    +0.000 A 
ATOM     20  C   UNL     1       7.810   5.349  13.065  0.00  0.00    +0.000 A 
ENDBRANCH  14  15
ENDBRANCH   4  14
TORSDOF 6
ENDMDL
MODEL 8
REMARK VINA RESULT:      -7.3      1.561      6.722
REMARK  Name = 
REMARK  9 active torsions:
REMARK  status: ('A' for Active; 'I' for Inactive)
REMARK    1  A    between atoms: C_1  and  C_2
REMARK    2  A    between atoms: C_2  and  C_3
REMARK    3  A    between atoms: C_3  and  C_4
REMARK    4  A    between atoms: C_3  and  C_5
REMARK    5  A    between atoms: C_5  and  C_6
REMARK    6  A    between atoms: C_6  and  C_7
REMARK    7  A    between atoms: C_10  and  O_11
REMARK    8  A    between atoms: O_11  and  C_12
REMARK    9  A    between atoms: C_18  and  C_19
REMARK                            x       y       z     vdW  Elec       q    Type
REMARK                         _______ _______ _______ _____ _____    ______ ____
ROOT
ATOM      1  C   UNL     1       4.449   5.808  18.473  0.00  0.00    +0.000 A 
ATOM      2  C   UNL     1       4.269   6.606  17.348  0.00  0.00    +0.000 A 
ATOM      3  N   UNL     1       5.155   6.655  16.336  0.00  0.00    +0.000 NA
ATOM      4  C   UNL     1       6.294   5.936  16.505  0.00  0.00    +0.000 A 
ATOM      5  C   UNL     1       6.535   5.194  17.663  0.00  0.00    +0.000 A 
ATOM      6  C   UNL     1       7.837   4.498  17.916  0.00  0.00    +0.000 C 
ATOM      7  N   UNL     1       5.600   5.111  18.655  0.00  0.00    +0.000 NA
ENDROOT
BRANCH   1   8
ATOM      8  C   UNL     1       3.336   5.626  19.468  0.00  0.00    +0.000 C 
BRANCH   8   9
ATOM      9  C   UNL     1       3.051   4.145  19.804  0.00  0.00    +0.000 C 
BRANCH   9  10
ATOM     10  C   UNL     1       1.554   3.745  19.820  0.00  0.00    +0.000 C 
ATOM     11  C   UNL     1       1.232   2.907  21.064  0.00  0.00    +0.000 C 
BRANCH  10  13
ATOM     12  C   UNL     1       2.360   2.393  17.799  0.00  0.00    +0.000 C 
ATOM     13  C   UNL     1       1.173   2.991  18.532  0.00  0.00    +0.000 C 
ENDBRANCH  10  13
ENDBRANCH   9  10
ENDBRANCH   8   9
ENDBRANCH   1   8
BRANCH   4  14
ATOM     14  O   UNL     1       7.224   5.899  15.474  0.00  0.00    +0.000 OA
BRANCH  14  15
ATOM     15  C   UNL     1       6.921   5.135  14.364  0.00  0.00    +0.000 A 
ATOM     16  C   UNL     1       7.730   5.121  13.226  0.00  0.00    +0.000 A 
ATOM     17  C   UNL     1       7.382   4.339  12.124  0.00  0.00    +0.000 A 
ATOM     18  C   UNL     1       6.255   3.525  12.183  0.00  0.00    +0.000 A 
ATOM     19  C   UNL     1       5.469   3.495  13.339  0.00  0.00    +0.000 A 
ATOM     20  C   UNL     1       5.801   4.294  14.430  0.00  0.00    +0.000 A 
ENDBRANCH  14  15
ENDBRANCH   4  14
TORSDOF 6
ENDMDL
MODEL 9
REMARK VINA RESULT:      -7.2      1.222      1.603
REMARK  Name = 
REMARK  9 active torsions:
REMARK  status: ('A' for Active; 'I' for Inactive)
REMARK    1  A    between atoms: C_1  and  C_2
REMARK    2  A    between atoms: C_2  and  C_3
REMARK    3  A    between atoms: C_3  and  C_4
REMARK    4  A    between atoms: C_3  and  C_5
REMARK    5  A    between atoms: C_5  and  C_6
REMARK    6  A    between atoms: C_6  and  C_7
REMARK    7  A    between atoms: C_10  and  O_11
REMARK    8  A    between atoms: O_11  and  C_12
REMARK    9  A    between atoms: C_18  and  C_19
REMARK                            x       y       z     vdW  Elec       q    Type
REMARK                         _______ _______ _______ _____ _____    ______ ____
ROOT
ATOM      1  C   UNL     1       5.386   5.515  16.170  0.00  0.00    +0.000 A 
ATOM      2  C   UNL     1       5.364   4.547  17.168  0.00  0.00    +0.000 A 
ATOM      3  N   UNL     1       4.574   4.634  18.254  0.00  0.00    +0.000 NA
ATOM      4  C   UNL     1       3.843   5.772  18.370  0.00  0.00    +0.000 A 
ATOM      5  C   UNL     1       3.912   6.795  17.422  0.00  0.00    +0.000 A 
ATOM      6  C   UNL     1       3.208   8.105  17.601  0.00  0.00    +0.000 C 
ATOM      7  N   UNL     1       4.677   6.666  16.299  0.00  0.00    +0.000 NA
ENDROOT
BRANCH   1   8
ATOM      8  C   UNL     1       6.122   5.269  14.881  0.00  0.00    +0.000 C 
BRANCH   8   9
ATOM      9  C   UNL     1       5.500   4.143  14.025  0.00  0.00    +0.000 C 
BRANCH   9  10
ATOM     10  C   UNL     1       6.436   3.530  12.953  0.00  0.00    +0.000 C 
ATOM     11  C   UNL     1       7.303   4.619  12.307  0.00  0.00    +0.000 C 
BRANCH  10  13
ATOM     12  C   UNL     1       4.285   3.398  11.568  0.00  0.00    +0.000 C 
ATOM     13  C   UNL     1       5.626   2.764  11.890  0.00  0.00    +0.000 C 
ENDBRANCH  10  13
ENDBRANCH   9  10
ENDBRANCH   8   9
ENDBRANCH   1   8
BRANCH   4  14
ATOM     14  O   UNL     1       2.965   5.900  19.439  0.00  0.00    +0.000 OA
BRANCH  14  15
ATOM     15  C   UNL     1       2.328   4.759  19.885  0.00  0.00    +0.000 A 
ATOM     16  C   UNL     1       1.447   4.035  19.080  0.00  0.00    +0.000 A 
ATOM     17  C   UNL     1       0.819   2.890  19.574  0.00  0.00    +0.000 A 
ATOM     18  C   UNL     1       1.118   2.438  20.855  0.00  0.00    +0.000 A 
ATOM     19  C   UNL     1       2.038   3.130  21.649  0.00  0.00    +0.000 A 
ATOM     20  C   UNL     1       2.646   4.286  21.166  0.00  0.00    +0.000 A 
ENDBRANCH  14  15
ENDBRANCH   4  14
TORSDOF 6
ENDMDL
