MODEL 1
REMARK VINA RESULT:      -7.2      0.000      0.000
REMARK  Name = 
REMARK  8 active torsions:
REMARK  status: ('A' for Active; 'I' for Inactive)
REMARK    1  A    between atoms: C_1  and  C_2
REMARK    2  A    between atoms: C_4  and  C_5
REMARK    3  A    between atoms: C_5  and  N_6
REMARK    4  A    between atoms: N_6  and  C_7
REMARK    5  A    between atoms: C_8  and  C_10
REMARK    6  A    between atoms: C_10  and  N_11
REMARK    7  A    between atoms: N_11  and  S_12
REMARK    8  A    between atoms: S_12  and  C_15
REMARK                            x       y       z     vdW  Elec       q    Type
REMARK                         _______ _______ _______ _____ _____    ______ ____
ROOT
ATOM      1  N   UNL     1       5.462   5.685  17.669  0.00  0.00    +0.000 N 
ATOM      2  C   UNL     1       4.641   6.456  16.740  0.00  0.00    +0.000 C 
ATOM      3  C   UNL     1       5.110   5.481  19.011  0.00  0.00    +0.000 C 
ATOM      4  O   UNL     1       5.887   4.978  19.820  0.00  0.00    +0.000 OA
ENDROOT
BRANCH   1   5
ATOM      5  C   UNL     1       6.795   5.288  17.211  0.00  0.00    +0.000 C 
BRANCH   5   9
ATOM      6  C   UNL     1       6.091   3.353  12.531  0.00  0.00    +0.000 C 
ATOM      7  C   UNL     1       6.438   4.079  13.766  0.00  0.00    +0.000 A 
ATOM      8  C   UNL     1       6.034   3.988  15.074  0.00  0.00    +0.000 A 
ATOM      9  C   UNL     1       6.825   4.944  15.757  0.00  0.00    +0.000 A 
ATOM     10  N   UNL     1       7.623   5.605  14.906  0.00  0.00    +0.000 NA
ATOM     11  O   UNL     1       7.373   5.060  13.656  0.00  0.00    +0.000 OA
ENDBRANCH   5   9
ENDBRANCH   1   5
BRANCH   3  12
ATOM     12  C   UNL     1       3.683   5.876  19.395  0.00  0.00    +0.000 C 
BRANCH  12  13
ATOM     13  N   UNL     1       3.262   5.499  20.756  0.00  0.00    +0.000 NA
ATOM     14  H   UNL     1       2.961   6.290  21.329  0.00  0.00    +0.000 HD
BRANCH  13  15
ATOM     15  S   UNL     1       2.116   4.257  20.807  0.00  0.00    +0.000 S 
ATOM     16  O   UNL     1       2.315   3.524  22.035  0.00  0.00    +0.000 OA
ATOM     17  O   UNL     1       0.831   4.836  20.476  0.00  0.00    +0.000 OA
BRANCH  15  18
ATOM     18  C   UNL     1       2.461   3.134  19.477  0.00  0.00    +0.000 A 
ATOM     19  C   UNL     1       1.849   2.913  18.254  0.00  0.00    +0.000 A 
ATOM     20  C   UNL     1       2.492   1.893  17.496  0.00  0.00    +0.000 A 
ATOM     21  C   UNL     1       3.578   1.370  18.162  0.00  0.00    +0.000 A 
ATOM     22  S   UNL     1       3.826   2.118  19.681  0.00  0.00    +0.000 S 
ENDBRANCH  15  18
ENDBRANCH  13  15
ENDBRANCH  12  13
ENDBRANCH   3  12
TORSDOF 6
ENDMDL
MODEL 2
REMARK VINA RESULT:      -6.7      1.862      2.112
REMARK  Name = 
REMARK  8 active torsions:
REMARK  status: ('A' for Active; 'I' for Inactive)
REMARK    1  A    between atoms: C_1  and  C_2
REMARK    2  A    between atoms: C_4  and  C_5
REMARK    3  A    between atoms: C_5  and  N_6
REMARK    4  A    between atoms: N_6  and  C_7
REMARK    5  A    between atoms: C_8  and  C_10
REMARK    6  A    between atoms: C_10  and  N_11
REMARK    7  A    between atoms: N_11  and  S_12
REMARK    8  A    between atoms: S_12  and  C_15
REMARK                            x       y       z     vdW  Elec       q    Type
REMARK                         _______ _______ _______ _____ _____    ______ ____
ROOT
ATOM      1  N   UNL     1       6.249   6.047  16.911  0.00  0.00    +0.000 N 
ATOM      2  C   UNL     1       6.920   7.252  17.390  0.00  0.00    +0.000 C 
ATOM      3  C   UNL     1       4.865   5.850  17.015  0.00  0.00    +0.000 C 
ATOM      4  O   UNL     1       4.340   4.768  16.765  0.00  0.00    +0.000 OA
ENDROOT
BRANCH   1   5
ATOM      5  C   UNL     1       7.101   4.931  16.491  0.00  0.00    +0.000 C 
BRANCH   5   9
ATOM      6  C   UNL     1       5.989   3.181  11.817  0.00  0.00    +0.000 C 
ATOM      7  C   UNL     1       6.439   3.862  13.045  0.00  0.00    +0.000 A 
ATOM      8  C   UNL     1       6.162   3.708  14.380  0.00  0.00    +0.000 A 
ATOM      9  C   UNL     1       6.998   4.650  15.027  0.00  0.00    +0.000 A 
ATOM     10  N   UNL     1       7.702   5.362  14.135  0.00  0.00    +0.000 NA
ATOM     11  O   UNL     1       7.345   4.865  12.891  0.00  0.00    +0.000 OA
ENDBRANCH   5   9
ENDBRANCH   1   5
BRANCH   3  12
ATOM     12  C   UNL     1       4.043   7.078  17.411  0.00  0.00    +0.000 C 
BRANCH  12  13
ATOM     13  N   UNL     1       2.705   6.799  17.961  0.00  0.00    +0.000 NA
ATOM     14  H   UNL     1       2.108   6.252  17.336  0.00  0.00    +0.000 HD
BRANCH  13  15
ATOM     15  S   UNL     1       2.720   6.124  19.511  0.00  0.00    +0.000 S 
ATOM     16  O   UNL     1       4.098   5.901  19.879  0.00  0.00    +0.000 OA
ATOM     17  O   UNL     1       1.838   6.916  20.340  0.00  0.00    +0.000 OA
BRANCH  15  18
ATOM     18  C   UNL     1       1.947   4.528  19.424  0.00  0.00    +0.000 A 
ATOM     19  C   UNL     1       1.337   3.837  18.390  0.00  0.00    +0.000 A 
ATOM     20  C   UNL     1       0.855   2.560  18.793  0.00  0.00    +0.000 A 
ATOM     21  C   UNL     1       1.117   2.313  20.123  0.00  0.00    +0.000 A 
ATOM     22  S   UNL     1       1.952   3.607  20.869  0.00  0.00    +0.000 S 
ENDBRANCH  15  18
ENDBRANCH  13  15
ENDBRANCH  12  13
ENDBRANCH   3  12
TORSDOF 6
ENDMDL
MODEL 3
REMARK VINA RESULT:      -6.7      2.145      2.717
REMARK  Name = 
REMARK  8 active torsions:
REMARK  status: ('A' for Active; 'I' for Inactive)
REMARK    1  A    between atoms: C_1  and  C_2
REMARK    2  A    between atoms: C_4  and  C_5
REMARK    3  A    between atoms: C_5  and  N_6
REMARK    4  A    between atoms: N_6  and  C_7
REMARK    5  A    between atoms: C_8  and  C_10
REMARK    6  A    between atoms: C_10  and  N_11
REMARK    7  A    between atoms: N_11  and  S_12
REMARK    8  A    between atoms: S_12  and  C_15
REMARK                            x       y       z     vdW  Elec       q    Type
REMARK                         _______ _______ _______ _____ _____    ______ ____
ROOT
ATOM      1  N   UNL     1       6.416   5.430  17.192  0.00  0.00    +0.000 N 
ATOM      2  C   UNL     1       7.547   4.625  17.644  0.00  0.00    +0.000 C 
ATOM      3  C   UNL     1       5.138   5.339  17.759  0.00  0.00    +0.000 C 
ATOM      4  O   UNL     1       4.162   5.895  17.260  0.00  0.00    +0.000 OA
ENDROOT
BRANCH   1   5
ATOM      5  C   UNL     1       6.602   6.212  15.966  0.00  0.00    +0.000 C 
BRANCH   5   9
ATOM      6  C   UNL     1       5.869   2.858  12.178  0.00  0.00    +0.000 C 
ATOM      7  C   UNL     1       6.270   3.908  13.132  0.00  0.00    +0.000 A 
ATOM      8  C   UNL     1       5.742   4.388  14.303  0.00  0.00    +0.000 A 
ATOM      9  C   UNL     1       6.676   5.356  14.744  0.00  0.00    +0.000 A 
ATOM     10  N   UNL     1       7.683   5.487  13.868  0.00  0.00    +0.000 NA
ATOM     11  O   UNL     1       7.422   4.577  12.855  0.00  0.00    +0.000 OA
ENDBRANCH   5   9
ENDBRANCH   1   5
BRANCH   3  12
ATOM     12  C   UNL     1       5.040   4.547  19.064  0.00  0.00    +0.000 C 
BRANCH  12  13
ATOM     13  N   UNL     1       5.461   3.137  18.987  0.00  0.00    +0.000 NA
ATOM     14  H   UNL     1       6.430   2.979  19.269  0.00  0.00    +0.000 HD
BRANCH  13  15
ATOM     15  S   UNL     1       4.428   2.062  19.784  0.00  0.00    +0.000 S 
ATOM     16  O   UNL     1       4.213   0.931  18.913  0.00  0.00    +0.000 OA
ATOM     17  O   UNL     1       4.931   1.891  21.130  0.00  0.00    +0.000 OA
BRANCH  15  18
ATOM     18  C   UNL     1       2.854   2.859  19.988  0.00  0.00    +0.000 A 
ATOM     19  C   UNL     1       2.375   3.761  20.924  0.00  0.00    +0.000 A 
ATOM     20  C   UNL     1       1.024   4.137  20.680  0.00  0.00    +0.000 A 
ATOM     21  C   UNL     1       0.515   3.515  19.562  0.00  0.00    +0.000 A 
ATOM     22  S   UNL     1       1.667   2.499  18.807  0.00  0.00    +0.000 S 
ENDBRANCH  15  18
ENDBRANCH  13  15
ENDBRANCH  12  13
ENDBRANCH   3  12
TORSDOF 6
ENDMDL
MODEL 4
REMARK VINA RESULT:      -6.6      1.934      2.247
REMARK  Name = 
REMARK  8 active torsions:
REMARK  status: ('A' for Active; 'I' for Inactive)
REMARK    1  A    between atoms: C_1  and  C_2
REMARK    2  A    between atoms: C_4  and  C_5
REMARK    3  A    between atoms: C_5  and  N_6
REMARK    4  A    between atoms: N_6  and  C_7
REMARK    5  A    between atoms: C_8  and  C_10
REMARK    6  A    between atoms: C_10  and  N_11
REMARK    7  A    between atoms: N_11  and  S_12
REMARK    8  A    between atoms: S_12  and  C_15
REMARK                            x       y       z     vdW  Elec       q    Type
REMARK                         _______ _______ _______ _____ _____    ______ ____
ROOT
ATOM      1  N   UNL     1       6.782   5.376  17.872  0.00  0.00    +0.000 N 
ATOM      2  C   UNL     1       7.354   6.693  18.136  0.00  0.00    +0.000 C 
ATOM      3  C   UNL     1       5.617   4.910  18.495  0.00  0.00    +0.000 C 
ATOM      4  O   UNL     1       5.243   3.744  18.392  0.00  0.00    +0.000 OA
ENDROOT
BRANCH   1   5
ATOM      5  C   UNL     1       7.584   4.449  17.070  0.00  0.00    +0.000 C 
BRANCH   5   9
ATOM      6  C   UNL     1       5.576   3.629  12.441  0.00  0.00    +0.000 C 
ATOM      7  C   UNL     1       6.263   4.064  13.670  0.00  0.00    +0.000 A 
ATOM      8  C   UNL     1       6.240   3.646  14.977  0.00  0.00    +0.000 A 
ATOM      9  C   UNL     1       7.202   4.458  15.626  0.00  0.00    +0.000 A 
ATOM     10  N   UNL     1       7.738   5.344  14.774  0.00  0.00    +0.000 NA
ATOM     11  O   UNL     1       7.142   5.094  13.547  0.00  0.00    +0.000 OA
ENDBRANCH   5   9
ENDBRANCH   1   5
BRANCH   3  12
ATOM     12  C   UNL     1       4.810   5.954  19.271  0.00  0.00    +0.000 C 
BRANCH  12  13
ATOM     13  N   UNL     1       3.989   6.862  18.451  0.00  0.00    +0.000 NA
ATOM     14  H   UNL     1       4.125   6.746  17.444  0.00  0.00    +0.000 HD
BRANCH  13  15
ATOM     15  S   UNL     1       2.342   6.842  18.834  0.00  0.00    +0.000 S 
ATOM     16  O   UNL     1       2.192   7.394  20.159  0.00  0.00    +0.000 OA
ATOM     17  O   UNL     1       1.625   7.392  17.703  0.00  0.00    +0.000 OA
BRANCH  15  18
ATOM     18  C   UNL     1       1.817   5.148  18.921  0.00  0.00    +0.000 A 
ATOM     19  C   UNL     1       1.673   4.161  17.959  0.00  0.00    +0.000 A 
ATOM     20  C   UNL     1       1.220   2.927  18.506  0.00  0.00    +0.000 A 
ATOM     21  C   UNL     1       1.040   3.008  19.869  0.00  0.00    +0.000 A 
ATOM     22  S   UNL     1       1.429   4.557  20.481  0.00  0.00    +0.000 S 
ENDBRANCH  15  18
ENDBRANCH  13  15
ENDBRANCH  12  13
ENDBRANCH   3  12
TORSDOF 6
ENDMDL
MODEL 5
REMARK VINA RESULT:      -6.6      2.107      2.721
REMARK  Name = 
REMARK  8 active torsions:
REMARK  status: ('A' for Active; 'I' for Inactive)
REMARK    1  A    between atoms: C_1  and  C_2
REMARK    2  A    between atoms: C_4  and  C_5
REMARK    3  A    between atoms: C_5  and  N_6
REMARK    4  A    between atoms: N_6  and  C_7
REMARK    5  A    between atoms: C_8  and  C_10
REMARK    6  A    between atoms: C_10  and  N_11
REMARK    7  A    between atoms: N_11  and  S_12
REMARK    8  A    between atoms: S_12  and  C_15
REMARK                            x       y       z     vdW  Elec       q    Type
REMARK                         _______ _______ _______ _____ _____    ______ ____
ROOT
ATOM      1  N   UNL     1       6.339   5.380  17.255  0.00  0.00    +0.000 N 
ATOM      2  C   UNL     1       7.521   4.561  17.505  0.00  0.00    +0.000 C 
ATOM      3  C   UNL     1       5.177   5.303  18.035  0.00  0.00    +0.000 C 
ATOM      4  O   UNL     1       4.136   5.871  17.713  0.00  0.00    +0.000 OA
ENDROOT
BRANCH   1   5
ATOM      5  C   UNL     1       6.319   6.162  16.016  0.00  0.00    +0.000 C 
BRANCH   5   9
ATOM      6  C   UNL     1       5.872   2.847  12.150  0.00  0.00    +0.000 C 
ATOM      7  C   UNL     1       6.203   3.883  13.144  0.00  0.00    +0.000 A 
ATOM      8  C   UNL     1       5.581   4.363  14.269  0.00  0.00    +0.000 A 
ATOM      9  C   UNL     1       6.488   5.314  14.798  0.00  0.00    +0.000 A 
ATOM     10  N   UNL     1       7.570   5.435  14.015  0.00  0.00    +0.000 NA
ATOM     11  O   UNL     1       7.384   4.536  12.976  0.00  0.00    +0.000 OA
ENDBRANCH   5   9
ENDBRANCH   1   5
BRANCH   3  12
ATOM     12  C   UNL     1       5.297   4.509  19.338  0.00  0.00    +0.000 C 
BRANCH  12  13
ATOM     13  N   UNL     1       5.401   3.047  19.186  0.00  0.00    +0.000 NA
ATOM     14  H   UNL     1       5.730   2.568  20.026  0.00  0.00    +0.000 HD
BRANCH  13  15
ATOM     15  S   UNL     1       3.999   2.311  18.592  0.00  0.00    +0.000 S 
ATOM     16  O   UNL     1       3.799   2.775  17.240  0.00  0.00    +0.000 OA
ATOM     17  O   UNL     1       4.085   0.900  18.900  0.00  0.00    +0.000 OA
BRANCH  15  18
ATOM     18  C   UNL     1       2.623   2.899  19.547  0.00  0.00    +0.000 A 
ATOM     19  C   UNL     1       1.493   3.628  19.212  0.00  0.00    +0.000 A 
ATOM     20  C   UNL     1       0.645   3.867  20.330  0.00  0.00    +0.000 A 
ATOM     21  C   UNL     1       1.150   3.308  21.483  0.00  0.00    +0.000 A 
ATOM     22  S   UNL     1       2.627   2.489  21.210  0.00  0.00    +0.000 S 
ENDBRANCH  15  18
ENDBRANCH  13  15
ENDBRANCH  12  13
ENDBRANCH   3  12
TORSDOF 6
ENDMDL
MODEL 6
REMARK VINA RESULT:      -6.6      2.071      2.592
REMARK  Name = 
REMARK  8 active torsions:
REMARK  status: ('A' for Active; 'I' for Inactive)
REMARK    1  A    between atoms: C_1  and  C_2
REMARK    2  A    between atoms: C_4  and  C_5
REMARK    3  A    between atoms: C_5  and  N_6
REMARK    4  A    between atoms: N_6  and  C_7
REMARK    5  A    between atoms: C_8  and  C_10
REMARK    6  A    between atoms: C_10  and  N_11
REMARK    7  A    between atoms: N_11  and  S_12
REMARK    8  A    between atoms: S_12  and  C_15
REMARK                            x       y       z     vdW  Elec       q    Type
REMARK                         _______ _______ _______ _____ _____    ______ ____
ROOT
ATOM      1  N   UNL     1       5.454   5.856  17.330  0.00  0.00    +0.000 N 
ATOM      2  C   UNL     1       4.083   6.273  17.611  0.00  0.00    +0.000 C 
ATOM      3  C   UNL     1       6.193   5.032  18.190  0.00  0.00    +0.000 C 
ATOM      4  O   UNL     1       7.394   4.829  18.027  0.00  0.00    +0.000 OA
ENDROOT
BRANCH   1   5
ATOM      5  C   UNL     1       6.128   6.496  16.198  0.00  0.00    +0.000 C 
BRANCH   5   9
ATOM      6  C   UNL     1       5.803   3.020  12.463  0.00  0.00    +0.000 C 
ATOM      7  C   UNL     1       6.123   4.070  13.447  0.00  0.00    +0.000 A 
ATOM      8  C   UNL     1       5.416   4.694  14.444  0.00  0.00    +0.000 A 
ATOM      9  C   UNL     1       6.355   5.558  15.059  0.00  0.00    +0.000 A 
ATOM     10  N   UNL     1       7.544   5.494  14.441  0.00  0.00    +0.000 NA
ATOM     11  O   UNL     1       7.392   4.561  13.427  0.00  0.00    +0.000 OA
ENDBRANCH   5   9
ENDBRANCH   1   5
BRANCH   3  12
ATOM     12  C   UNL     1       5.404   4.362  19.316  0.00  0.00    +0.000 C 
BRANCH  12  13
ATOM     13  N   UNL     1       5.354   2.890  19.270  0.00  0.00    +0.000 NA
ATOM     14  H   UNL     1       5.510   2.443  20.177  0.00  0.00    +0.000 HD
BRANCH  13  15
ATOM     15  S   UNL     1       3.966   2.266  18.532  0.00  0.00    +0.000 S 
ATOM     16  O   UNL     1       3.819   2.918  17.252  0.00  0.00    +0.000 OA
ATOM     17  O   UNL     1       4.025   0.824  18.641  0.00  0.00    +0.000 OA
BRANCH  15  18
ATOM     18  C   UNL     1       2.563   2.736  19.512  0.00  0.00    +0.000 A 
ATOM     19  C   UNL     1       1.298   3.192  19.180  0.00  0.00    +0.000 A 
ATOM     20  C   UNL     1       0.488   3.442  20.324  0.00  0.00    +0.000 A 
ATOM     21  C   UNL     1       1.158   3.163  21.495  0.00  0.00    +0.000 A 
ATOM     22  S   UNL     1       2.745   2.590  21.210  0.00  0.00    +0.000 S 
ENDBRANCH  15  18
ENDBRANCH  13  15
ENDBRANCH  12  13
ENDBRANCH   3  12
TORSDOF 6
ENDMDL
MODEL 7
REMARK VINA RESULT:      -6.6      2.817      4.096
REMARK  Name = 
REMARK  8 active torsions:
REMARK  status: ('A' for Active; 'I' for Inactive)
REMARK    1  A    between atoms: C_1  and  C_2
REMARK    2  A    between atoms: C_4  and  C_5
REMARK    3  A    between atoms: C_5  and  N_6
REMARK    4  A    between atoms: N_6  and  C_7
REMARK    5  A    between atoms: C_8  and  C_10
REMARK    6  A    between atoms: C_10  and  N_11
REMARK    7  A    between atoms: N_11  and  S_12
REMARK    8  A    between atoms: S_12  and  C_15
REMARK                            x       y       z     vdW  Elec       q    Type
REMARK                         _______ _______ _______ _____ _____    ______ ____
ROOT
ATOM      1  N   UNL     1       6.856   4.814  18.144  0.00  0.00    +0.000 N 
ATOM      2  C   UNL     1       7.113   4.309  16.798  0.00  0.00    +0.000 C 
ATOM      3  C   UNL     1       5.605   4.721  18.769  0.00  0.00    +0.000 C 
ATOM      4  O   UNL     1       5.359   5.296  19.826  0.00  0.00    +0.000 OA
ENDROOT
BRANCH   1   5
ATOM      5  C   UNL     1       7.908   5.621  18.766  0.00  0.00    +0.000 C 
BRANCH   5   9
ATOM      6  C   UNL     1       8.605  10.633  18.036  0.00  0.00    +0.000 C 
ATOM      7  C   UNL     1       8.274   9.197  18.034  0.00  0.00    +0.000 A 
ATOM      8  C   UNL     1       8.639   8.130  18.816  0.00  0.00    +0.000 A 
ATOM      9  C   UNL     1       7.893   7.041  18.304  0.00  0.00    +0.000 A 
ATOM     10  N   UNL     1       7.158   7.417  17.247  0.00  0.00    +0.000 NA
ATOM     11  O   UNL     1       7.403   8.771  17.080  0.00  0.00    +0.000 OA
ENDBRANCH   5   9
ENDBRANCH   1   5
BRANCH   3  12
ATOM     12  C   UNL     1       4.579   3.818  18.081  0.00  0.00    +0.000 C 
BRANCH  12  13
ATOM     13  N   UNL     1       3.618   4.502  17.199  0.00  0.00    +0.000 NA
ATOM     14  H   UNL     1       3.426   4.001  16.329  0.00  0.00    +0.000 HD
BRANCH  13  15
ATOM     15  S   UNL     1       2.173   4.945  17.959  0.00  0.00    +0.000 S 
ATOM     16  O   UNL     1       2.246   6.356  18.254  0.00  0.00    +0.000 OA
ATOM     17  O   UNL     1       1.085   4.392  17.182  0.00  0.00    +0.000 OA
BRANCH  15  18
ATOM     18  C   UNL     1       2.091   4.099  19.518  0.00  0.00    +0.000 A 
ATOM     19  C   UNL     1       2.281   4.519  20.824  0.00  0.00    +0.000 A 
ATOM     20  C   UNL     1       2.102   3.469  21.769  0.00  0.00    +0.000 A 
ATOM     21  C   UNL     1       1.773   2.281  21.155  0.00  0.00    +0.000 A 
ATOM     22  S   UNL     1       1.668   2.439  19.455  0.00  0.00    +0.000 S 
ENDBRANCH  15  18
ENDBRANCH  13  15
ENDBRANCH  12  13
ENDBRANCH   3  12
TORSDOF 6
ENDMDL
MODEL 8
REMARK VINA RESULT:      -6.5      1.927      2.600
REMARK  Name = 
REMARK  8 active torsions:
REMARK  status: ('A' for Active; 'I' for Inactive)
REMARK    1  A    between atoms: C_1  and  C_2
REMARK    2  A    between atoms: C_4  and  C_5
REMARK    3  A    between atoms: C_5  and  N_6
REMARK    4  A    between atoms: N_6  and  C_7
REMARK    5  A    between atoms: C_8  and  C_10
REMARK    6  A    between atoms: C_10  and  N_11
REMARK    7  A    between atoms: N_11  and  S_12
REMARK    8  A    between atoms: S_12  and  C_15
REMARK                            x       y       z     vdW  Elec       q    Type
REMARK                         _______ _______ _______ _____ _____    ______ ____
ROOT
ATOM      1  N   UNL     1       5.513   5.804  17.164  0.00  0.00    +0.000 N 
ATOM      2  C   UNL     1       6.770   6.122  17.834  0.00  0.00    +0.000 C 
ATOM      3  C   UNL     1       4.577   4.899  17.683  0.00  0.00    +0.000 C 
ATOM      4  O   UNL     1       3.609   4.515  17.031  0.00  0.00    +0.000 OA
ENDROOT
BRANCH   1   5
ATOM      5  C   UNL     1       5.336   6.313  15.801  0.00  0.00    +0.000 C 
BRANCH   5   9
ATOM      6  C   UNL     1       6.263   2.824  12.181  0.00  0.00    +0.000 C 
ATOM      7  C   UNL     1       6.231   3.902  13.185  0.00  0.00    +0.000 A 
ATOM      8  C   UNL     1       5.249   4.443  13.977  0.00  0.00    +0.000 A 
ATOM      9  C   UNL     1       5.921   5.406  14.769  0.00  0.00    +0.000 A 
ATOM     10  N   UNL     1       7.220   5.475  14.442  0.00  0.00    +0.000 NA
ATOM     11  O   UNL     1       7.408   4.531  13.445  0.00  0.00    +0.000 OA
ENDBRANCH   5   9
ENDBRANCH   1   5
BRANCH   3  12
ATOM     12  C   UNL     1       4.807   4.456  19.130  0.00  0.00    +0.000 C 
BRANCH  12  13
ATOM     13  N   UNL     1       5.463   3.148  19.299  0.00  0.00    +0.000 NA
ATOM     14  H   UNL     1       6.342   3.192  19.820  0.00  0.00    +0.000 HD
BRANCH  13  15
ATOM     15  S   UNL     1       4.456   1.945  19.932  0.00  0.00    +0.000 S 
ATOM     16  O   UNL     1       4.526   0.805  19.050  0.00  0.00    +0.000 OA
ATOM     17  O   UNL     1       4.755   1.826  21.343  0.00  0.00    +0.000 OA
BRANCH  15  18
ATOM     18  C   UNL     1       2.784   2.539  19.873  0.00  0.00    +0.000 A 
ATOM     19  C   UNL     1       1.757   2.356  18.962  0.00  0.00    +0.000 A 
ATOM     20  C   UNL     1       0.564   3.036  19.339  0.00  0.00    +0.000 A 
ATOM     21  C   UNL     1       0.716   3.712  20.530  0.00  0.00    +0.000 A 
ATOM     22  S   UNL     1       2.281   3.512  21.190  0.00  0.00    +0.000 S 
ENDBRANCH  15  18
ENDBRANCH  13  15
ENDBRANCH  12  13
ENDBRANCH   3  12
TORSDOF 6
ENDMDL
MODEL 9
REMARK VINA RESULT:      -6.5      2.273      2.875
REMARK  Name = 
REMARK  8 active torsions:
REMARK  status: ('A' for Active; 'I' for Inactive)
REMARK    1  A    between atoms: C_1  and  C_2
REMARK    2  A    between atoms: C_4  and  C_5
REMARK    3  A    between atoms: C_5  and  N_6
REMARK    4  A    between atoms: N_6  and  C_7
REMARK    5  A    between atoms: C_8  and  C_10
REMARK    6  A    between atoms: C_10  and  N_11
REMARK    7  A    between atoms: N_11  and  S_12
REMARK    8  A    between atoms: S_12  and  C_15
REMARK                            x       y       z     vdW  Elec       q    Type
REMARK                         _______ _______ _______ _____ _____    ______ ____
ROOT
ATOM      1  N   UNL     1       6.523   5.269  15.789  0.00  0.00    +0.000 N 
ATOM      2  C   UNL     1       5.320   6.087  15.672  0.00  0.00    +0.000 C 
ATOM      3  C   UNL     1       6.954   4.712  17.001  0.00  0.00    +0.000 C 
ATOM      4  O   UNL     1       8.051   4.171  17.118  0.00  0.00    +0.000 OA
ENDROOT
BRANCH   1   5
ATOM      5  C   UNL     1       7.405   5.207  14.620  0.00  0.00    +0.000 C 
BRANCH   5   9
ATOM      6  C   UNL     1       4.362   2.699  11.366  0.00  0.00    +0.000 C 
ATOM      7  C   UNL     1       5.400   3.430  12.114  0.00  0.00    +0.000 A 
ATOM      8  C   UNL     1       5.457   4.002  13.360  0.00  0.00    +0.000 A 
ATOM      9  C   UNL     1       6.786   4.479  13.472  0.00  0.00    +0.000 A 
ATOM     10  N   UNL     1       7.475   4.251  12.345  0.00  0.00    +0.000 NA
ATOM     11  O   UNL     1       6.599   3.595  11.494  0.00  0.00    +0.000 OA
ENDBRANCH   5   9
ENDBRANCH   1   5
BRANCH   3  12
ATOM     12  C   UNL     1       5.954   4.773  18.158  0.00  0.00    +0.000 C 
BRANCH  12  13
ATOM     13  N   UNL     1       4.996   3.656  18.231  0.00  0.00    +0.000 NA
ATOM     14  H   UNL     1       5.129   3.051  19.044  0.00  0.00    +0.000 HD
BRANCH  13  15
ATOM     15  S   UNL     1       3.376   4.123  18.099  0.00  0.00    +0.000 S 
ATOM     16  O   UNL     1       3.328   5.565  18.163  0.00  0.00    +0.000 OA
ATOM     17  O   UNL     1       2.803   3.399  16.985  0.00  0.00    +0.000 OA
BRANCH  15  18
ATOM     18  C   UNL     1       2.510   3.516  19.525  0.00  0.00    +0.000 A 
ATOM     19  C   UNL     1       1.178   3.563  19.902  0.00  0.00    +0.000 A 
ATOM     20  C   UNL     1       0.941   2.925  21.153  0.00  0.00    +0.000 A 
ATOM     21  C   UNL     1       2.099   2.406  21.689  0.00  0.00    +0.000 A 
ATOM     22  S   UNL     1       3.454   2.675  20.681  0.00  0.00    +0.000 S 
ENDBRANCH  15  18
ENDBRANCH  13  15
ENDBRANCH  12  13
ENDBRANCH   3  12
TORSDOF 6
ENDMDL
