MODEL 1
REMARK VINA RESULT:      -8.1      0.000      0.000
REMARK  Name = 
REMARK  9 active torsions:
REMARK  status: ('A' for Active; 'I' for Inactive)
REMARK    1  A    between atoms: C_1  and  C_2
REMARK    2  A    between atoms: C_2  and  N_3
REMARK    3  A    between atoms: C_2  and  C_16
REMARK    4  A    between atoms: N_3  and  C_4
REMARK    5  A    between atoms: C_4  and  C_5
REMARK    6  A    between atoms: C_5  and  O_6
REMARK    7  A    between atoms: N_19  and  C_20
REMARK    8  A    between atoms: C_20  and  C_21
REMARK    9  A    between atoms: C_20  and  C_22
REMARK                            x       y       z     vdW  Elec       q    Type
REMARK                         _______ _______ _______ _____ _____    ______ ____
ROOT
ATOM      1  C   UNL     1       4.473   3.675  17.111  0.00  0.00    +0.000 C 
ENDROOT
BRANCH   1   2
ATOM      2  C   UNL     1       4.165   3.175  18.565  0.00  0.00    +0.000 C 
ATOM      3  C   UNL     1       3.647   1.716  18.573  0.00  0.00    +0.000 C 
ATOM      4  C   UNL     1       2.140   1.625  18.387  0.00  0.00    +0.000 C 
ATOM      5  C   UNL     1       1.441   2.345  19.531  0.00  0.00    +0.000 C 
ATOM      6  C   UNL     1       1.927   3.763  19.684  0.00  0.00    +0.000 A 
ATOM      7  C   UNL     1       1.084   4.700  20.306  0.00  0.00    +0.000 A 
ATOM      8  C   UNL     1       1.499   6.016  20.496  0.00  0.00    +0.000 A 
ATOM      9  C   UNL     1       2.772   6.404  20.096  0.00  0.00    +0.000 A 
ATOM     10  C   UNL     1       3.629   5.475  19.505  0.00  0.00    +0.000 A 
ATOM     11  C   UNL     1       3.222   4.145  19.276  0.00  0.00    +0.000 A 
BRANCH   2  12
ATOM     12  O   UNL     1       5.412   3.180  19.291  0.00  0.00    +0.000 OA
ATOM     13  H   UNL     1       5.210   3.559  20.162  0.00  0.00    +0.000 HD
ENDBRANCH   2  12
ENDBRANCH   1   2
BRANCH   1  14
ATOM     14  N   UNL     1       5.925   3.880  16.886  0.00  0.00    +0.000 NA
ATOM     15  H   UNL     1       6.357   4.065  17.790  0.00  0.00    +0.000 HD
BRANCH  14  17
ATOM     16  C   UNL     1       5.046   6.024  16.164  0.00  0.00    +0.000 C 
ATOM     17  C   UNL     1       6.213   5.038  16.028  0.00  0.00    +0.000 C 
BRANCH  17  18
ATOM     18  C   UNL     1       6.370   4.593  14.607  0.00  0.00    +0.000 A 
ATOM     19  C   UNL     1       7.438   4.893  13.727  0.00  0.00    +0.000 A 
ATOM     20  N   UNL     1       7.283   4.344  12.521  0.00  0.00    +0.000 NA
ATOM     21  N   UNL     1       6.107   3.693  12.613  0.00  0.00    +0.000 N 
ATOM     22  C   UNL     1       5.531   3.802  13.846  0.00  0.00    +0.000 A 
BRANCH  21  23
ATOM     23  C   UNL     1       5.534   3.027  11.449  0.00  0.00    +0.000 C 
ATOM     24  C   UNL     1       5.894   1.542  11.441  0.00  0.00    +0.000 C 
ATOM     25  C   UNL     1       4.026   3.244  11.348  0.00  0.00    +0.000 C 
ENDBRANCH  21  23
ENDBRANCH  17  18
ENDBRANCH  14  17
ENDBRANCH   1  14
TORSDOF 6
ENDMDL
MODEL 2
REMARK VINA RESULT:      -7.9      1.741      2.563
REMARK  Name = 
REMARK  9 active torsions:
REMARK  status: ('A' for Active; 'I' for Inactive)
REMARK    1  A    between atoms: C_1  and  C_2
REMARK    2  A    between atoms: C_2  and  N_3
REMARK    3  A    between atoms: C_2  and  C_16
REMARK    4  A    between atoms: N_3  and  C_4
REMARK    5  A    between atoms: C_4  and  C_5
REMARK    6  A    between atoms: C_5  and  O_6
REMARK    7  A    between atoms: N_19  and  C_20
REMARK    8  A    between atoms: C_20  and  C_21
REMARK    9  A    between atoms: C_20  and  C_22
REMARK                            x       y       z     vdW  Elec       q    Type
REMARK                         _______ _______ _______ _____ _____    ______ ____
ROOT
ATOM      1  C   UNL     1       5.481   4.624  19.104  0.00  0.00    +0.000 C 
ENDROOT
BRANCH   1   2
ATOM      2  C   UNL     1       4.234   3.925  18.458  0.00  0.00    +0.000 C 
ATOM      3  C   UNL     1       3.623   4.779  17.320  0.00  0.00    +0.000 C 
ATOM      4  C   UNL     1       2.605   5.790  17.824  0.00  0.00    +0.000 C 
ATOM      5  C   UNL     1       1.449   5.059  18.493  0.00  0.00    +0.000 C 
ATOM      6  C   UNL     1       1.926   4.122  19.572  0.00  0.00    +0.000 A 
ATOM      7  C   UNL     1       1.035   3.770  20.601  0.00  0.00    +0.000 A 
ATOM      8  C   UNL     1       1.419   2.885  21.605  0.00  0.00    +0.000 A 
ATOM      9  C   UNL     1       2.687   2.318  21.578  0.00  0.00    +0.000 A 
ATOM     10  C   UNL     1       3.570   2.636  20.546  0.00  0.00    +0.000 A 
ATOM     11  C   UNL     1       3.215   3.550  19.534  0.00  0.00    +0.000 A 
BRANCH   2  12
ATOM     12  O   UNL     1       4.696   2.696  17.859  0.00  0.00    +0.000 OA
ATOM     13  H   UNL     1       3.896   2.189  17.645  0.00  0.00    +0.000 HD
ENDBRANCH   2  12
ENDBRANCH   1   2
BRANCH   1  14
ATOM     14  N   UNL     1       6.759   4.112  18.549  0.00  0.00    +0.000 NA
ATOM     15  H   UNL     1       7.373   3.894  19.332  0.00  0.00    +0.000 HD
BRANCH  14  17
ATOM     16  C   UNL     1       7.195   6.488  18.317  0.00  0.00    +0.000 C 
ATOM     17  C   UNL     1       7.458   5.100  17.717  0.00  0.00    +0.000 C 
BRANCH  17  18
ATOM     18  C   UNL     1       6.958   5.028  16.308  0.00  0.00    +0.000 A 
ATOM     19  C   UNL     1       6.200   6.002  15.616  0.00  0.00    +0.000 A 
ATOM     20  N   UNL     1       5.909   5.638  14.365  0.00  0.00    +0.000 NA
ATOM     21  N   UNL     1       6.472   4.420  14.247  0.00  0.00    +0.000 N 
ATOM     22  C   UNL     1       7.122   4.019  15.378  0.00  0.00    +0.000 A 
BRANCH  21  23
ATOM     23  C   UNL     1       6.296   3.636  13.030  0.00  0.00    +0.000 C 
ATOM     24  C   UNL     1       4.834   3.638  12.588  0.00  0.00    +0.000 C 
ATOM     25  C   UNL     1       7.227   4.097  11.911  0.00  0.00    +0.000 C 
ENDBRANCH  21  23
ENDBRANCH  17  18
ENDBRANCH  14  17
ENDBRANCH   1  14
TORSDOF 6
ENDMDL
MODEL 3
REMARK VINA RESULT:      -7.7      1.460      2.042
REMARK  Name = 
REMARK  9 active torsions:
REMARK  status: ('A' for Active; 'I' for Inactive)
REMARK    1  A    between atoms: C_1  and  C_2
REMARK    2  A    between atoms: C_2  and  N_3
REMARK    3  A    between atoms: C_2  and  C_16
REMARK    4  A    between atoms: N_3  and  C_4
REMARK    5  A    between atoms: C_4  and  C_5
REMARK    6  A    between atoms: C_5  and  O_6
REMARK    7  A    between atoms: N_19  and  C_20
REMARK    8  A    between atoms: C_20  and  C_21
REMARK    9  A    between atoms: C_20  and  C_22
REMARK                            x       y       z     vdW  Elec       q    Type
REMARK                         _______ _______ _______ _____ _____    ______ ____
ROOT
ATOM      1  C   UNL     1       4.997   4.292  18.411  0.00  0.00    +0.000 C 
ENDROOT
BRANCH   1   2
ATOM      2  C   UNL     1       3.828   3.286  18.130  0.00  0.00    +0.000 C 
ATOM      3  C   UNL     1       2.967   3.730  16.922  0.00  0.00    +0.000 C 
ATOM      4  C   UNL     1       1.849   4.683  17.315  0.00  0.00    +0.000 C 
ATOM      5  C   UNL     1       0.909   3.992  18.293  0.00  0.00    +0.000 C 
ATOM      6  C   UNL     1       1.647   3.434  19.482  0.00  0.00    +0.000 A 
ATOM      7  C   UNL     1       0.939   3.233  20.680  0.00  0.00    +0.000 A 
ATOM      8  C   UNL     1       1.570   2.693  21.798  0.00  0.00    +0.000 A 
ATOM      9  C   UNL     1       2.906   2.320  21.725  0.00  0.00    +0.000 A 
ATOM     10  C   UNL     1       3.612   2.487  20.533  0.00  0.00    +0.000 A 
ATOM     11  C   UNL     1       3.004   3.057  19.396  0.00  0.00    +0.000 A 
BRANCH   2  12
ATOM     12  O   UNL     1       4.428   2.022  17.775  0.00  0.00    +0.000 OA
ATOM     13  H   UNL     1       4.442   1.497  18.591  0.00  0.00    +0.000 HD
ENDBRANCH   2  12
ENDBRANCH   1   2
BRANCH   1  14
ATOM     14  N   UNL     1       6.200   3.995  17.592  0.00  0.00    +0.000 NA
ATOM     15  H   UNL     1       6.971   3.808  18.230  0.00  0.00    +0.000 HD
BRANCH  14  17
ATOM     16  C   UNL     1       5.605   6.264  16.968  0.00  0.00    +0.000 C 
ATOM     17  C   UNL     1       6.608   5.124  16.745  0.00  0.00    +0.000 C 
BRANCH  17  18
ATOM     18  C   UNL     1       6.623   4.704  15.308  0.00  0.00    +0.000 A 
ATOM     19  C   UNL     1       7.326   5.315  14.243  0.00  0.00    +0.000 A 
ATOM     20  N   UNL     1       7.133   4.698  13.075  0.00  0.00    +0.000 NA
ATOM     21  N   UNL     1       6.295   3.688  13.380  0.00  0.00    +0.000 N 
ATOM     22  C   UNL     1       5.973   3.643  14.706  0.00  0.00    +0.000 A 
BRANCH  21  23
ATOM     23  C   UNL     1       5.767   2.820  12.334  0.00  0.00    +0.000 C 
ATOM     24  C   UNL     1       4.583   3.478  11.629  0.00  0.00    +0.000 C 
ATOM     25  C   UNL     1       6.847   2.390  11.345  0.00  0.00    +0.000 C 
ENDBRANCH  21  23
ENDBRANCH  17  18
ENDBRANCH  14  17
ENDBRANCH   1  14
TORSDOF 6
ENDMDL
MODEL 4
REMARK VINA RESULT:      -7.3      1.494      2.649
REMARK  Name = 
REMARK  9 active torsions:
REMARK  status: ('A' for Active; 'I' for Inactive)
REMARK    1  A    between atoms: C_1  and  C_2
REMARK    2  A    between atoms: C_2  and  N_3
REMARK    3  A    between atoms: C_2  and  C_16
REMARK    4  A    between atoms: N_3  and  C_4
REMARK    5  A    between atoms: C_4  and  C_5
REMARK    6  A    between atoms: C_5  and  O_6
REMARK    7  A    between atoms: N_19  and  C_20
REMARK    8  A    between atoms: C_20  and  C_21
REMARK    9  A    between atoms: C_20  and  C_22
REMARK                            x       y       z     vdW  Elec       q    Type
REMARK                         _______ _______ _______ _____ _____    ______ ____
ROOT
ATOM      1  C   UNL     1       5.042   5.882  18.403  0.00  0.00    +0.000 C 
ENDROOT
BRANCH   1   2
ATOM      2  C   UNL     1       3.524   5.491  18.357  0.00  0.00    +0.000 C 
ATOM      3  C   UNL     1       2.609   6.738  18.395  0.00  0.00    +0.000 C 
ATOM      4  C   UNL     1       2.291   7.192  19.812  0.00  0.00    +0.000 C 
ATOM      5  C   UNL     1       1.554   6.084  20.549  0.00  0.00    +0.000 C 
ATOM      6  C   UNL     1       2.309   4.781  20.508  0.00  0.00    +0.000 A 
ATOM      7  C   UNL     1       2.067   3.830  21.514  0.00  0.00    +0.000 A 
ATOM      8  C   UNL     1       2.720   2.600  21.503  0.00  0.00    +0.000 A 
ATOM      9  C   UNL     1       3.600   2.293  20.473  0.00  0.00    +0.000 A 
ATOM     10  C   UNL     1       3.827   3.217  19.453  0.00  0.00    +0.000 A 
ATOM     11  C   UNL     1       3.200   4.479  19.456  0.00  0.00    +0.000 A 
BRANCH   2  12
ATOM     12  O   UNL     1       3.291   4.838  17.091  0.00  0.00    +0.000 OA
ATOM     13  H   UNL     1       3.232   3.889  17.289  0.00  0.00    +0.000 HD
ENDBRANCH   2  12
ENDBRANCH   1   2
BRANCH   1  14
ATOM     14  N   UNL     1       5.666   5.866  17.056  0.00  0.00    +0.000 NA
ATOM     15  H   UNL     1       4.926   6.009  16.370  0.00  0.00    +0.000 HD
BRANCH  14  17
ATOM     16  C   UNL     1       7.641   4.523  17.487  0.00  0.00    +0.000 C 
ATOM     17  C   UNL     1       6.304   4.582  16.737  0.00  0.00    +0.000 C 
BRANCH  17  18
ATOM     18  C   UNL     1       6.519   4.472  15.259  0.00  0.00    +0.000 A 
ATOM     19  C   UNL     1       7.439   5.201  14.470  0.00  0.00    +0.000 A 
ATOM     20  N   UNL     1       7.387   4.869  13.177  0.00  0.00    +0.000 NA
ATOM     21  N   UNL     1       6.425   3.928  13.126  0.00  0.00    +0.000 N 
ATOM     22  C   UNL     1       5.886   3.647  14.348  0.00  0.00    +0.000 A 
BRANCH  21  23
ATOM     23  C   UNL     1       6.002   3.368  11.848  0.00  0.00    +0.000 C 
ATOM     24  C   UNL     1       6.712   2.043  11.574  0.00  0.00    +0.000 C 
ATOM     25  C   UNL     1       4.485   3.227  11.757  0.00  0.00    +0.000 C 
ENDBRANCH  21  23
ENDBRANCH  17  18
ENDBRANCH  14  17
ENDBRANCH   1  14
TORSDOF 6
ENDMDL
MODEL 5
REMARK VINA RESULT:      -7.3      1.309      2.314
REMARK  Name = 
REMARK  9 active torsions:
REMARK  status: ('A' for Active; 'I' for Inactive)
REMARK    1  A    between atoms: C_1  and  C_2
REMARK    2  A    between atoms: C_2  and  N_3
REMARK    3  A    between atoms: C_2  and  C_16
REMARK    4  A    between atoms: N_3  and  C_4
REMARK    5  A    between atoms: C_4  and  C_5
REMARK    6  A    between atoms: C_5  and  O_6
REMARK    7  A    between atoms: N_19  and  C_20
REMARK    8  A    between atoms: C_20  and  C_21
REMARK    9  A    between atoms: C_20  and  C_22
REMARK                            x       y       z     vdW  Elec       q    Type
REMARK                         _______ _______ _______ _____ _____    ______ ____
ROOT
ATOM      1  C   UNL     1       5.264   4.684  17.922  0.00  0.00    +0.000 C 
ENDROOT
BRANCH   1   2
ATOM      2  C   UNL     1       3.701   4.563  17.970  0.00  0.00    +0.000 C 
ATOM      3  C   UNL     1       3.011   5.922  17.697  0.00  0.00    +0.000 C 
ATOM      4  C   UNL     1       2.833   6.756  18.957  0.00  0.00    +0.000 C 
ATOM      5  C   UNL     1       1.949   6.006  19.944  0.00  0.00    +0.000 C 
ATOM      6  C   UNL     1       2.472   4.622  20.227  0.00  0.00    +0.000 A 
ATOM      7  C   UNL     1       2.114   4.001  21.436  0.00  0.00    +0.000 A 
ATOM      8  C   UNL     1       2.548   2.711  21.732  0.00  0.00    +0.000 A 
ATOM      9  C   UNL     1       3.321   2.014  20.811  0.00  0.00    +0.000 A 
ATOM     10  C   UNL     1       3.659   2.608  19.594  0.00  0.00    +0.000 A 
ATOM     11  C   UNL     1       3.255   3.922  19.284  0.00  0.00    +0.000 A 
BRANCH   2  12
ATOM     12  O   UNL     1       3.309   3.673  16.904  0.00  0.00    +0.000 OA
ATOM     13  H   UNL     1       2.398   3.920  16.674  0.00  0.00    +0.000 HD
ENDBRANCH   2  12
ENDBRANCH   1   2
BRANCH   1  14
ATOM     14  N   UNL     1       5.837   4.047  16.710  0.00  0.00    +0.000 NA
ATOM     15  H   UNL     1       6.418   3.268  17.014  0.00  0.00    +0.000 HD
BRANCH  14  17
ATOM     16  C   UNL     1       6.161   6.379  16.117  0.00  0.00    +0.000 C 
ATOM     17  C   UNL     1       6.702   4.953  15.943  0.00  0.00    +0.000 C 
BRANCH  17  18
ATOM     18  C   UNL     1       6.701   4.559  14.498  0.00  0.00    +0.000 A 
ATOM     19  C   UNL     1       7.615   4.964  13.497  0.00  0.00    +0.000 A 
ATOM     20  N   UNL     1       7.342   4.434  12.303  0.00  0.00    +0.000 NA
ATOM     21  N   UNL     1       6.242   3.690  12.526  0.00  0.00    +0.000 N 
ATOM     22  C   UNL     1       5.830   3.722  13.827  0.00  0.00    +0.000 A 
BRANCH  21  23
ATOM     23  C   UNL     1       5.570   3.009  11.425  0.00  0.00    +0.000 C 
ATOM     24  C   UNL     1       5.861   1.510  11.455  0.00  0.00    +0.000 C 
ATOM     25  C   UNL     1       4.071   3.295  11.403  0.00  0.00    +0.000 C 
ENDBRANCH  21  23
ENDBRANCH  17  18
ENDBRANCH  14  17
ENDBRANCH   1  14
TORSDOF 6
ENDMDL
MODEL 6
REMARK VINA RESULT:      -7.2      1.490      2.823
REMARK  Name = 
REMARK  9 active torsions:
REMARK  status: ('A' for Active; 'I' for Inactive)
REMARK    1  A    between atoms: C_1  and  C_2
REMARK    2  A    between atoms: C_2  and  N_3
REMARK    3  A    between atoms: C_2  and  C_16
REMARK    4  A    between atoms: N_3  and  C_4
REMARK    5  A    between atoms: C_4  and  C_5
REMARK    6  A    between atoms: C_5  and  O_6
REMARK    7  A    between atoms: N_19  and  C_20
REMARK    8  A    between atoms: C_20  and  C_21
REMARK    9  A    between atoms: C_20  and  C_22
REMARK                            x       y       z     vdW  Elec       q    Type
REMARK                         _______ _______ _______ _____ _____    ______ ____
ROOT
ATOM      1  C   UNL     1       4.825   5.608  18.758  0.00  0.00    +0.000 C 
ENDROOT
BRANCH   1   2
ATOM      2  C   UNL     1       3.281   5.748  18.518  0.00  0.00    +0.000 C 
ATOM      3  C   UNL     1       2.640   6.771  19.487  0.00  0.00    +0.000 C 
ATOM      4  C   UNL     1       2.224   6.147  20.810  0.00  0.00    +0.000 C 
ATOM      5  C   UNL     1       1.180   5.068  20.558  0.00  0.00    +0.000 C 
ATOM      6  C   UNL     1       1.655   4.050  19.555  0.00  0.00    +0.000 A 
ATOM      7  C   UNL     1       1.085   2.764  19.579  0.00  0.00    +0.000 A 
ATOM      8  C   UNL     1       1.471   1.797  18.654  0.00  0.00    +0.000 A 
ATOM      9  C   UNL     1       2.408   2.109  17.677  0.00  0.00    +0.000 A 
ATOM     10  C   UNL     1       2.959   3.390  17.625  0.00  0.00    +0.000 A 
ATOM     11  C   UNL     1       2.606   4.378  18.566  0.00  0.00    +0.000 A 
BRANCH   2  12
ATOM     12  O   UNL     1       3.102   6.267  17.183  0.00  0.00    +0.000 OA
ATOM     13  H   UNL     1       2.185   6.584  17.142  0.00  0.00    +0.000 HD
ENDBRANCH   2  12
ENDBRANCH   1   2
BRANCH   1  14
ATOM     14  N   UNL     1       5.604   5.792  17.508  0.00  0.00    +0.000 NA
ATOM     15  H   UNL     1       4.945   5.989  16.757  0.00  0.00    +0.000 HD
BRANCH  14  17
ATOM     16  C   UNL     1       7.689   4.602  17.867  0.00  0.00    +0.000 C 
ATOM     17  C   UNL     1       6.350   4.588  17.117  0.00  0.00    +0.000 C 
BRANCH  17  18
ATOM     18  C   UNL     1       6.572   4.583  15.636  0.00  0.00    +0.000 A 
ATOM     19  C   UNL     1       7.466   5.395  14.899  0.00  0.00    +0.000 A 
ATOM     20  N   UNL     1       7.429   5.146  13.588  0.00  0.00    +0.000 NA
ATOM     21  N   UNL     1       6.501   4.176  13.472  0.00  0.00    +0.000 N 
ATOM     22  C   UNL     1       5.971   3.797  14.671  0.00  0.00    +0.000 A 
BRANCH  21  23
ATOM     23  C   UNL     1       6.101   3.686  12.158  0.00  0.00    +0.000 C 
ATOM     24  C   UNL     1       6.994   2.529  11.715  0.00  0.00    +0.000 C 
ATOM     25  C   UNL     1       4.622   3.310  12.112  0.00  0.00    +0.000 C 
ENDBRANCH  21  23
ENDBRANCH  17  18
ENDBRANCH  14  17
ENDBRANCH   1  14
TORSDOF 6
ENDMDL
MODEL 7
REMARK VINA RESULT:      -7.2      1.835      3.033
REMARK  Name = 
REMARK  9 active torsions:
REMARK  status: ('A' for Active; 'I' for Inactive)
REMARK    1  A    between atoms: C_1  and  C_2
REMARK    2  A    between atoms: C_2  and  N_3
REMARK    3  A    between atoms: C_2  and  C_16
REMARK    4  A    between atoms: N_3  and  C_4
REMARK    5  A    between atoms: C_4  and  C_5
REMARK    6  A    between atoms: C_5  and  O_6
REMARK    7  A    between atoms: N_19  and  C_20
REMARK    8  A    between atoms: C_20  and  C_21
REMARK    9  A    between atoms: C_20  and  C_22
REMARK                            x       y       z     vdW  Elec       q    Type
REMARK                         _______ _______ _______ _____ _____    ______ ____
ROOT
ATOM      1  C   UNL     1       3.486   4.413  17.181  0.00  0.00    +0.000 C 
ENDROOT
BRANCH   1   2
ATOM      2  C   UNL     1       2.163   4.804  17.927  0.00  0.00    +0.000 C 
ATOM      3  C   UNL     1       2.028   6.337  18.090  0.00  0.00    +0.000 C 
ATOM      4  C   UNL     1       2.709   6.858  19.347  0.00  0.00    +0.000 C 
ATOM      5  C   UNL     1       2.066   6.227  20.574  0.00  0.00    +0.000 C 
ATOM      6  C   UNL     1       2.057   4.723  20.493  0.00  0.00    +0.000 A 
ATOM      7  C   UNL     1       1.989   3.985  21.688  0.00  0.00    +0.000 A 
ATOM      8  C   UNL     1       1.950   2.593  21.665  0.00  0.00    +0.000 A 
ATOM      9  C   UNL     1       1.948   1.922  20.449  0.00  0.00    +0.000 A 
ATOM     10  C   UNL     1       1.987   2.644  19.255  0.00  0.00    +0.000 A 
ATOM     11  C   UNL     1       2.055   4.051  19.253  0.00  0.00    +0.000 A 
BRANCH   2  12
ATOM     12  O   UNL     1       1.063   4.372  17.098  0.00  0.00    +0.000 OA
ATOM     13  H   UNL     1       1.363   3.556  16.665  0.00  0.00    +0.000 HD
ENDBRANCH   2  12
ENDBRANCH   1   2
BRANCH   1  14
ATOM     14  N   UNL     1       4.450   3.723  18.075  0.00  0.00    +0.000 NA
ATOM     15  H   UNL     1       4.185   3.930  19.037  0.00  0.00    +0.000 HD
BRANCH  14  17
ATOM     16  C   UNL     1       5.980   5.508  18.676  0.00  0.00    +0.000 C 
ATOM     17  C   UNL     1       5.830   4.193  17.900  0.00  0.00    +0.000 C 
BRANCH  17  18
ATOM     18  C   UNL     1       6.118   4.401  16.445  0.00  0.00    +0.000 A 
ATOM     19  C   UNL     1       6.552   5.593  15.818  0.00  0.00    +0.000 A 
ATOM     20  N   UNL     1       6.721   5.452  14.501  0.00  0.00    +0.000 NA
ATOM     21  N   UNL     1       6.387   4.167  14.270  0.00  0.00    +0.000 N 
ATOM     22  C   UNL     1       6.033   3.495  15.404  0.00  0.00    +0.000 A 
BRANCH  21  23
ATOM     23  C   UNL     1       6.356   3.641  12.911  0.00  0.00    +0.000 C 
ATOM     24  C   UNL     1       4.923   3.568  12.389  0.00  0.00    +0.000 C 
ATOM     25  C   UNL     1       7.262   4.430  11.969  0.00  0.00    +0.000 C 
ENDBRANCH  21  23
ENDBRANCH  17  18
ENDBRANCH  14  17
ENDBRANCH   1  14
TORSDOF 6
ENDMDL
MODEL 8
REMARK VINA RESULT:      -7.2      1.694      2.377
REMARK  Name = 
REMARK  9 active torsions:
REMARK  status: ('A' for Active; 'I' for Inactive)
REMARK    1  A    between atoms: C_1  and  C_2
REMARK    2  A    between atoms: C_2  and  N_3
REMARK    3  A    between atoms: C_2  and  C_16
REMARK    4  A    between atoms: N_3  and  C_4
REMARK    5  A    between atoms: C_4  and  C_5
REMARK    6  A    between atoms: C_5  and  O_6
REMARK    7  A    between atoms: N_19  and  C_20
REMARK    8  A    between atoms: C_20  and  C_21
REMARK    9  A    between atoms: C_20  and  C_22
REMARK                            x       y       z     vdW  Elec       q    Type
REMARK                         _______ _______ _______ _____ _____    ______ ____
ROOT
ATOM      1  C   UNL     1       5.392   4.036  19.397  0.00  0.00    +0.000 C 
ENDROOT
BRANCH   1   2
ATOM      2  C   UNL     1       4.434   2.866  18.983  0.00  0.00    +0.000 C 
ATOM      3  C   UNL     1       4.192   2.836  17.455  0.00  0.00    +0.000 C 
ATOM      4  C   UNL     1       3.038   3.729  17.024  0.00  0.00    +0.000 C 
ATOM      5  C   UNL     1       1.751   3.251  17.682  0.00  0.00    +0.000 C 
ATOM      6  C   UNL     1       1.888   3.153  19.179  0.00  0.00    +0.000 A 
ATOM      7  C   UNL     1       0.727   3.232  19.968  0.00  0.00    +0.000 A 
ATOM      8  C   UNL     1       0.798   3.118  21.354  0.00  0.00    +0.000 A 
ATOM      9  C   UNL     1       2.025   2.895  21.967  0.00  0.00    +0.000 A 
ATOM     10  C   UNL     1       3.180   2.785  21.193  0.00  0.00    +0.000 A 
ATOM     11  C   UNL     1       3.138   2.925  19.791  0.00  0.00    +0.000 A 
BRANCH   2  12
ATOM     12  O   UNL     1       5.097   1.630  19.326  0.00  0.00    +0.000 OA
ATOM     13  H   UNL     1       5.720   1.454  18.602  0.00  0.00    +0.000 HD
ENDBRANCH   2  12
ENDBRANCH   1   2
BRANCH   1  14
ATOM     14  N   UNL     1       6.594   4.109  18.529  0.00  0.00    +0.000 NA
ATOM     15  H   UNL     1       7.413   3.984  19.121  0.00  0.00    +0.000 HD
BRANCH  14  17
ATOM     16  C   UNL     1       5.748   6.384  18.513  0.00  0.00    +0.000 C 
ATOM     17  C   UNL     1       6.740   5.411  17.864  0.00  0.00    +0.000 C 
BRANCH  17  18
ATOM     18  C   UNL     1       6.463   5.269  16.399  0.00  0.00    +0.000 A 
ATOM     19  C   UNL     1       5.572   6.041  15.616  0.00  0.00    +0.000 A 
ATOM     20  N   UNL     1       5.552   5.666  14.335  0.00  0.00    +0.000 NA
ATOM     21  N   UNL     1       6.425   4.641  14.287  0.00  0.00    +0.000 N 
ATOM     22  C   UNL     1       7.005   4.376  15.494  0.00  0.00    +0.000 A 
BRANCH  21  23
ATOM     23  C   UNL     1       6.620   3.889  13.053  0.00  0.00    +0.000 C 
ATOM     24  C   UNL     1       5.285   3.394  12.501  0.00  0.00    +0.000 C 
ATOM     25  C   UNL     1       7.402   4.686  12.013  0.00  0.00    +0.000 C 
ENDBRANCH  21  23
ENDBRANCH  17  18
ENDBRANCH  14  17
ENDBRANCH   1  14
TORSDOF 6
ENDMDL
MODEL 9
REMARK VINA RESULT:      -7.2      3.810      6.898
REMARK  Name = 
REMARK  9 active torsions:
REMARK  status: ('A' for Active; 'I' for Inactive)
REMARK    1  A    between atoms: C_1  and  C_2
REMARK    2  A    between atoms: C_2  and  N_3
REMARK    3  A    between atoms: C_2  and  C_16
REMARK    4  A    between atoms: N_3  and  C_4
REMARK    5  A    between atoms: C_4  and  C_5
REMARK    6  A    between atoms: C_5  and  O_6
REMARK    7  A    between atoms: N_19  and  C_20
REMARK    8  A    between atoms: C_20  and  C_21
REMARK    9  A    between atoms: C_20  and  C_22
REMARK                            x       y       z     vdW  Elec       q    Type
REMARK                         _______ _______ _______ _____ _____    ______ ____
ROOT
ATOM      1  C   UNL     1       4.641   5.550  19.006  0.00  0.00    +0.000 C 
ENDROOT
BRANCH   1   2
ATOM      2  C   UNL     1       4.465   4.002  18.822  0.00  0.00    +0.000 C 
ATOM      3  C   UNL     1       4.420   3.604  17.327  0.00  0.00    +0.000 C 
ATOM      4  C   UNL     1       3.019   3.679  16.740  0.00  0.00    +0.000 C 
ATOM      5  C   UNL     1       2.104   2.713  17.479  0.00  0.00    +0.000 C 
ATOM      6  C   UNL     1       2.127   2.944  18.967  0.00  0.00    +0.000 A 
ATOM      7  C   UNL     1       1.021   2.531  19.730  0.00  0.00    +0.000 A 
ATOM      8  C   UNL     1       1.007   2.698  21.113  0.00  0.00    +0.000 A 
ATOM      9  C   UNL     1       2.109   3.251  21.754  0.00  0.00    +0.000 A 
ATOM     10  C   UNL     1       3.225   3.637  21.011  0.00  0.00    +0.000 A 
ATOM     11  C   UNL     1       3.252   3.505  19.608  0.00  0.00    +0.000 A 
BRANCH   2  12
ATOM     12  O   UNL     1       5.632   3.370  19.390  0.00  0.00    +0.000 OA
ATOM     13  H   UNL     1       5.494   2.414  19.282  0.00  0.00    +0.000 HD
ENDBRANCH   2  12
ENDBRANCH   1   2
BRANCH   1  14
ATOM     14  N   UNL     1       3.360   6.224  19.333  0.00  0.00    +0.000 NA
ATOM     15  H   UNL     1       2.681   5.503  19.570  0.00  0.00    +0.000 HD
BRANCH  14  17
ATOM     16  C   UNL     1       3.976   7.415  17.309  0.00  0.00    +0.000 C 
ATOM     17  C   UNL     1       2.806   6.978  18.200  0.00  0.00    +0.000 C 
BRANCH  17  18
ATOM     18  C   UNL     1       2.047   8.168  18.701  0.00  0.00    +0.000 A 
ATOM     19  C   UNL     1       1.653   9.308  17.961  0.00  0.00    +0.000 A 
ATOM     20  N   UNL     1       0.985  10.197  18.699  0.00  0.00    +0.000 NA
ATOM     21  N   UNL     1       0.954   9.638  19.924  0.00  0.00    +0.000 N 
ATOM     22  C   UNL     1       1.564   8.418  19.971  0.00  0.00    +0.000 A 
BRANCH  21  23
ATOM     23  C   UNL     1       0.377  10.358  21.053  0.00  0.00    +0.000 C 
ATOM     24  C   UNL     1      -0.754  11.275  20.593  0.00  0.00    +0.000 C 
ATOM     25  C   UNL     1      -0.075   9.415  22.165  0.00  0.00    +0.000 C 
ENDBRANCH  21  23
ENDBRANCH  17  18
ENDBRANCH  14  17
ENDBRANCH   1  14
TORSDOF 6
ENDMDL
