MODEL 1
REMARK VINA RESULT:      -8.7      0.000      0.000
REMARK  Name = 
REMARK  9 active torsions:
REMARK  status: ('A' for Active; 'I' for Inactive)
REMARK    1  A    between atoms: C_1  and  O_2
REMARK    2  A    between atoms: O_2  and  C_3
REMARK    3  A    between atoms: C_9  and  C_10
REMARK    4  A    between atoms: C_12  and  C_13
REMARK    5  A    between atoms: C_13  and  C_14
REMARK    6  A    between atoms: C_14  and  N_15
REMARK    7  A    between atoms: C_18  and  N_19
REMARK    8  A    between atoms: N_19  and  C_20
REMARK    9  A    between atoms: C_20  and  C_21
REMARK                            x       y       z     vdW  Elec       q    Type
REMARK                         _______ _______ _______ _____ _____    ______ ____
ROOT
ATOM      1  N   UNL     1       3.006   2.967  18.635  0.00  0.00    +0.000 NA
ATOM      2  C   UNL     1       3.491   2.942  20.027  0.00  0.00    +0.000 C 
ATOM      3  C   UNL     1       2.361   3.144  21.038  0.00  0.00    +0.000 C 
ATOM      4  C   UNL     1       1.560   4.435  20.789  0.00  0.00    +0.000 C 
ATOM      5  C   UNL     1       1.104   4.396  19.322  0.00  0.00    +0.000 C 
ATOM      6  C   UNL     1       2.292   4.231  18.367  0.00  0.00    +0.000 C 
ENDROOT
BRANCH   4   7
ATOM      7  N   UNL     1       2.342   5.644  21.134  0.00  0.00    +0.000 NA
ATOM      8  H   UNL     1       3.316   5.386  21.291  0.00  0.00    +0.000 HD
BRANCH   7   9
ATOM      9  C   UNL     1       2.325   6.639  20.042  0.00  0.00    +0.000 C 
BRANCH   9  10
ATOM     10  C   UNL     1       1.506   7.862  20.368  0.00  0.00    +0.000 A 
ATOM     11  C   UNL     1       0.925   8.082  21.615  0.00  0.00    +0.000 A 
ATOM     12  C   UNL     1       0.318   9.307  21.858  0.00  0.00    +0.000 A 
ATOM     13  C   UNL     1       0.405  10.307  20.897  0.00  0.00    +0.000 A 
ATOM     14  C   UNL     1       0.900   9.985  19.657  0.00  0.00    +0.000 A 
ATOM     15  N   UNL     1       1.432   8.789  19.370  0.00  0.00    +0.000 NA
ATOM     16  O   UNL     1       0.061  11.603  21.142  0.00  0.00    +0.000 OA
ATOM     17  C   UNL     1      -1.146  11.606  21.900  0.00  0.00    +0.000 C 
ATOM     18  C   UNL     1      -1.069  10.732  23.144  0.00  0.00    +0.000 C 
ATOM     19  O   UNL     1      -0.348   9.494  23.040  0.00  0.00    +0.000 OA
ENDBRANCH   9  10
ENDBRANCH   7   9
ENDBRANCH   4   7
BRANCH   1  20
ATOM     20  C   UNL     1       4.114   2.773  17.669  0.00  0.00    +0.000 C 
BRANCH  20  21
ATOM     21  C   UNL     1       4.036   3.730  16.457  0.00  0.00    +0.000 C 
BRANCH  21  29
ATOM     22  C   UNL     1       5.651   3.377  12.665  0.00  0.00    +0.000 A 
ATOM     23  C   UNL     1       6.827   3.967  12.250  0.00  0.00    +0.000 A 
ATOM     24  C   UNL     1       7.509   4.768  13.164  0.00  0.00    +0.000 A 
ATOM     25  C   UNL     1       7.029   4.945  14.451  0.00  0.00    +0.000 A 
ATOM     26  N   UNL     1       7.707   5.729  15.306  0.00  0.00    +0.000 NA
ATOM     27  C   UNL     1       7.218   5.843  16.559  0.00  0.00    +0.000 A 
ATOM     28  C   UNL     1       6.070   5.205  17.010  0.00  0.00    +0.000 A 
ATOM     29  C   UNL     1       5.350   4.413  16.100  0.00  0.00    +0.000 A 
ATOM     30  C   UNL     1       5.836   4.270  14.794  0.00  0.00    +0.000 A 
ATOM     31  N   UNL     1       5.162   3.511  13.911  0.00  0.00    +0.000 NA
BRANCH  22  33
ATOM     32  C   UNL     1       3.910   3.385  11.112  0.00  0.00    +0.000 C 
ATOM     33  O   UNL     1       4.945   2.632  11.746  0.00  0.00    +0.000 OA
ENDBRANCH  22  33
BRANCH  28  34
ATOM     34  C   UNL     1       5.698   5.401  18.375  0.00  0.00    +0.000 C 
ATOM     35  N   UNL     1       5.460   5.578  19.499  0.00  0.00    +0.000 NA
ENDBRANCH  28  34
ENDBRANCH  21  29
ENDBRANCH  20  21
ENDBRANCH   1  20
TORSDOF 8
ENDMDL
MODEL 2
REMARK VINA RESULT:      -8.6      0.853      1.427
REMARK  Name = 
REMARK  9 active torsions:
REMARK  status: ('A' for Active; 'I' for Inactive)
REMARK    1  A    between atoms: C_1  and  O_2
REMARK    2  A    between atoms: O_2  and  C_3
REMARK    3  A    between atoms: C_9  and  C_10
REMARK    4  A    between atoms: C_12  and  C_13
REMARK    5  A    between atoms: C_13  and  C_14
REMARK    6  A    between atoms: C_14  and  N_15
REMARK    7  A    between atoms: C_18  and  N_19
REMARK    8  A    between atoms: N_19  and  C_20
REMARK    9  A    between atoms: C_20  and  C_21
REMARK                            x       y       z     vdW  Elec       q    Type
REMARK                         _______ _______ _______ _____ _____    ______ ____
ROOT
ATOM      1  N   UNL     1       3.096   2.767  18.591  0.00  0.00    +0.000 NA
ATOM      2  C   UNL     1       3.702   2.890  19.929  0.00  0.00    +0.000 C 
ATOM      3  C   UNL     1       2.651   3.043  21.030  0.00  0.00    +0.000 C 
ATOM      4  C   UNL     1       1.694   4.223  20.783  0.00  0.00    +0.000 C 
ATOM      5  C   UNL     1       1.117   4.034  19.370  0.00  0.00    +0.000 C 
ATOM      6  C   UNL     1       2.226   3.928  18.318  0.00  0.00    +0.000 C 
ENDROOT
BRANCH   4   7
ATOM      7  N   UNL     1       2.365   5.527  20.978  0.00  0.00    +0.000 NA
ATOM      8  H   UNL     1       3.366   5.380  21.107  0.00  0.00    +0.000 HD
BRANCH   7   9
ATOM      9  C   UNL     1       2.203   6.411  19.805  0.00  0.00    +0.000 C 
BRANCH   9  10
ATOM     10  C   UNL     1       1.743   7.800  20.168  0.00  0.00    +0.000 A 
ATOM     11  C   UNL     1       1.514   8.800  19.226  0.00  0.00    +0.000 A 
ATOM     12  C   UNL     1       0.949   9.995  19.650  0.00  0.00    +0.000 A 
ATOM     13  C   UNL     1       0.532  10.115  20.969  0.00  0.00    +0.000 A 
ATOM     14  C   UNL     1       0.885   9.132  21.861  0.00  0.00    +0.000 A 
ATOM     15  N   UNL     1       1.491   7.994  21.494  0.00  0.00    +0.000 NA
ATOM     16  O   UNL     1      -0.246  11.144  21.411  0.00  0.00    +0.000 OA
ATOM     17  C   UNL     1       0.238  12.349  20.824  0.00  0.00    +0.000 C 
ATOM     18  C   UNL     1       0.365  12.264  19.310  0.00  0.00    +0.000 C 
ATOM     19  O   UNL     1       0.819  11.022  18.752  0.00  0.00    +0.000 OA
ENDBRANCH   9  10
ENDBRANCH   7   9
ENDBRANCH   4   7
BRANCH   1  20
ATOM     20  C   UNL     1       4.128   2.623  17.537  0.00  0.00    +0.000 C 
BRANCH  20  21
ATOM     21  C   UNL     1       4.029   3.707  16.439  0.00  0.00    +0.000 C 
BRANCH  21  29
ATOM     22  C   UNL     1       5.743   3.424  12.685  0.00  0.00    +0.000 A 
ATOM     23  C   UNL     1       6.919   4.038  12.306  0.00  0.00    +0.000 A 
ATOM     24  C   UNL     1       7.566   4.838  13.247  0.00  0.00    +0.000 A 
ATOM     25  C   UNL     1       7.052   4.993  14.523  0.00  0.00    +0.000 A 
ATOM     26  N   UNL     1       7.695   5.777  15.404  0.00  0.00    +0.000 NA
ATOM     27  C   UNL     1       7.174   5.867  16.645  0.00  0.00    +0.000 A 
ATOM     28  C   UNL     1       6.025   5.207  17.060  0.00  0.00    +0.000 A 
ATOM     29  C   UNL     1       5.340   4.414  16.124  0.00  0.00    +0.000 A 
ATOM     30  C   UNL     1       5.861   4.295  14.828  0.00  0.00    +0.000 A 
ATOM     31  N   UNL     1       5.221   3.536  13.920  0.00  0.00    +0.000 NA
BRANCH  22  33
ATOM     32  C   UNL     1       3.900   3.338  11.257  0.00  0.00    +0.000 C 
ATOM     33  O   UNL     1       5.072   2.679  11.740  0.00  0.00    +0.000 OA
ENDBRANCH  22  33
BRANCH  28  34
ATOM     34  C   UNL     1       5.616   5.381  18.418  0.00  0.00    +0.000 C 
ATOM     35  N   UNL     1       5.326   5.575  19.526  0.00  0.00    +0.000 NA
ENDBRANCH  28  34
ENDBRANCH  21  29
ENDBRANCH  20  21
ENDBRANCH   1  20
TORSDOF 8
ENDMDL
MODEL 3
REMARK VINA RESULT:      -8.4      2.703      5.187
REMARK  Name = 
REMARK  9 active torsions:
REMARK  status: ('A' for Active; 'I' for Inactive)
REMARK    1  A    between atoms: C_1  and  O_2
REMARK    2  A    between atoms: O_2  and  C_3
REMARK    3  A    between atoms: C_9  and  C_10
REMARK    4  A    between atoms: C_12  and  C_13
REMARK    5  A    between atoms: C_13  and  C_14
REMARK    6  A    between atoms: C_14  and  N_15
REMARK    7  A    between atoms: C_18  and  N_19
REMARK    8  A    between atoms: N_19  and  C_20
REMARK    9  A    between atoms: C_20  and  C_21
REMARK                            x       y       z     vdW  Elec       q    Type
REMARK                         _______ _______ _______ _____ _____    ______ ____
ROOT
ATOM      1  N   UNL     1       1.641   8.117  19.107  0.00  0.00    +0.000 NA
ATOM      2  C   UNL     1       1.712   8.008  20.575  0.00  0.00    +0.000 C 
ATOM      3  C   UNL     1       0.433   8.498  21.256  0.00  0.00    +0.000 C 
ATOM      4  C   UNL     1       0.059   9.938  20.859  0.00  0.00    +0.000 C 
ATOM      5  C   UNL     1       0.020   9.975  19.322  0.00  0.00    +0.000 C 
ATOM      6  C   UNL     1       1.347   9.509  18.713  0.00  0.00    +0.000 C 
ENDROOT
BRANCH   4   7
ATOM      7  N   UNL     1       0.982  10.931  21.452  0.00  0.00    +0.000 NA
ATOM      8  H   UNL     1       1.900  10.846  21.015  0.00  0.00    +0.000 HD
BRANCH   7   9
ATOM      9  C   UNL     1       0.520  12.316  21.225  0.00  0.00    +0.000 C 
BRANCH   9  10
ATOM     10  C   UNL     1      -0.894  12.552  21.693  0.00  0.00    +0.000 A 
ATOM     11  C   UNL     1      -1.943  12.858  20.829  0.00  0.00    +0.000 A 
ATOM     12  C   UNL     1      -3.233  12.908  21.342  0.00  0.00    +0.000 A 
ATOM     13  C   UNL     1      -3.448  12.546  22.666  0.00  0.00    +0.000 A 
ATOM     14  C   UNL     1      -2.359  12.358  23.480  0.00  0.00    +0.000 A 
ATOM     15  N   UNL     1      -1.097  12.370  23.029  0.00  0.00    +0.000 NA
ATOM     16  O   UNL     1      -4.691  12.328  23.182  0.00  0.00    +0.000 OA
ATOM     17  C   UNL     1      -5.560  13.346  22.692  0.00  0.00    +0.000 C 
ATOM     18  C   UNL     1      -5.525  13.477  21.176  0.00  0.00    +0.000 C 
ATOM     19  O   UNL     1      -4.255  13.312  20.526  0.00  0.00    +0.000 OA
ENDBRANCH   9  10
ENDBRANCH   7   9
ENDBRANCH   4   7
BRANCH   1  20
ATOM     20  C   UNL     1       2.889   7.641  18.464  0.00  0.00    +0.000 C 
BRANCH  20  21
ATOM     21  C   UNL     1       3.571   6.491  19.241  0.00  0.00    +0.000 C 
BRANCH  21  29
ATOM     22  C   UNL     1       6.667   5.846  16.575  0.00  0.00    +0.000 A 
ATOM     23  C   UNL     1       6.852   4.690  15.845  0.00  0.00    +0.000 A 
ATOM     24  C   UNL     1       5.947   3.648  16.039  0.00  0.00    +0.000 A 
ATOM     25  C   UNL     1       4.888   3.781  16.922  0.00  0.00    +0.000 A 
ATOM     26  N   UNL     1       4.037   2.755  17.091  0.00  0.00    +0.000 NA
ATOM     27  C   UNL     1       3.002   2.945  17.935  0.00  0.00    +0.000 A 
ATOM     28  C   UNL     1       2.767   4.124  18.630  0.00  0.00    +0.000 A 
ATOM     29  C   UNL     1       3.679   5.181  18.472  0.00  0.00    +0.000 A 
ATOM     30  C   UNL     1       4.762   5.016  17.597  0.00  0.00    +0.000 A 
ATOM     31  N   UNL     1       5.642   6.020  17.429  0.00  0.00    +0.000 NA
BRANCH  22  33
ATOM     32  C   UNL     1       7.601   7.755  17.537  0.00  0.00    +0.000 C 
ATOM     33  O   UNL     1       7.593   6.856  16.427  0.00  0.00    +0.000 OA
ENDBRANCH  22  33
BRANCH  28  34
ATOM     34  C   UNL     1       1.609   4.181  19.464  0.00  0.00    +0.000 C 
ATOM     35  N   UNL     1       0.635   4.185  20.099  0.00  0.00    +0.000 NA
ENDBRANCH  28  34
ENDBRANCH  21  29
ENDBRANCH  20  21
ENDBRANCH   1  20
TORSDOF 8
ENDMDL
MODEL 4
REMARK VINA RESULT:      -8.4      3.688      6.100
REMARK  Name = 
REMARK  9 active torsions:
REMARK  status: ('A' for Active; 'I' for Inactive)
REMARK    1  A    between atoms: C_1  and  O_2
REMARK    2  A    between atoms: O_2  and  C_3
REMARK    3  A    between atoms: C_9  and  C_10
REMARK    4  A    between atoms: C_12  and  C_13
REMARK    5  A    between atoms: C_13  and  C_14
REMARK    6  A    between atoms: C_14  and  N_15
REMARK    7  A    between atoms: C_18  and  N_19
REMARK    8  A    between atoms: N_19  and  C_20
REMARK    9  A    between atoms: C_20  and  C_21
REMARK                            x       y       z     vdW  Elec       q    Type
REMARK                         _______ _______ _______ _____ _____    ______ ____
ROOT
ATOM      1  N   UNL     1       1.811   8.674  19.767  0.00  0.00    +0.000 NA
ATOM      2  C   UNL     1       1.679   9.068  18.352  0.00  0.00    +0.000 C 
ATOM      3  C   UNL     1       1.398  10.563  18.191  0.00  0.00    +0.000 C 
ATOM      4  C   UNL     1       0.159  11.026  18.977  0.00  0.00    +0.000 C 
ATOM      5  C   UNL     1       0.362  10.568  20.431  0.00  0.00    +0.000 C 
ATOM      6  C   UNL     1       0.598   9.056  20.517  0.00  0.00    +0.000 C 
ENDROOT
BRANCH   4   7
ATOM      7  N   UNL     1      -1.097  10.531  18.370  0.00  0.00    +0.000 NA
ATOM      8  H   UNL     1      -1.657  10.061  19.082  0.00  0.00    +0.000 HD
BRANCH   7   9
ATOM      9  C   UNL     1      -1.918  11.633  17.828  0.00  0.00    +0.000 C 
BRANCH   9  10
ATOM     10  C   UNL     1      -3.329  11.637  18.360  0.00  0.00    +0.000 A 
ATOM     11  C   UNL     1      -3.685  12.217  19.576  0.00  0.00    +0.000 A 
ATOM     12  C   UNL     1      -5.032  12.299  19.903  0.00  0.00    +0.000 A 
ATOM     13  C   UNL     1      -5.980  11.904  18.967  0.00  0.00    +0.000 A 
ATOM     14  C   UNL     1      -5.555  11.249  17.838  0.00  0.00    +0.000 A 
ATOM     15  N   UNL     1      -4.261  11.093  17.526  0.00  0.00    +0.000 NA
ATOM     16  O   UNL     1      -7.310  12.175  19.099  0.00  0.00    +0.000 OA
ATOM     17  C   UNL     1      -7.677  11.944  20.456  0.00  0.00    +0.000 C 
ATOM     18  C   UNL     1      -6.787  12.680  21.446  0.00  0.00    +0.000 C 
ATOM     19  O   UNL     1      -5.387  12.769  21.139  0.00  0.00    +0.000 OA
ENDBRANCH   9  10
ENDBRANCH   7   9
ENDBRANCH   4   7
BRANCH   1  20
ATOM     20  C   UNL     1       2.079   7.222  19.904  0.00  0.00    +0.000 C 
BRANCH  20  21
ATOM     21  C   UNL     1       2.514   6.558  18.578  0.00  0.00    +0.000 C 
BRANCH  21  29
ATOM     22  C   UNL     1       6.482   6.770  17.425  0.00  0.00    +0.000 A 
ATOM     23  C   UNL     1       7.395   5.743  17.545  0.00  0.00    +0.000 A 
ATOM     24  C   UNL     1       6.959   4.552  18.126  0.00  0.00    +0.000 A 
ATOM     25  C   UNL     1       5.648   4.404  18.547  0.00  0.00    +0.000 A 
ATOM     26  N   UNL     1       5.263   3.247  19.110  0.00  0.00    +0.000 NA
ATOM     27  C   UNL     1       3.967   3.138  19.472  0.00  0.00    +0.000 A 
ATOM     28  C   UNL     1       3.022   4.141  19.300  0.00  0.00    +0.000 A 
ATOM     29  C   UNL     1       3.441   5.360  18.741  0.00  0.00    +0.000 A 
ATOM     30  C   UNL     1       4.779   5.500  18.349  0.00  0.00    +0.000 A 
ATOM     31  N   UNL     1       5.196   6.659  17.806  0.00  0.00    +0.000 NA
BRANCH  22  33
ATOM     32  C   UNL     1       7.931   8.574  17.714  0.00  0.00    +0.000 C 
ATOM     33  O   UNL     1       6.924   7.966  16.904  0.00  0.00    +0.000 OA
ENDBRANCH  22  33
BRANCH  28  34
ATOM     34  C   UNL     1       1.681   3.863  19.708  0.00  0.00    +0.000 C 
ATOM     35  N   UNL     1       0.599   3.572  20.018  0.00  0.00    +0.000 NA
ENDBRANCH  28  34
ENDBRANCH  21  29
ENDBRANCH  20  21
ENDBRANCH   1  20
TORSDOF 8
ENDMDL
MODEL 5
REMARK VINA RESULT:      -8.3      1.475      2.101
REMARK  Name = 
REMARK  9 active torsions:
REMARK  status: ('A' for Active; 'I' for Inactive)
REMARK    1  A    between atoms: C_1  and  O_2
REMARK    2  A    between atoms: O_2  and  C_3
REMARK    3  A    between atoms: C_9  and  C_10
REMARK    4  A    between atoms: C_12  and  C_13
REMARK    5  A    between atoms: C_13  and  C_14
REMARK    6  A    between atoms: C_14  and  N_15
REMARK    7  A    between atoms: C_18  and  N_19
REMARK    8  A    between atoms: N_19  and  C_20
REMARK    9  A    between atoms: C_20  and  C_21
REMARK                            x       y       z     vdW  Elec       q    Type
REMARK                         _______ _______ _______ _____ _____    ______ ____
ROOT
ATOM      1  N   UNL     1       3.249   2.176  18.534  0.00  0.00    +0.000 NA
ATOM      2  C   UNL     1       3.551   2.953  19.751  0.00  0.00    +0.000 C 
ATOM      3  C   UNL     1       2.528   2.712  20.861  0.00  0.00    +0.000 C 
ATOM      4  C   UNL     1       1.082   2.990  20.413  0.00  0.00    +0.000 C 
ATOM      5  C   UNL     1       0.848   2.162  19.139  0.00  0.00    +0.000 C 
ATOM      6  C   UNL     1       1.886   2.486  18.058  0.00  0.00    +0.000 C 
ENDROOT
BRANCH   4   7
ATOM      7  N   UNL     1       0.829   4.437  20.233  0.00  0.00    +0.000 NA
ATOM      8  H   UNL     1       0.003   4.708  20.768  0.00  0.00    +0.000 HD
BRANCH   7   9
ATOM      9  C   UNL     1       1.954   5.258  20.726  0.00  0.00    +0.000 C 
BRANCH   9  10
ATOM     10  C   UNL     1       1.791   6.727  20.429  0.00  0.00    +0.000 A 
ATOM     11  C   UNL     1       2.211   7.317  19.239  0.00  0.00    +0.000 A 
ATOM     12  C   UNL     1       1.879   8.644  19.002  0.00  0.00    +0.000 A 
ATOM     13  C   UNL     1       1.051   9.304  19.901  0.00  0.00    +0.000 A 
ATOM     14  C   UNL     1       0.763   8.695  21.097  0.00  0.00    +0.000 A 
ATOM     15  N   UNL     1       1.127   7.437  21.385  0.00  0.00    +0.000 NA
ATOM     16  O   UNL     1       0.477  10.511  19.632  0.00  0.00    +0.000 OA
ATOM     17  C   UNL     1       1.453  11.336  19.001  0.00  0.00    +0.000 C 
ATOM     18  C   UNL     1       2.106  10.670  17.798  0.00  0.00    +0.000 C 
ATOM     19  O   UNL     1       2.377   9.263  17.886  0.00  0.00    +0.000 OA
ENDBRANCH   9  10
ENDBRANCH   7   9
ENDBRANCH   4   7
BRANCH   1  20
ATOM     20  C   UNL     1       4.248   2.425  17.468  0.00  0.00    +0.000 C 
BRANCH  20  21
ATOM     21  C   UNL     1       4.050   3.784  16.757  0.00  0.00    +0.000 C 
BRANCH  21  29
ATOM     22  C   UNL     1       5.599   3.509  12.930  0.00  0.00    +0.000 A 
ATOM     23  C   UNL     1       6.753   4.130  12.500  0.00  0.00    +0.000 A 
ATOM     24  C   UNL     1       7.436   4.936  13.411  0.00  0.00    +0.000 A 
ATOM     25  C   UNL     1       6.977   5.088  14.709  0.00  0.00    +0.000 A 
ATOM     26  N   UNL     1       7.654   5.877  15.560  0.00  0.00    +0.000 NA
ATOM     27  C   UNL     1       7.187   5.965  16.823  0.00  0.00    +0.000 A 
ATOM     28  C   UNL     1       6.062   5.297  17.289  0.00  0.00    +0.000 A 
ATOM     29  C   UNL     1       5.342   4.499  16.383  0.00  0.00    +0.000 A 
ATOM     30  C   UNL     1       5.806   4.383  15.066  0.00  0.00    +0.000 A 
ATOM     31  N   UNL     1       5.131   3.619  14.187  0.00  0.00    +0.000 NA
BRANCH  22  33
ATOM     32  C   UNL     1       5.724   1.846  11.300  0.00  0.00    +0.000 C 
ATOM     33  O   UNL     1       4.892   2.759  12.016  0.00  0.00    +0.000 OA
ENDBRANCH  22  33
BRANCH  28  34
ATOM     34  C   UNL     1       5.712   5.469  18.663  0.00  0.00    +0.000 C 
ATOM     35  N   UNL     1       5.490   5.636  19.791  0.00  0.00    +0.000 NA
ENDBRANCH  28  34
ENDBRANCH  21  29
ENDBRANCH  20  21
ENDBRANCH   1  20
TORSDOF 8
ENDMDL
MODEL 6
REMARK VINA RESULT:      -8.3      3.591      5.804
REMARK  Name = 
REMARK  9 active torsions:
REMARK  status: ('A' for Active; 'I' for Inactive)
REMARK    1  A    between atoms: C_1  and  O_2
REMARK    2  A    between atoms: O_2  and  C_3
REMARK    3  A    between atoms: C_9  and  C_10
REMARK    4  A    between atoms: C_12  and  C_13
REMARK    5  A    between atoms: C_13  and  C_14
REMARK    6  A    between atoms: C_14  and  N_15
REMARK    7  A    between atoms: C_18  and  N_19
REMARK    8  A    between atoms: N_19  and  C_20
REMARK    9  A    between atoms: C_20  and  C_21
REMARK                            x       y       z     vdW  Elec       q    Type
REMARK                         _______ _______ _______ _____ _____    ______ ____
ROOT
ATOM      1  N   UNL     1       1.858   7.724  20.267  0.00  0.00    +0.000 NA
ATOM      2  C   UNL     1       1.627   8.176  18.883  0.00  0.00    +0.000 C 
ATOM      3  C   UNL     1       1.678   9.699  18.754  0.00  0.00    +0.000 C 
ATOM      4  C   UNL     1       0.699  10.412  19.705  0.00  0.00    +0.000 C 
ATOM      5  C   UNL     1       0.990   9.881  21.117  0.00  0.00    +0.000 C 
ATOM      6  C   UNL     1       0.882   8.353  21.178  0.00  0.00    +0.000 C 
ENDROOT
BRANCH   4   7
ATOM      7  N   UNL     1      -0.708  10.233  19.283  0.00  0.00    +0.000 NA
ATOM      8  H   UNL     1      -1.327  10.423  20.072  0.00  0.00    +0.000 HD
BRANCH   7   9
ATOM      9  C   UNL     1      -1.082  11.169  18.203  0.00  0.00    +0.000 C 
BRANCH   9  10
ATOM     10  C   UNL     1      -2.572  11.361  18.075  0.00  0.00    +0.000 A 
ATOM     11  C   UNL     1      -3.366  11.878  19.096  0.00  0.00    +0.000 A 
ATOM     12  C   UNL     1      -4.700  12.155  18.825  0.00  0.00    +0.000 A 
ATOM     13  C   UNL     1      -5.169  12.013  17.526  0.00  0.00    +0.000 A 
ATOM     14  C   UNL     1      -4.361  11.401  16.599  0.00  0.00    +0.000 A 
ATOM     15  N   UNL     1      -3.088  11.060  16.849  0.00  0.00    +0.000 NA
ATOM     16  O   UNL     1      -6.379  12.489  17.118  0.00  0.00    +0.000 OA
ATOM     17  C   UNL     1      -7.335  12.199  18.134  0.00  0.00    +0.000 C 
ATOM     18  C   UNL     1      -6.904  12.682  19.511  0.00  0.00    +0.000 C 
ATOM     19  O   UNL     1      -5.513  12.562  19.849  0.00  0.00    +0.000 OA
ENDBRANCH   9  10
ENDBRANCH   7   9
ENDBRANCH   4   7
BRANCH   1  20
ATOM     20  C   UNL     1       1.802   6.246  20.374  0.00  0.00    +0.000 C 
BRANCH  20  21
ATOM     21  C   UNL     1       3.199   5.584  20.363  0.00  0.00    +0.000 C 
BRANCH  21  29
ATOM     22  C   UNL     1       5.218   5.834  16.761  0.00  0.00    +0.000 A 
ATOM     23  C   UNL     1       5.388   4.788  15.877  0.00  0.00    +0.000 A 
ATOM     24  C   UNL     1       4.867   3.545  16.234  0.00  0.00    +0.000 A 
ATOM     25  C   UNL     1       4.185   3.376  17.428  0.00  0.00    +0.000 A 
ATOM     26  N   UNL     1       3.702   2.164  17.745  0.00  0.00    +0.000 NA
ATOM     27  C   UNL     1       3.015   2.057  18.902  0.00  0.00    +0.000 A 
ATOM     28  C   UNL     1       2.782   3.114  19.773  0.00  0.00    +0.000 A 
ATOM     29  C   UNL     1       3.319   4.371  19.449  0.00  0.00    +0.000 A 
ATOM     30  C   UNL     1       4.032   4.515  18.250  0.00  0.00    +0.000 A 
ATOM     31  N   UNL     1       4.548   5.713  17.921  0.00  0.00    +0.000 NA
BRANCH  22  33
ATOM     32  C   UNL     1       6.917   7.357  17.247  0.00  0.00    +0.000 C 
ATOM     33  O   UNL     1       5.782   7.049  16.437  0.00  0.00    +0.000 OA
ENDBRANCH  22  33
BRANCH  28  34
ATOM     34  C   UNL     1       2.011   2.848  20.945  0.00  0.00    +0.000 C 
ATOM     35  N   UNL     1       1.411   2.569  21.900  0.00  0.00    +0.000 NA
ENDBRANCH  28  34
ENDBRANCH  21  29
ENDBRANCH  20  21
ENDBRANCH   1  20
TORSDOF 8
ENDMDL
MODEL 7
REMARK VINA RESULT:      -8.3      3.275      5.784
REMARK  Name = 
REMARK  9 active torsions:
REMARK  status: ('A' for Active; 'I' for Inactive)
REMARK    1  A    between atoms: C_1  and  O_2
REMARK    2  A    between atoms: O_2  and  C_3
REMARK    3  A    between atoms: C_9  and  C_10
REMARK    4  A    between atoms: C_12  and  C_13
REMARK    5  A    between atoms: C_13  and  C_14
REMARK    6  A    between atoms: C_14  and  N_15
REMARK    7  A    between atoms: C_18  and  N_19
REMARK    8  A    between atoms: N_19  and  C_20
REMARK    9  A    between atoms: C_20  and  C_21
REMARK                            x       y       z     vdW  Elec       q    Type
REMARK                         _______ _______ _______ _____ _____    ______ ____
ROOT
ATOM      1  N   UNL     1       1.885   8.657  19.818  0.00  0.00    +0.000 NA
ATOM      2  C   UNL     1       1.581   9.182  18.474  0.00  0.00    +0.000 C 
ATOM      3  C   UNL     1       1.483  10.708  18.457  0.00  0.00    +0.000 C 
ATOM      4  C   UNL     1       0.462  11.253  19.472  0.00  0.00    +0.000 C 
ATOM      5  C   UNL     1       0.833  10.652  20.837  0.00  0.00    +0.000 C 
ATOM      6  C   UNL     1       0.873   9.121  20.787  0.00  0.00    +0.000 C 
ENDROOT
BRANCH   4   7
ATOM      7  N   UNL     1      -0.931  10.969  19.060  0.00  0.00    +0.000 NA
ATOM      8  H   UNL     1      -1.374  10.362  19.751  0.00  0.00    +0.000 HD
BRANCH   7   9
ATOM      9  C   UNL     1      -1.744  12.200  18.979  0.00  0.00    +0.000 C 
BRANCH   9  10
ATOM     10  C   UNL     1      -2.753  12.318  20.092  0.00  0.00    +0.000 A 
ATOM     11  C   UNL     1      -2.404  12.344  21.440  0.00  0.00    +0.000 A 
ATOM     12  C   UNL     1      -3.394  12.607  22.378  0.00  0.00    +0.000 A 
ATOM     13  C   UNL     1      -4.669  12.942  21.939  0.00  0.00    +0.000 A 
ATOM     14  C   UNL     1      -4.964  12.795  20.606  0.00  0.00    +0.000 A 
ATOM     15  N   UNL     1      -4.045  12.476  19.683  0.00  0.00    +0.000 NA
ATOM     16  O   UNL     1      -5.628  13.450  22.764  0.00  0.00    +0.000 OA
ATOM     17  C   UNL     1      -5.589  12.724  23.989  0.00  0.00    +0.000 C 
ATOM     18  C   UNL     1      -4.198  12.668  24.604  0.00  0.00    +0.000 C 
ATOM     19  O   UNL     1      -3.084  12.529  23.709  0.00  0.00    +0.000 OA
ENDBRANCH   9  10
ENDBRANCH   7   9
ENDBRANCH   4   7
BRANCH   1  20
ATOM     20  C   UNL     1       1.973   7.177  19.817  0.00  0.00    +0.000 C 
BRANCH  20  21
ATOM     21  C   UNL     1       2.600   6.608  18.523  0.00  0.00    +0.000 C 
BRANCH  21  29
ATOM     22  C   UNL     1       6.585   6.807  17.429  0.00  0.00    +0.000 A 
ATOM     23  C   UNL     1       7.501   5.789  17.595  0.00  0.00    +0.000 A 
ATOM     24  C   UNL     1       7.062   4.613  18.203  0.00  0.00    +0.000 A 
ATOM     25  C   UNL     1       5.745   4.471  18.607  0.00  0.00    +0.000 A 
ATOM     26  N   UNL     1       5.355   3.328  19.196  0.00  0.00    +0.000 NA
ATOM     27  C   UNL     1       4.055   3.224  19.540  0.00  0.00    +0.000 A 
ATOM     28  C   UNL     1       3.107   4.216  19.324  0.00  0.00    +0.000 A 
ATOM     29  C   UNL     1       3.530   5.420  18.737  0.00  0.00    +0.000 A 
ATOM     30  C   UNL     1       4.874   5.556  18.362  0.00  0.00    +0.000 A 
ATOM     31  N   UNL     1       5.294   6.701  17.793  0.00  0.00    +0.000 NA
BRANCH  22  33
ATOM     32  C   UNL     1       7.919   8.694  17.750  0.00  0.00    +0.000 C 
ATOM     33  O   UNL     1       7.030   7.990  16.881  0.00  0.00    +0.000 OA
ENDBRANCH  22  33
BRANCH  28  34
ATOM     34  C   UNL     1       1.762   3.942  19.718  0.00  0.00    +0.000 C 
ATOM     35  N   UNL     1       0.685   3.735  20.103  0.00  0.00    +0.000 NA
ENDBRANCH  28  34
ENDBRANCH  21  29
ENDBRANCH  20  21
ENDBRANCH   1  20
TORSDOF 8
ENDMDL
MODEL 8
REMARK VINA RESULT:      -8.2      3.318      5.684
REMARK  Name = 
REMARK  9 active torsions:
REMARK  status: ('A' for Active; 'I' for Inactive)
REMARK    1  A    between atoms: C_1  and  O_2
REMARK    2  A    between atoms: O_2  and  C_3
REMARK    3  A    between atoms: C_9  and  C_10
REMARK    4  A    between atoms: C_12  and  C_13
REMARK    5  A    between atoms: C_13  and  C_14
REMARK    6  A    between atoms: C_14  and  N_15
REMARK    7  A    between atoms: C_18  and  N_19
REMARK    8  A    between atoms: N_19  and  C_20
REMARK    9  A    between atoms: C_20  and  C_21
REMARK                            x       y       z     vdW  Elec       q    Type
REMARK                         _______ _______ _______ _____ _____    ______ ____
ROOT
ATOM      1  N   UNL     1       1.279   8.238  20.077  0.00  0.00    +0.000 NA
ATOM      2  C   UNL     1       0.993   8.264  21.523  0.00  0.00    +0.000 C 
ATOM      3  C   UNL     1      -0.376   8.873  21.832  0.00  0.00    +0.000 C 
ATOM      4  C   UNL     1      -0.550  10.284  21.242  0.00  0.00    +0.000 C 
ATOM      5  C   UNL     1      -0.221  10.179  19.744  0.00  0.00    +0.000 C 
ATOM      6  C   UNL     1       1.179   9.599  19.514  0.00  0.00    +0.000 C 
ENDROOT
BRANCH   4   7
ATOM      7  N   UNL     1       0.270  11.287  21.959  0.00  0.00    +0.000 NA
ATOM      8  H   UNL     1       1.219  11.281  21.584  0.00  0.00    +0.000 HD
BRANCH   7   9
ATOM      9  C   UNL     1      -0.258  12.655  21.786  0.00  0.00    +0.000 C 
BRANCH   9  10
ATOM     10  C   UNL     1      -1.747  12.747  22.003  0.00  0.00    +0.000 A 
ATOM     11  C   UNL     1      -2.370  12.378  23.193  0.00  0.00    +0.000 A 
ATOM     12  C   UNL     1      -3.725  12.642  23.344  0.00  0.00    +0.000 A 
ATOM     13  C   UNL     1      -4.387  13.360  22.356  0.00  0.00    +0.000 A 
ATOM     14  C   UNL     1      -3.738  13.598  21.170  0.00  0.00    +0.000 A 
ATOM     15  N   UNL     1      -2.447  13.294  20.969  0.00  0.00    +0.000 NA
ATOM     16  O   UNL     1      -5.638  13.875  22.526  0.00  0.00    +0.000 OA
ATOM     17  C   UNL     1      -6.434  12.896  23.190  0.00  0.00    +0.000 C 
ATOM     18  C   UNL     1      -5.792  12.375  24.468  0.00  0.00    +0.000 C 
ATOM     19  O   UNL     1      -4.368  12.188  24.465  0.00  0.00    +0.000 OA
ENDBRANCH   9  10
ENDBRANCH   7   9
ENDBRANCH   4   7
BRANCH   1  20
ATOM     20  C   UNL     1       2.610   7.649  19.796  0.00  0.00    +0.000 C 
BRANCH  20  21
ATOM     21  C   UNL     1       2.592   6.644  18.621  0.00  0.00    +0.000 C 
BRANCH  21  29
ATOM     22  C   UNL     1       6.540   6.772  17.392  0.00  0.00    +0.000 A 
ATOM     23  C   UNL     1       7.442   5.737  17.525  0.00  0.00    +0.000 A 
ATOM     24  C   UNL     1       7.003   4.568  18.147  0.00  0.00    +0.000 A 
ATOM     25  C   UNL     1       5.698   4.449  18.595  0.00  0.00    +0.000 A 
ATOM     26  N   UNL     1       5.308   3.313  19.197  0.00  0.00    +0.000 NA
ATOM     27  C   UNL     1       4.018   3.232  19.585  0.00  0.00    +0.000 A 
ATOM     28  C   UNL     1       3.082   4.241  19.402  0.00  0.00    +0.000 A 
ATOM     29  C   UNL     1       3.506   5.439  18.802  0.00  0.00    +0.000 A 
ATOM     30  C   UNL     1       4.839   5.551  18.382  0.00  0.00    +0.000 A 
ATOM     31  N   UNL     1       5.261   6.689  17.800  0.00  0.00    +0.000 NA
BRANCH  22  33
ATOM     32  C   UNL     1       7.910   8.638  17.674  0.00  0.00    +0.000 C 
ATOM     33  O   UNL     1       6.988   7.947  16.830  0.00  0.00    +0.000 OA
ENDBRANCH  22  33
BRANCH  28  34
ATOM     34  C   UNL     1       1.746   3.992  19.841  0.00  0.00    +0.000 C 
ATOM     35  N   UNL     1       0.637   3.823  20.143  0.00  0.00    +0.000 NA
ENDBRANCH  28  34
ENDBRANCH  21  29
ENDBRANCH  20  21
ENDBRANCH   1  20
TORSDOF 8
ENDMDL
MODEL 9
REMARK VINA RESULT:      -8.2      3.483      5.689
REMARK  Name = 
REMARK  9 active torsions:
REMARK  status: ('A' for Active; 'I' for Inactive)
REMARK    1  A    between atoms: C_1  and  O_2
REMARK    2  A    between atoms: O_2  and  C_3
REMARK    3  A    between atoms: C_9  and  C_10
REMARK    4  A    between atoms: C_12  and  C_13
REMARK    5  A    between atoms: C_13  and  C_14
REMARK    6  A    between atoms: C_14  and  N_15
REMARK    7  A    between atoms: C_18  and  N_19
REMARK    8  A    between atoms: N_19  and  C_20
REMARK    9  A    between atoms: C_20  and  C_21
REMARK                            x       y       z     vdW  Elec       q    Type
REMARK                         _______ _______ _______ _____ _____    ______ ____
ROOT
ATOM      1  N   UNL     1       1.353   8.207  19.251  0.00  0.00    +0.000 NA
ATOM      2  C   UNL     1       1.557   8.190  20.712  0.00  0.00    +0.000 C 
ATOM      3  C   UNL     1       0.350   8.745  21.471  0.00  0.00    +0.000 C 
ATOM      4  C   UNL     1      -0.043  10.162  21.016  0.00  0.00    +0.000 C 
ATOM      5  C   UNL     1      -0.221  10.102  19.490  0.00  0.00    +0.000 C 
ATOM      6  C   UNL     1       1.040   9.576  18.796  0.00  0.00    +0.000 C 
ENDROOT
BRANCH   4   7
ATOM      7  N   UNL     1       0.941  11.176  21.458  0.00  0.00    +0.000 NA
ATOM      8  H   UNL     1       1.839  10.998  21.007  0.00  0.00    +0.000 HD
BRANCH   7   9
ATOM      9  C   UNL     1       0.528  12.543  21.081  0.00  0.00    +0.000 C 
BRANCH   9  10
ATOM     10  C   UNL     1       1.595  13.297  20.329  0.00  0.00    +0.000 A 
ATOM     11  C   UNL     1       2.646  13.963  20.955  0.00  0.00    +0.000 A 
ATOM     12  C   UNL     1       3.657  14.499  20.168  0.00  0.00    +0.000 A 
ATOM     13  C   UNL     1       3.645  14.260  18.799  0.00  0.00    +0.000 A 
ATOM     14  C   UNL     1       2.528  13.688  18.242  0.00  0.00    +0.000 A 
ATOM     15  N   UNL     1       1.504  13.221  18.970  0.00  0.00    +0.000 NA
ATOM     16  O   UNL     1       4.709  14.530  17.990  0.00  0.00    +0.000 OA
ATOM     17  C   UNL     1       5.248  15.792  18.373  0.00  0.00    +0.000 C 
ATOM     18  C   UNL     1       5.553  15.882  19.861  0.00  0.00    +0.000 C 
ATOM     19  O   UNL     1       4.637  15.246  20.764  0.00  0.00    +0.000 OA
ENDBRANCH   9  10
ENDBRANCH   7   9
ENDBRANCH   4   7
BRANCH   1  20
ATOM     20  C   UNL     1       2.533   7.670  18.532  0.00  0.00    +0.000 C 
BRANCH  20  21
ATOM     21  C   UNL     1       3.282   6.575  19.327  0.00  0.00    +0.000 C 
BRANCH  21  29
ATOM     22  C   UNL     1       6.525   6.267  16.777  0.00  0.00    +0.000 A 
ATOM     23  C   UNL     1       6.847   5.145  16.042  0.00  0.00    +0.000 A 
ATOM     24  C   UNL     1       6.040   4.017  16.191  0.00  0.00    +0.000 A 
ATOM     25  C   UNL     1       4.940   4.036  17.032  0.00  0.00    +0.000 A 
ATOM     26  N   UNL     1       4.187   2.931  17.158  0.00  0.00    +0.000 NA
ATOM     27  C   UNL     1       3.106   3.010  17.963  0.00  0.00    +0.000 A 
ATOM     28  C   UNL     1       2.733   4.151  18.661  0.00  0.00    +0.000 A 
ATOM     29  C   UNL     1       3.545   5.292  18.549  0.00  0.00    +0.000 A 
ATOM     30  C   UNL     1       4.670   5.244  17.715  0.00  0.00    +0.000 A 
ATOM     31  N   UNL     1       5.456   6.330  17.592  0.00  0.00    +0.000 NA
BRANCH  22  33
ATOM     32  C   UNL     1       7.899   7.753  17.937  0.00  0.00    +0.000 C 
ATOM     33  O   UNL     1       7.354   7.363  16.676  0.00  0.00    +0.000 OA
ENDBRANCH  22  33
BRANCH  28  34
ATOM     34  C   UNL     1       1.544   4.085  19.449  0.00  0.00    +0.000 C 
ATOM     35  N   UNL     1       0.616   4.025  20.147  0.00  0.00    +0.000 NA
ENDBRANCH  28  34
ENDBRANCH  21  29
ENDBRANCH  20  21
ENDBRANCH   1  20
TORSDOF 8
ENDMDL
