MODEL 1
REMARK VINA RESULT:      -6.8      0.000      0.000
REMARK  Name = 
REMARK  9 active torsions:
REMARK  status: ('A' for Active; 'I' for Inactive)
REMARK    1  A    between atoms: N_1  and  C_2
REMARK    2  A    between atoms: N_10  and  C_11
REMARK    3  A    between atoms: C_11  and  C_12
REMARK    4  A    between atoms: C_11  and  C_19
REMARK    5  A    between atoms: C_12  and  O_13
REMARK    6  A    between atoms: O_13  and  C_14
REMARK    7  A    between atoms: C_14  and  P_15
REMARK    8  A    between atoms: P_15  and  O_17
REMARK    9  A    between atoms: P_15  and  O_18
REMARK                            x       y       z     vdW  Elec       q    Type
REMARK                         _______ _______ _______ _____ _____    ______ ____
ROOT
ATOM      1  C   UNL     1       2.922   5.053  17.691  0.00  0.00    +0.000 C 
ENDROOT
BRANCH   1  10
ATOM      2  C   UNL     1       7.566   5.868  18.995  0.00  0.00    +0.000 A 
ATOM      3  N   UNL     1       7.787   6.897  18.148  0.00  0.00    +0.000 NA
ATOM      4  C   UNL     1       6.787   7.265  17.318  0.00  0.00    +0.000 A 
ATOM      5  N   UNL     1       5.545   6.745  17.208  0.00  0.00    +0.000 NA
ATOM      6  C   UNL     1       5.384   5.698  18.038  0.00  0.00    +0.000 A 
ATOM      7  C   UNL     1       6.332   5.195  18.922  0.00  0.00    +0.000 A 
ATOM      8  N   UNL     1       5.848   4.090  19.592  0.00  0.00    +0.000 NA
ATOM      9  C   UNL     1       4.626   3.937  19.134  0.00  0.00    +0.000 A 
ATOM     10  N   UNL     1       4.280   4.908  18.220  0.00  0.00    +0.000 N 
BRANCH   2  11
ATOM     11  N   UNL     1       8.571   5.526  19.891  0.00  0.00    +0.000 N 
ATOM     12  H   UNL     1       8.253   4.899  20.618  0.00  0.00    +0.000 HD
ATOM     13  H   UNL     1       9.172   6.298  20.153  0.00  0.00    +0.000 HD
ENDBRANCH   2  11
ENDBRANCH   1  10
BRANCH   1  14
ATOM     14  C   UNL     1       2.079   6.123  18.345  0.00  0.00    +0.000 C 
ATOM     15  C   UNL     1       2.628   7.140  19.319  0.00  0.00    +0.000 C 
ATOM     16  C   UNL     1       2.258   7.578  17.935  0.00  0.00    +0.000 C 
ENDBRANCH   1  14
BRANCH   1  17
ATOM     17  C   UNL     1       2.179   3.691  17.712  0.00  0.00    +0.000 C 
BRANCH  17  18
ATOM     18  O   UNL     1       1.211   3.567  18.777  0.00  0.00    +0.000 OA
BRANCH  18  19
ATOM     19  C   UNL     1       1.509   2.479  19.657  0.00  0.00    +0.000 C 
BRANCH  19  20
ATOM     20  P   UNL     1       1.948   2.995  21.304  0.00  0.00    +0.000 P 
ATOM     21  O   UNL     1       2.132   4.470  21.485  0.00  0.00    +0.000 OA
BRANCH  20  22
ATOM     22  O   UNL     1       0.779   2.479  22.271  0.00  0.00    +0.000 OA
ATOM     23  H   UNL     1       0.303   3.229  22.673  0.00  0.00    +0.000 HD
ENDBRANCH  20  22
BRANCH  20  24
ATOM     24  O   UNL     1       3.235   2.199  21.833  0.00  0.00    +0.000 OA
ATOM     25  H   UNL     1       3.939   2.796  22.150  0.00  0.00    +0.000 HD
ENDBRANCH  20  24
ENDBRANCH  19  20
ENDBRANCH  18  19
ENDBRANCH  17  18
ENDBRANCH   1  17
TORSDOF 9
ENDMDL
MODEL 2
REMARK VINA RESULT:      -6.7      2.806      3.607
REMARK  Name = 
REMARK  9 active torsions:
REMARK  status: ('A' for Active; 'I' for Inactive)
REMARK    1  A    between atoms: N_1  and  C_2
REMARK    2  A    between atoms: N_10  and  C_11
REMARK    3  A    between atoms: C_11  and  C_12
REMARK    4  A    between atoms: C_11  and  C_19
REMARK    5  A    between atoms: C_12  and  O_13
REMARK    6  A    between atoms: O_13  and  C_14
REMARK    7  A    between atoms: C_14  and  P_15
REMARK    8  A    between atoms: P_15  and  O_17
REMARK    9  A    between atoms: P_15  and  O_18
REMARK                            x       y       z     vdW  Elec       q    Type
REMARK                         _______ _______ _______ _____ _____    ______ ____
ROOT
ATOM      1  C   UNL     1       4.466   4.648  17.438  0.00  0.00    +0.000 C 
ENDROOT
BRANCH   1  10
ATOM      2  C   UNL     1       7.533   5.164  13.663  0.00  0.00    +0.000 A 
ATOM      3  N   UNL     1       6.890   4.324  12.824  0.00  0.00    +0.000 NA
ATOM      4  C   UNL     1       5.789   3.688  13.279  0.00  0.00    +0.000 A 
ATOM      5  N   UNL     1       5.204   3.776  14.494  0.00  0.00    +0.000 NA
ATOM      6  C   UNL     1       5.901   4.589  15.309  0.00  0.00    +0.000 A 
ATOM      7  C   UNL     1       7.061   5.283  14.984  0.00  0.00    +0.000 A 
ATOM      8  N   UNL     1       7.535   5.992  16.068  0.00  0.00    +0.000 NA
ATOM      9  C   UNL     1       6.670   5.744  17.026  0.00  0.00    +0.000 A 
ATOM     10  N   UNL     1       5.638   4.932  16.608  0.00  0.00    +0.000 N 
BRANCH   2  11
ATOM     11  N   UNL     1       8.631   5.865  13.179  0.00  0.00    +0.000 N 
ATOM     12  H   UNL     1       8.487   6.224  12.245  0.00  0.00    +0.000 HD
ATOM     13  H   UNL     1       9.523   5.437  13.396  0.00  0.00    +0.000 HD
ENDBRANCH   2  11
ENDBRANCH   1  10
BRANCH   1  14
ATOM     14  C   UNL     1       3.948   5.809  18.254  0.00  0.00    +0.000 C 
ATOM     15  C   UNL     1       3.560   7.142  17.657  0.00  0.00    +0.000 C 
ATOM     16  C   UNL     1       2.486   6.217  18.138  0.00  0.00    +0.000 C 
ENDBRANCH   1  14
BRANCH   1  17
ATOM     17  C   UNL     1       4.728   3.421  18.351  0.00  0.00    +0.000 C 
BRANCH  17  18
ATOM     18  O   UNL     1       4.170   3.545  19.677  0.00  0.00    +0.000 OA
BRANCH  18  19
ATOM     19  C   UNL     1       3.016   2.720  19.861  0.00  0.00    +0.000 C 
BRANCH  19  20
ATOM     20  P   UNL     1       1.836   3.391  21.014  0.00  0.00    +0.000 P 
ATOM     21  O   UNL     1       1.624   2.581  22.257  0.00  0.00    +0.000 OA
BRANCH  20  22
ATOM     22  O   UNL     1       2.365   4.850  21.411  0.00  0.00    +0.000 OA
ATOM     23  H   UNL     1       3.336   4.860  21.488  0.00  0.00    +0.000 HD
ENDBRANCH  20  22
BRANCH  20  24
ATOM     24  O   UNL     1       0.436   3.694  20.296  0.00  0.00    +0.000 OA
ATOM     25  H   UNL     1       0.493   3.629  19.323  0.00  0.00    +0.000 HD
ENDBRANCH  20  24
ENDBRANCH  19  20
ENDBRANCH  18  19
ENDBRANCH  17  18
ENDBRANCH   1  17
TORSDOF 9
ENDMDL
MODEL 3
REMARK VINA RESULT:      -6.7      2.837      3.447
REMARK  Name = 
REMARK  9 active torsions:
REMARK  status: ('A' for Active; 'I' for Inactive)
REMARK    1  A    between atoms: N_1  and  C_2
REMARK    2  A    between atoms: N_10  and  C_11
REMARK    3  A    between atoms: C_11  and  C_12
REMARK    4  A    between atoms: C_11  and  C_19
REMARK    5  A    between atoms: C_12  and  O_13
REMARK    6  A    between atoms: O_13  and  C_14
REMARK    7  A    between atoms: C_14  and  P_15
REMARK    8  A    between atoms: P_15  and  O_17
REMARK    9  A    between atoms: P_15  and  O_18
REMARK                            x       y       z     vdW  Elec       q    Type
REMARK                         _______ _______ _______ _____ _____    ______ ____
ROOT
ATOM      1  C   UNL     1       4.180   4.756  17.163  0.00  0.00    +0.000 C 
ENDROOT
BRANCH   1  10
ATOM      2  C   UNL     1       7.585   5.143  13.673  0.00  0.00    +0.000 A 
ATOM      3  N   UNL     1       6.990   4.321  12.782  0.00  0.00    +0.000 NA
ATOM      4  C   UNL     1       5.831   3.726  13.140  0.00  0.00    +0.000 A 
ATOM      5  N   UNL     1       5.144   3.842  14.298  0.00  0.00    +0.000 NA
ATOM      6  C   UNL     1       5.795   4.635  15.169  0.00  0.00    +0.000 A 
ATOM      7  C   UNL     1       7.003   5.286  14.946  0.00  0.00    +0.000 A 
ATOM      8  N   UNL     1       7.404   5.984  16.066  0.00  0.00    +0.000 NA
ATOM      9  C   UNL     1       6.450   5.772  16.945  0.00  0.00    +0.000 A 
ATOM     10  N   UNL     1       5.431   4.995  16.439  0.00  0.00    +0.000 N 
BRANCH   2  11
ATOM     11  N   UNL     1       8.746   5.803  13.285  0.00  0.00    +0.000 N 
ATOM     12  H   UNL     1       8.717   6.794  13.478  0.00  0.00    +0.000 HD
ATOM     13  H   UNL     1       9.117   5.498  12.393  0.00  0.00    +0.000 HD
ENDBRANCH   2  11
ENDBRANCH   1  10
BRANCH   1  14
ATOM     14  C   UNL     1       3.784   5.829  18.150  0.00  0.00    +0.000 C 
ATOM     15  C   UNL     1       3.414   7.238  17.749  0.00  0.00    +0.000 C 
ATOM     16  C   UNL     1       2.338   6.302  18.207  0.00  0.00    +0.000 C 
ENDBRANCH   1  14
BRANCH   1  17
ATOM     17  C   UNL     1       4.206   3.368  17.855  0.00  0.00    +0.000 C 
BRANCH  17  18
ATOM     18  O   UNL     1       4.049   3.423  19.289  0.00  0.00    +0.000 OA
BRANCH  18  19
ATOM     19  C   UNL     1       3.013   2.553  19.755  0.00  0.00    +0.000 C 
BRANCH  19  20
ATOM     20  P   UNL     1       1.901   3.325  20.913  0.00  0.00    +0.000 P 
ATOM     21  O   UNL     1       2.276   4.714  21.331  0.00  0.00    +0.000 OA
BRANCH  20  22
ATOM     22  O   UNL     1       0.459   3.348  20.215  0.00  0.00    +0.000 OA
ATOM     23  H   UNL     1      -0.178   3.859  20.747  0.00  0.00    +0.000 HD
ENDBRANCH  20  22
BRANCH  20  24
ATOM     24  O   UNL     1       1.669   2.395  22.197  0.00  0.00    +0.000 OA
ATOM     25  H   UNL     1       1.300   2.887  22.954  0.00  0.00    +0.000 HD
ENDBRANCH  20  24
ENDBRANCH  19  20
ENDBRANCH  18  19
ENDBRANCH  17  18
ENDBRANCH   1  17
TORSDOF 9
ENDMDL
MODEL 4
REMARK VINA RESULT:      -6.6      4.097      6.048
REMARK  Name = 
REMARK  9 active torsions:
REMARK  status: ('A' for Active; 'I' for Inactive)
REMARK    1  A    between atoms: N_1  and  C_2
REMARK    2  A    between atoms: N_10  and  C_11
REMARK    3  A    between atoms: C_11  and  C_12
REMARK    4  A    between atoms: C_11  and  C_19
REMARK    5  A    between atoms: C_12  and  O_13
REMARK    6  A    between atoms: O_13  and  C_14
REMARK    7  A    between atoms: C_14  and  P_15
REMARK    8  A    between atoms: P_15  and  O_17
REMARK    9  A    between atoms: P_15  and  O_18
REMARK                            x       y       z     vdW  Elec       q    Type
REMARK                         _______ _______ _______ _____ _____    ______ ____
ROOT
ATOM      1  C   UNL     1       5.301   5.802  17.567  0.00  0.00    +0.000 C 
ENDROOT
BRANCH   1  10
ATOM      2  C   UNL     1       1.813   3.096  19.676  0.00  0.00    +0.000 A 
ATOM      3  N   UNL     1       2.088   1.949  19.019  0.00  0.00    +0.000 NA
ATOM      4  C   UNL     1       3.076   1.962  18.099  0.00  0.00    +0.000 A 
ATOM      5  N   UNL     1       3.872   2.989  17.729  0.00  0.00    +0.000 NA
ATOM      6  C   UNL     1       3.536   4.120  18.377  0.00  0.00    +0.000 A 
ATOM      7  C   UNL     1       2.526   4.257  19.323  0.00  0.00    +0.000 A 
ATOM      8  N   UNL     1       2.428   5.563  19.757  0.00  0.00    +0.000 NA
ATOM      9  C   UNL     1       3.369   6.201  19.097  0.00  0.00    +0.000 A 
ATOM     10  N   UNL     1       4.096   5.365  18.277  0.00  0.00    +0.000 N 
BRANCH   2  11
ATOM     11  N   UNL     1       0.837   3.071  20.665  0.00  0.00    +0.000 N 
ATOM     12  H   UNL     1       0.247   3.892  20.656  0.00  0.00    +0.000 HD
ATOM     13  H   UNL     1       1.163   2.724  21.559  0.00  0.00    +0.000 HD
ENDBRANCH   2  11
ENDBRANCH   1  10
BRANCH   1  14
ATOM     14  C   UNL     1       6.479   6.161  18.442  0.00  0.00    +0.000 C 
ATOM     15  C   UNL     1       6.932   5.325  19.617  0.00  0.00    +0.000 C 
ATOM     16  C   UNL     1       7.753   5.332  18.366  0.00  0.00    +0.000 C 
ENDBRANCH   1  14
BRANCH   1  17
ATOM     17  C   UNL     1       4.971   6.968  16.599  0.00  0.00    +0.000 C 
BRANCH  17  18
ATOM     18  O   UNL     1       5.343   6.715  15.226  0.00  0.00    +0.000 OA
BRANCH  18  19
ATOM     19  C   UNL     1       4.967   5.403  14.796  0.00  0.00    +0.000 C 
BRANCH  19  20
ATOM     20  P   UNL     1       6.352   4.314  14.534  0.00  0.00    +0.000 P 
ATOM     21  O   UNL     1       6.467   3.745  13.154  0.00  0.00    +0.000 OA
BRANCH  20  22
ATOM     22  O   UNL     1       7.669   5.161  14.874  0.00  0.00    +0.000 OA
ATOM     23  H   UNL     1       8.463   4.734  14.505  0.00  0.00    +0.000 HD
ENDBRANCH  20  22
BRANCH  20  24
ATOM     24  O   UNL     1       6.380   3.144  15.629  0.00  0.00    +0.000 OA
ATOM     25  H   UNL     1       5.698   3.260  16.318  0.00  0.00    +0.000 HD
ENDBRANCH  20  24
ENDBRANCH  19  20
ENDBRANCH  18  19
ENDBRANCH  17  18
ENDBRANCH   1  17
TORSDOF 9
ENDMDL
MODEL 5
REMARK VINA RESULT:      -6.5      4.065      5.751
REMARK  Name = 
REMARK  9 active torsions:
REMARK  status: ('A' for Active; 'I' for Inactive)
REMARK    1  A    between atoms: N_1  and  C_2
REMARK    2  A    between atoms: N_10  and  C_11
REMARK    3  A    between atoms: C_11  and  C_12
REMARK    4  A    between atoms: C_11  and  C_19
REMARK    5  A    between atoms: C_12  and  O_13
REMARK    6  A    between atoms: O_13  and  C_14
REMARK    7  A    between atoms: C_14  and  P_15
REMARK    8  A    between atoms: P_15  and  O_17
REMARK    9  A    between atoms: P_15  and  O_18
REMARK                            x       y       z     vdW  Elec       q    Type
REMARK                         _______ _______ _______ _____ _____    ______ ____
ROOT
ATOM      1  C   UNL     1       3.585   5.202  18.597  0.00  0.00    +0.000 C 
ENDROOT
BRANCH   1  10
ATOM      2  C   UNL     1       1.009   9.198  19.746  0.00  0.00    +0.000 A 
ATOM      3  N   UNL     1       1.331   9.913  18.647  0.00  0.00    +0.000 NA
ATOM      4  C   UNL     1       2.177   9.358  17.751  0.00  0.00    +0.000 A 
ATOM      5  N   UNL     1       2.764   8.142  17.785  0.00  0.00    +0.000 NA
ATOM      6  C   UNL     1       2.448   7.484  18.916  0.00  0.00    +0.000 A 
ATOM      7  C   UNL     1       1.618   7.943  19.932  0.00  0.00    +0.000 A 
ATOM      8  N   UNL     1       1.544   7.030  20.962  0.00  0.00    +0.000 NA
ATOM      9  C   UNL     1       2.303   6.030  20.572  0.00  0.00    +0.000 A 
ATOM     10  N   UNL     1       2.842   6.236  19.321  0.00  0.00    +0.000 N 
BRANCH   2  11
ATOM     11  N   UNL     1       0.093   9.743  20.640  0.00  0.00    +0.000 N 
ATOM     12  H   UNL     1      -0.799   9.268  20.625  0.00  0.00    +0.000 HD
ATOM     13  H   UNL     1       0.098  10.755  20.671  0.00  0.00    +0.000 HD
ENDBRANCH   2  11
ENDBRANCH   1  10
BRANCH   1  14
ATOM     14  C   UNL     1       2.904   3.857  18.502  0.00  0.00    +0.000 C 
ATOM     15  C   UNL     1       1.480   3.673  18.031  0.00  0.00    +0.000 C 
ATOM     16  C   UNL     1       2.605   3.260  17.134  0.00  0.00    +0.000 C 
ENDBRANCH   1  14
BRANCH   1  17
ATOM     17  C   UNL     1       5.013   5.045  19.182  0.00  0.00    +0.000 C 
BRANCH  17  18
ATOM     18  O   UNL     1       5.996   5.910  18.572  0.00  0.00    +0.000 OA
BRANCH  18  19
ATOM     19  C   UNL     1       5.858   5.969  17.149  0.00  0.00    +0.000 C 
BRANCH  19  20
ATOM     20  P   UNL     1       6.787   4.714  16.291  0.00  0.00    +0.000 P 
ATOM     21  O   UNL     1       5.976   3.581  15.742  0.00  0.00    +0.000 OA
BRANCH  20  22
ATOM     22  O   UNL     1       7.552   5.453  15.092  0.00  0.00    +0.000 OA
ATOM     23  H   UNL     1       8.405   5.816  15.393  0.00  0.00    +0.000 HD
ENDBRANCH  20  22
BRANCH  20  24
ATOM     24  O   UNL     1       7.985   4.161  17.200  0.00  0.00    +0.000 OA
ATOM     25  H   UNL     1       8.173   4.739  17.964  0.00  0.00    +0.000 HD
ENDBRANCH  20  24
ENDBRANCH  19  20
ENDBRANCH  18  19
ENDBRANCH  17  18
ENDBRANCH   1  17
TORSDOF 9
ENDMDL
MODEL 6
REMARK VINA RESULT:      -6.5      3.387      4.672
REMARK  Name = 
REMARK  9 active torsions:
REMARK  status: ('A' for Active; 'I' for Inactive)
REMARK    1  A    between atoms: N_1  and  C_2
REMARK    2  A    between atoms: N_10  and  C_11
REMARK    3  A    between atoms: C_11  and  C_12
REMARK    4  A    between atoms: C_11  and  C_19
REMARK    5  A    between atoms: C_12  and  O_13
REMARK    6  A    between atoms: O_13  and  C_14
REMARK    7  A    between atoms: C_14  and  P_15
REMARK    8  A    between atoms: P_15  and  O_17
REMARK    9  A    between atoms: P_15  and  O_18
REMARK                            x       y       z     vdW  Elec       q    Type
REMARK                         _______ _______ _______ _____ _____    ______ ____
ROOT
ATOM      1  C   UNL     1       3.008   5.163  19.846  0.00  0.00    +0.000 C 
ENDROOT
BRANCH   1  10
ATOM      2  C   UNL     1       6.985   4.759  17.028  0.00  0.00    +0.000 A 
ATOM      3  N   UNL     1       7.870   5.212  17.941  0.00  0.00    +0.000 NA
ATOM      4  C   UNL     1       7.399   5.605  19.145  0.00  0.00    +0.000 A 
ATOM      5  N   UNL     1       6.125   5.604  19.595  0.00  0.00    +0.000 NA
ATOM      6  C   UNL     1       5.275   5.185  18.639  0.00  0.00    +0.000 A 
ATOM      7  C   UNL     1       5.617   4.780  17.353  0.00  0.00    +0.000 A 
ATOM      8  N   UNL     1       4.494   4.452  16.622  0.00  0.00    +0.000 NA
ATOM      9  C   UNL     1       3.493   4.642  17.453  0.00  0.00    +0.000 A 
ATOM     10  N   UNL     1       3.914   5.047  18.701  0.00  0.00    +0.000 N 
BRANCH   2  11
ATOM     11  N   UNL     1       7.474   4.298  15.810  0.00  0.00    +0.000 N 
ATOM     12  H   UNL     1       8.038   3.465  15.904  0.00  0.00    +0.000 HD
ATOM     13  H   UNL     1       7.799   5.032  15.192  0.00  0.00    +0.000 HD
ENDBRANCH   2  11
ENDBRANCH   1  10
BRANCH   1  14
ATOM     14  C   UNL     1       2.142   3.955  20.116  0.00  0.00    +0.000 C 
ATOM     15  C   UNL     1       2.692   2.563  20.323  0.00  0.00    +0.000 C 
ATOM     16  C   UNL     1       2.151   3.317  21.498  0.00  0.00    +0.000 C 
ENDBRANCH   1  14
BRANCH   1  17
ATOM     17  C   UNL     1       2.133   6.438  19.723  0.00  0.00    +0.000 C 
BRANCH  17  18
ATOM     18  O   UNL     1       2.798   7.547  19.078  0.00  0.00    +0.000 OA
BRANCH  18  19
ATOM     19  C   UNL     1       2.047   8.062  17.974  0.00  0.00    +0.000 C 
BRANCH  19  20
ATOM     20  P   UNL     1       1.298   9.645  18.299  0.00  0.00    +0.000 P 
ATOM     21  O   UNL     1       1.193  10.018  19.746  0.00  0.00    +0.000 OA
BRANCH  20  22
ATOM     22  O   UNL     1       2.184  10.736  17.529  0.00  0.00    +0.000 OA
ATOM     23  H   UNL     1       2.895  11.075  18.101  0.00  0.00    +0.000 HD
ENDBRANCH  20  22
BRANCH  20  24
ATOM     24  O   UNL     1      -0.130   9.765  17.582  0.00  0.00    +0.000 OA
ATOM     25  H   UNL     1      -0.788  10.228  18.135  0.00  0.00    +0.000 HD
ENDBRANCH  20  24
ENDBRANCH  19  20
ENDBRANCH  18  19
ENDBRANCH  17  18
ENDBRANCH   1  17
TORSDOF 9
ENDMDL
MODEL 7
REMARK VINA RESULT:      -6.5      3.914      5.408
REMARK  Name = 
REMARK  9 active torsions:
REMARK  status: ('A' for Active; 'I' for Inactive)
REMARK    1  A    between atoms: N_1  and  C_2
REMARK    2  A    between atoms: N_10  and  C_11
REMARK    3  A    between atoms: C_11  and  C_12
REMARK    4  A    between atoms: C_11  and  C_19
REMARK    5  A    between atoms: C_12  and  O_13
REMARK    6  A    between atoms: O_13  and  C_14
REMARK    7  A    between atoms: C_14  and  P_15
REMARK    8  A    between atoms: P_15  and  O_17
REMARK    9  A    between atoms: P_15  and  O_18
REMARK                            x       y       z     vdW  Elec       q    Type
REMARK                         _______ _______ _______ _____ _____    ______ ____
ROOT
ATOM      1  C   UNL     1       3.686   6.734  18.492  0.00  0.00    +0.000 C 
ENDROOT
BRANCH   1  10
ATOM      2  C   UNL     1       3.630   1.848  18.721  0.00  0.00    +0.000 A 
ATOM      3  N   UNL     1       2.335   1.690  18.373  0.00  0.00    +0.000 NA
ATOM      4  C   UNL     1       1.596   2.799  18.152  0.00  0.00    +0.000 A 
ATOM      5  N   UNL     1       1.973   4.094  18.219  0.00  0.00    +0.000 NA
ATOM      6  C   UNL     1       3.257   4.204  18.609  0.00  0.00    +0.000 A 
ATOM      7  C   UNL     1       4.122   3.154  18.897  0.00  0.00    +0.000 A 
ATOM      8  N   UNL     1       5.353   3.625  19.306  0.00  0.00    +0.000 NA
ATOM      9  C   UNL     1       5.239   4.934  19.252  0.00  0.00    +0.000 A 
ATOM     10  N   UNL     1       4.003   5.337  18.798  0.00  0.00    +0.000 N 
BRANCH   2  11
ATOM     11  N   UNL     1       4.409   0.709  18.892  0.00  0.00    +0.000 N 
ATOM     12  H   UNL     1       3.875  -0.146  18.819  0.00  0.00    +0.000 HD
ATOM     13  H   UNL     1       5.095   0.785  19.633  0.00  0.00    +0.000 HD
ENDBRANCH   2  11
ENDBRANCH   1  10
BRANCH   1  14
ATOM     14  C   UNL     1       2.279   7.171  18.825  0.00  0.00    +0.000 C 
ATOM     15  C   UNL     1       1.872   7.718  20.174  0.00  0.00    +0.000 C 
ATOM     16  C   UNL     1       1.974   8.651  19.008  0.00  0.00    +0.000 C 
ENDBRANCH   1  14
BRANCH   1  17
ATOM     17  C   UNL     1       4.016   7.057  17.011  0.00  0.00    +0.000 C 
BRANCH  17  18
ATOM     18  O   UNL     1       5.346   6.665  16.607  0.00  0.00    +0.000 OA
BRANCH  18  19
ATOM     19  C   UNL     1       5.333   5.797  15.468  0.00  0.00    +0.000 C 
BRANCH  19  20
ATOM     20  P   UNL     1       6.818   4.830  15.293  0.00  0.00    +0.000 P 
ATOM     21  O   UNL     1       7.543   4.533  16.569  0.00  0.00    +0.000 OA
BRANCH  20  22
ATOM     22  O   UNL     1       6.388   3.456  14.590  0.00  0.00    +0.000 OA
ATOM     23  H   UNL     1       6.282   3.574  13.628  0.00  0.00    +0.000 HD
ENDBRANCH  20  22
BRANCH  20  24
ATOM     24  O   UNL     1       7.812   5.489  14.223  0.00  0.00    +0.000 OA
ATOM     25  H   UNL     1       8.744   5.464  14.512  0.00  0.00    +0.000 HD
ENDBRANCH  20  24
ENDBRANCH  19  20
ENDBRANCH  18  19
ENDBRANCH  17  18
ENDBRANCH   1  17
TORSDOF 9
ENDMDL
MODEL 8
REMARK VINA RESULT:      -6.5      2.816      3.685
REMARK  Name = 
REMARK  9 active torsions:
REMARK  status: ('A' for Active; 'I' for Inactive)
REMARK    1  A    between atoms: N_1  and  C_2
REMARK    2  A    between atoms: N_10  and  C_11
REMARK    3  A    between atoms: C_11  and  C_12
REMARK    4  A    between atoms: C_11  and  C_19
REMARK    5  A    between atoms: C_12  and  O_13
REMARK    6  A    between atoms: O_13  and  C_14
REMARK    7  A    between atoms: C_14  and  P_15
REMARK    8  A    between atoms: P_15  and  O_17
REMARK    9  A    between atoms: P_15  and  O_18
REMARK                            x       y       z     vdW  Elec       q    Type
REMARK                         _______ _______ _______ _____ _____    ______ ____
ROOT
ATOM      1  C   UNL     1       4.319   5.147  17.488  0.00  0.00    +0.000 C 
ENDROOT
BRANCH   1  10
ATOM      2  C   UNL     1       7.524   5.191  13.793  0.00  0.00    +0.000 A 
ATOM      3  N   UNL     1       6.878   4.296  13.015  0.00  0.00    +0.000 NA
ATOM      4  C   UNL     1       5.740   3.744  13.490  0.00  0.00    +0.000 A 
ATOM      5  N   UNL     1       5.119   3.969  14.669  0.00  0.00    +0.000 NA
ATOM      6  C   UNL     1       5.819   4.834  15.426  0.00  0.00    +0.000 A 
ATOM      7  C   UNL     1       7.015   5.453  15.078  0.00  0.00    +0.000 A 
ATOM      8  N   UNL     1       7.479   6.247  16.106  0.00  0.00    +0.000 NA
ATOM      9  C   UNL     1       6.575   6.123  17.052  0.00  0.00    +0.000 A 
ATOM     10  N   UNL     1       5.528   5.310  16.677  0.00  0.00    +0.000 N 
BRANCH   2  11
ATOM     11  N   UNL     1       8.663   5.804  13.283  0.00  0.00    +0.000 N 
ATOM     12  H   UNL     1       8.450   6.583  12.676  0.00  0.00    +0.000 HD
ATOM     13  H   UNL     1       9.388   5.157  12.997  0.00  0.00    +0.000 HD
ENDBRANCH   2  11
ENDBRANCH   1  10
BRANCH   1  14
ATOM     14  C   UNL     1       3.912   6.354  18.300  0.00  0.00    +0.000 C 
ATOM     15  C   UNL     1       3.388   7.633  17.688  0.00  0.00    +0.000 C 
ATOM     16  C   UNL     1       2.439   6.725  18.409  0.00  0.00    +0.000 C 
ENDBRANCH   1  14
BRANCH   1  17
ATOM     17  C   UNL     1       4.438   3.897  18.400  0.00  0.00    +0.000 C 
BRANCH  17  18
ATOM     18  O   UNL     1       3.960   2.678  17.791  0.00  0.00    +0.000 OA
BRANCH  18  19
ATOM     19  C   UNL     1       2.961   2.031  18.585  0.00  0.00    +0.000 C 
BRANCH  19  20
ATOM     20  P   UNL     1       1.394   2.877  18.587  0.00  0.00    +0.000 P 
ATOM     21  O   UNL     1       1.126   3.731  17.385  0.00  0.00    +0.000 OA
BRANCH  20  22
ATOM     22  O   UNL     1       0.264   1.747  18.702  0.00  0.00    +0.000 OA
ATOM     23  H   UNL     1      -0.324   1.761  17.925  0.00  0.00    +0.000 HD
ENDBRANCH  20  22
BRANCH  20  24
ATOM     24  O   UNL     1       1.198   3.724  19.933  0.00  0.00    +0.000 OA
ATOM     25  H   UNL     1       1.891   3.540  20.595  0.00  0.00    +0.000 HD
ENDBRANCH  20  24
ENDBRANCH  19  20
ENDBRANCH  18  19
ENDBRANCH  17  18
ENDBRANCH   1  17
TORSDOF 9
ENDMDL
MODEL 9
REMARK VINA RESULT:      -6.4      3.592      5.360
REMARK  Name = 
REMARK  9 active torsions:
REMARK  status: ('A' for Active; 'I' for Inactive)
REMARK    1  A    between atoms: N_1  and  C_2
REMARK    2  A    between atoms: N_10  and  C_11
REMARK    3  A    between atoms: C_11  and  C_12
REMARK    4  A    between atoms: C_11  and  C_19
REMARK    5  A    between atoms: C_12  and  O_13
REMARK    6  A    between atoms: O_13  and  C_14
REMARK    7  A    between atoms: C_14  and  P_15
REMARK    8  A    between atoms: P_15  and  O_17
REMARK    9  A    between atoms: P_15  and  O_18
REMARK                            x       y       z     vdW  Elec       q    Type
REMARK                         _______ _______ _______ _____ _____    ______ ____
ROOT
ATOM      1  C   UNL     1       3.511   6.844  18.043  0.00  0.00    +0.000 C 
ENDROOT
BRANCH   1  10
ATOM      2  C   UNL     1       1.844   2.507  19.573  0.00  0.00    +0.000 A 
ATOM      3  N   UNL     1       1.555   2.888  20.836  0.00  0.00    +0.000 NA
ATOM      4  C   UNL     1       1.830   4.161  21.197  0.00  0.00    +0.000 A 
ATOM      5  N   UNL     1       2.364   5.153  20.452  0.00  0.00    +0.000 NA
ATOM      6  C   UNL     1       2.675   4.717  19.217  0.00  0.00    +0.000 A 
ATOM      7  C   UNL     1       2.474   3.434  18.722  0.00  0.00    +0.000 A 
ATOM      8  N   UNL     1       2.944   3.322  17.430  0.00  0.00    +0.000 NA
ATOM      9  C   UNL     1       3.407   4.518  17.143  0.00  0.00    +0.000 A 
ATOM     10  N   UNL     1       3.232   5.412  18.177  0.00  0.00    +0.000 N 
BRANCH   2  11
ATOM     11  N   UNL     1       1.507   1.217  19.182  0.00  0.00    +0.000 N 
ATOM     12  H   UNL     1       0.512   1.092  19.056  0.00  0.00    +0.000 HD
ATOM     13  H   UNL     1       2.025   0.491  19.662  0.00  0.00    +0.000 HD
ENDBRANCH   2  11
ENDBRANCH   1  10
BRANCH   1  14
ATOM     14  C   UNL     1       2.300   7.731  17.874  0.00  0.00    +0.000 C 
ATOM     15  C   UNL     1       1.712   8.564  18.990  0.00  0.00    +0.000 C 
ATOM     16  C   UNL     1       2.467   9.244  17.891  0.00  0.00    +0.000 C 
ENDBRANCH   1  14
BRANCH   1  17
ATOM     17  C   UNL     1       4.530   7.098  16.901  0.00  0.00    +0.000 C 
BRANCH  17  18
ATOM     18  O   UNL     1       5.896   7.231  17.352  0.00  0.00    +0.000 OA
BRANCH  18  19
ATOM     19  C   UNL     1       6.706   6.116  16.967  0.00  0.00    +0.000 C 
BRANCH  19  20
ATOM     20  P   UNL     1       7.320   5.171  18.346  0.00  0.00    +0.000 P 
ATOM     21  O   UNL     1       6.274   4.478  19.163  0.00  0.00    +0.000 OA
BRANCH  20  22
ATOM     22  O   UNL     1       8.332   4.086  17.741  0.00  0.00    +0.000 OA
ATOM     23  H   UNL     1       9.240   4.241  18.057  0.00  0.00    +0.000 HD
ENDBRANCH  20  22
BRANCH  20  24
ATOM     24  O   UNL     1       8.264   6.065  19.282  0.00  0.00    +0.000 OA
ATOM     25  H   UNL     1       9.209   5.843  19.182  0.00  0.00    +0.000 HD
ENDBRANCH  20  24
ENDBRANCH  19  20
ENDBRANCH  18  19
ENDBRANCH  17  18
ENDBRANCH   1  17
TORSDOF 9
ENDMDL
