MODEL 1
REMARK VINA RESULT:      -7.9      0.000      0.000
REMARK  Name = 
REMARK  3 active torsions:
REMARK  status: ('A' for Active; 'I' for Inactive)
REMARK    1  A    between atoms: C_5  and  C_6
REMARK    2  A    between atoms: C_9  and  N_10
REMARK    3  A    between atoms: C_11  and  C_13
REMARK                            x       y       z     vdW  Elec       q    Type
REMARK                         _______ _______ _______ _____ _____    ______ ____
ROOT
ATOM      1  C   UNL     1       3.925   6.198  17.593  0.00  0.00    +0.000 A 
ATOM      2  C   UNL     1       3.415   5.629  18.762  0.00  0.00    +0.000 A 
ATOM      3  C   UNL     1       2.587   6.362  19.617  0.00  0.00    +0.000 A 
ATOM      4  C   UNL     1       2.251   7.687  19.335  0.00  0.00    +0.000 A 
ATOM      5  C   UNL     1       2.721   8.253  18.148  0.00  0.00    +0.000 A 
ATOM      6  C   UNL     1       3.558   7.518  17.291  0.00  0.00    +0.000 A 
ENDROOT
BRANCH   1  11
ATOM      7  N   UNL     1       7.464   5.201  14.457  0.00  0.00    +0.000 N 
ATOM      8  C   UNL     1       6.427   4.956  15.264  0.00  0.00    +0.000 A 
ATOM      9  N   UNL     1       5.899   3.798  15.552  0.00  0.00    +0.000 NA
ATOM     10  C   UNL     1       4.889   4.071  16.442  0.00  0.00    +0.000 A 
ATOM     11  C   UNL     1       4.793   5.425  16.708  0.00  0.00    +0.000 A 
ATOM     12  N   UNL     1       5.781   5.969  15.913  0.00  0.00    +0.000 N 
ATOM     13  H   UNL     1       7.778   4.420  13.888  0.00  0.00    +0.000 HD
ATOM     14  H   UNL     1       7.629   6.108  14.039  0.00  0.00    +0.000 HD
ATOM     15  H   UNL     1       6.013   6.946  15.832  0.00  0.00    +0.000 HD
ENDBRANCH   1  11
BRANCH   4  16
ATOM     16  N   UNL     1       1.450   8.473  20.205  0.00  0.00    +0.000 N 
ATOM     17  C   UNL     1       0.667   9.538  19.788  0.00  0.00    +0.000 C 
ATOM     18  O   UNL     1       0.502   9.903  18.627  0.00  0.00    +0.000 OA
ATOM     19  H   UNL     1       1.332   8.127  21.149  0.00  0.00    +0.000 HD
BRANCH  17  20
ATOM     20  C   UNL     1      -0.095  10.284  20.825  0.00  0.00    +0.000 A 
ATOM     21  C   UNL     1      -0.102   9.738  22.123  0.00  0.00    +0.000 A 
ATOM     22  C   UNL     1      -0.891  10.300  23.124  0.00  0.00    +0.000 A 
ATOM     23  C   UNL     1      -1.679  11.405  22.826  0.00  0.00    +0.000 A 
ATOM     24  F   UNL     1      -2.456  11.915  23.792  0.00  0.00    +0.000 F 
ATOM     25  C   UNL     1      -1.672  11.958  21.543  0.00  0.00    +0.000 A 
ATOM     26 CL   UNL     1      -2.672  13.313  21.180  0.00  0.00    +0.000 Cl
ATOM     27  C   UNL     1      -0.878  11.403  20.533  0.00  0.00    +0.000 A 
ENDBRANCH  17  20
ENDBRANCH   4  16
TORSDOF 3
ENDMDL
MODEL 2
REMARK VINA RESULT:      -7.9      7.129      8.703
REMARK  Name = 
REMARK  3 active torsions:
REMARK  status: ('A' for Active; 'I' for Inactive)
REMARK    1  A    between atoms: C_5  and  C_6
REMARK    2  A    between atoms: C_9  and  N_10
REMARK    3  A    between atoms: C_11  and  C_13
REMARK                            x       y       z     vdW  Elec       q    Type
REMARK                         _______ _______ _______ _____ _____    ______ ____
ROOT
ATOM      1  C   UNL     1       6.141   5.896  18.136  0.00  0.00    +0.000 A 
ATOM      2  C   UNL     1       5.668   6.892  17.279  0.00  0.00    +0.000 A 
ATOM      3  C   UNL     1       6.411   8.052  17.045  0.00  0.00    +0.000 A 
ATOM      4  C   UNL     1       7.645   8.256  17.666  0.00  0.00    +0.000 A 
ATOM      5  C   UNL     1       8.148   7.249  18.492  0.00  0.00    +0.000 A 
ATOM      6  C   UNL     1       7.397   6.085  18.732  0.00  0.00    +0.000 A 
ENDROOT
BRANCH   1  11
ATOM      7  N   UNL     1       4.801   1.674  20.069  0.00  0.00    +0.000 N 
ATOM      8  C   UNL     1       4.727   2.743  19.269  0.00  0.00    +0.000 A 
ATOM      9  N   UNL     1       3.771   3.049  18.436  0.00  0.00    +0.000 NA
ATOM     10  C   UNL     1       4.143   4.247  17.880  0.00  0.00    +0.000 A 
ATOM     11  C   UNL     1       5.355   4.689  18.379  0.00  0.00    +0.000 A 
ATOM     12  N   UNL     1       5.717   3.684  19.252  0.00  0.00    +0.000 N 
ATOM     13  H   UNL     1       4.115   0.945  19.900  0.00  0.00    +0.000 HD
ATOM     14  H   UNL     1       5.677   1.336  20.449  0.00  0.00    +0.000 HD
ATOM     15  H   UNL     1       6.556   3.648  19.808  0.00  0.00    +0.000 HD
ENDBRANCH   1  11
BRANCH   4  16
ATOM     16  N   UNL     1       8.403   9.443  17.483  0.00  0.00    +0.000 N 
ATOM     17  C   UNL     1       8.949  10.182  18.522  0.00  0.00    +0.000 C 
ATOM     18  O   UNL     1       8.917   9.886  19.714  0.00  0.00    +0.000 OA
ATOM     19  H   UNL     1       8.684   9.662  16.536  0.00  0.00    +0.000 HD
BRANCH  17  20
ATOM     20  C   UNL     1       9.694  11.420  18.172  0.00  0.00    +0.000 A 
ATOM     21  C   UNL     1      11.088  11.301  18.019  0.00  0.00    +0.000 A 
ATOM     22  C   UNL     1      11.879  12.430  17.817  0.00  0.00    +0.000 A 
ATOM     23  C   UNL     1      11.276  13.681  17.774  0.00  0.00    +0.000 A 
ATOM     24  F   UNL     1      12.054  14.760  17.609  0.00  0.00    +0.000 F 
ATOM     25  C   UNL     1       9.892  13.808  17.917  0.00  0.00    +0.000 A 
ATOM     26 CL   UNL     1       9.159  15.368  17.887  0.00  0.00    +0.000 Cl
ATOM     27  C   UNL     1       9.090  12.678  18.115  0.00  0.00    +0.000 A 
ENDBRANCH  17  20
ENDBRANCH   4  16
TORSDOF 3
ENDMDL
MODEL 3
REMARK VINA RESULT:      -7.7      4.725      9.634
REMARK  Name = 
REMARK  3 active torsions:
REMARK  status: ('A' for Active; 'I' for Inactive)
REMARK    1  A    between atoms: C_5  and  C_6
REMARK    2  A    between atoms: C_9  and  N_10
REMARK    3  A    between atoms: C_11  and  C_13
REMARK                            x       y       z     vdW  Elec       q    Type
REMARK                         _______ _______ _______ _____ _____    ______ ____
ROOT
ATOM      1  C   UNL     1      -0.677  10.840  22.105  0.00  0.00    +0.000 A 
ATOM      2  C   UNL     1      -0.041   9.837  22.839  0.00  0.00    +0.000 A 
ATOM      3  C   UNL     1       0.737   8.865  22.203  0.00  0.00    +0.000 A 
ATOM      4  C   UNL     1       0.895   8.860  20.816  0.00  0.00    +0.000 A 
ATOM      5  C   UNL     1       0.297   9.882  20.076  0.00  0.00    +0.000 A 
ATOM      6  C   UNL     1      -0.489  10.857  20.714  0.00  0.00    +0.000 A 
ENDROOT
BRANCH   1  11
ATOM      7  N   UNL     1      -4.285  12.777  24.670  0.00  0.00    +0.000 N 
ATOM      8  C   UNL     1      -3.151  12.751  23.963  0.00  0.00    +0.000 A 
ATOM      9  N   UNL     1      -2.343  13.746  23.717  0.00  0.00    +0.000 NA
ATOM     10  C   UNL     1      -1.315  13.206  22.986  0.00  0.00    +0.000 A 
ATOM     11  C   UNL     1      -1.492  11.850  22.777  0.00  0.00    +0.000 A 
ATOM     12  N   UNL     1      -2.698  11.594  23.397  0.00  0.00    +0.000 N 
ATOM     13  H   UNL     1      -4.637  13.699  24.912  0.00  0.00    +0.000 HD
ATOM     14  H   UNL     1      -5.008  12.075  24.570  0.00  0.00    +0.000 HD
ATOM     15  H   UNL     1      -3.165  10.704  23.451  0.00  0.00    +0.000 HD
ENDBRANCH   1  11
BRANCH   4  16
ATOM     16  N   UNL     1       1.640   7.860  20.137  0.00  0.00    +0.000 N 
ATOM     17  C   UNL     1       2.149   8.008  18.856  0.00  0.00    +0.000 C 
ATOM     18  O   UNL     1       2.089   9.024  18.168  0.00  0.00    +0.000 OA
ATOM     19  H   UNL     1       1.943   7.067  20.688  0.00  0.00    +0.000 HD
BRANCH  17  20
ATOM     20  C   UNL     1       2.885   6.858  18.267  0.00  0.00    +0.000 A 
ATOM     21  C   UNL     1       4.067   7.154  17.562  0.00  0.00    +0.000 A 
ATOM     22  C   UNL     1       4.751   6.156  16.872  0.00  0.00    +0.000 A 
ATOM     23  C   UNL     1       4.249   4.860  16.882  0.00  0.00    +0.000 A 
ATOM     24  F   UNL     1       4.903   3.917  16.189  0.00  0.00    +0.000 F 
ATOM     25  C   UNL     1       3.082   4.555  17.586  0.00  0.00    +0.000 A 
ATOM     26 CL   UNL     1       2.457   2.949  17.570  0.00  0.00    +0.000 Cl
ATOM     27  C   UNL     1       2.391   5.552  18.286  0.00  0.00    +0.000 A 
ENDBRANCH  17  20
ENDBRANCH   4  16
TORSDOF 3
ENDMDL
MODEL 4
REMARK VINA RESULT:      -7.7      4.724      9.683
REMARK  Name = 
REMARK  3 active torsions:
REMARK  status: ('A' for Active; 'I' for Inactive)
REMARK    1  A    between atoms: C_5  and  C_6
REMARK    2  A    between atoms: C_9  and  N_10
REMARK    3  A    between atoms: C_11  and  C_13
REMARK                            x       y       z     vdW  Elec       q    Type
REMARK                         _______ _______ _______ _____ _____    ______ ____
ROOT
ATOM      1  C   UNL     1      -0.620  10.966  22.067  0.00  0.00    +0.000 A 
ATOM      2  C   UNL     1      -0.455  11.012  20.681  0.00  0.00    +0.000 A 
ATOM      3  C   UNL     1       0.269  10.023  20.010  0.00  0.00    +0.000 A 
ATOM      4  C   UNL     1       0.857   8.963  20.704  0.00  0.00    +0.000 A 
ATOM      5  C   UNL     1       0.663   8.884  22.084  0.00  0.00    +0.000 A 
ATOM      6  C   UNL     1      -0.060   9.882  22.760  0.00  0.00    +0.000 A 
ENDROOT
BRANCH   1  11
ATOM      7  N   UNL     1      -4.113  13.061  24.667  0.00  0.00    +0.000 N 
ATOM      8  C   UNL     1      -2.980  12.982  23.963  0.00  0.00    +0.000 A 
ATOM      9  N   UNL     1      -2.112  13.930  23.743  0.00  0.00    +0.000 NA
ATOM     10  C   UNL     1      -1.115  13.345  23.002  0.00  0.00    +0.000 A 
ATOM     11  C   UNL     1      -1.374  12.008  22.760  0.00  0.00    +0.000 A 
ATOM     12  N   UNL     1      -2.596  11.813  23.371  0.00  0.00    +0.000 N 
ATOM     13  H   UNL     1      -4.408  13.997  24.930  0.00  0.00    +0.000 HD
ATOM     14  H   UNL     1      -4.877  12.407  24.549  0.00  0.00    +0.000 HD
ATOM     15  H   UNL     1      -3.118  10.952  23.402  0.00  0.00    +0.000 HD
ENDBRANCH   1  11
BRANCH   4  16
ATOM     16  N   UNL     1       1.635   7.967  20.057  0.00  0.00    +0.000 N 
ATOM     17  C   UNL     1       2.113   8.076  18.760  0.00  0.00    +0.000 C 
ATOM     18  O   UNL     1       1.993   9.054  18.026  0.00  0.00    +0.000 OA
ATOM     19  H   UNL     1       1.985   7.216  20.638  0.00  0.00    +0.000 HD
BRANCH  17  20
ATOM     20  C   UNL     1       2.891   6.935  18.211  0.00  0.00    +0.000 A 
ATOM     21  C   UNL     1       4.067   7.249  17.503  0.00  0.00    +0.000 A 
ATOM     22  C   UNL     1       4.788   6.253  16.848  0.00  0.00    +0.000 A 
ATOM     23  C   UNL     1       4.330   4.943  16.895  0.00  0.00    +0.000 A 
ATOM     24  F   UNL     1       5.019   4.001  16.235  0.00  0.00    +0.000 F 
ATOM     25  C   UNL     1       3.169   4.620  17.601  0.00  0.00    +0.000 A 
ATOM     26 CL   UNL     1       2.598   2.994  17.631  0.00  0.00    +0.000 Cl
ATOM     27  C   UNL     1       2.441   5.614  18.267  0.00  0.00    +0.000 A 
ENDBRANCH  17  20
ENDBRANCH   4  16
TORSDOF 3
ENDMDL
MODEL 5
REMARK VINA RESULT:      -7.7      0.310      1.047
REMARK  Name = 
REMARK  3 active torsions:
REMARK  status: ('A' for Active; 'I' for Inactive)
REMARK    1  A    between atoms: C_5  and  C_6
REMARK    2  A    between atoms: C_9  and  N_10
REMARK    3  A    between atoms: C_11  and  C_13
REMARK                            x       y       z     vdW  Elec       q    Type
REMARK                         _______ _______ _______ _____ _____    ______ ____
ROOT
ATOM      1  C   UNL     1       3.979   6.138  17.502  0.00  0.00    +0.000 A 
ATOM      2  C   UNL     1       3.662   7.464  17.201  0.00  0.00    +0.000 A 
ATOM      3  C   UNL     1       2.854   8.221  18.054  0.00  0.00    +0.000 A 
ATOM      4  C   UNL     1       2.331   7.674  19.227  0.00  0.00    +0.000 A 
ATOM      5  C   UNL     1       2.676   6.362  19.559  0.00  0.00    +0.000 A 
ATOM      6  C   UNL     1       3.484   5.598  18.699  0.00  0.00    +0.000 A 
ENDROOT
BRANCH   1  11
ATOM      7  N   UNL     1       7.144   5.117  13.995  0.00  0.00    +0.000 N 
ATOM      8  C   UNL     1       6.283   4.873  14.988  0.00  0.00    +0.000 A 
ATOM      9  N   UNL     1       5.987   3.718  15.519  0.00  0.00    +0.000 NA
ATOM     10  C   UNL     1       5.086   3.997  16.516  0.00  0.00    +0.000 A 
ATOM     11  C   UNL     1       4.821   5.352  16.602  0.00  0.00    +0.000 A 
ATOM     12  N   UNL     1       5.588   5.884  15.586  0.00  0.00    +0.000 N 
ATOM     13  H   UNL     1       7.489   4.302  13.496  0.00  0.00    +0.000 HD
ATOM     14  H   UNL     1       7.104   5.958  13.432  0.00  0.00    +0.000 HD
ATOM     15  H   UNL     1       5.653   6.857  15.333  0.00  0.00    +0.000 HD
ENDBRANCH   1  11
BRANCH   4  16
ATOM     16  N   UNL     1       1.471   8.402  20.091  0.00  0.00    +0.000 N 
ATOM     17  C   UNL     1       1.049   9.701  19.850  0.00  0.00    +0.000 C 
ATOM     18  O   UNL     1       1.295  10.367  18.848  0.00  0.00    +0.000 OA
ATOM     19  H   UNL     1       1.025   7.880  20.834  0.00  0.00    +0.000 HD
BRANCH  17  20
ATOM     20  C   UNL     1       0.171  10.341  20.865  0.00  0.00    +0.000 A 
ATOM     21  C   UNL     1       0.148   9.757  22.145  0.00  0.00    +0.000 A 
ATOM     22  C   UNL     1      -0.739  10.213  23.118  0.00  0.00    +0.000 A 
ATOM     23  C   UNL     1      -1.609  11.251  22.808  0.00  0.00    +0.000 A 
ATOM     24  F   UNL     1      -2.477  11.658  23.746  0.00  0.00    +0.000 F 
ATOM     25  C   UNL     1      -1.588  11.842  21.543  0.00  0.00    +0.000 A 
ATOM     26 CL   UNL     1      -2.689  13.112  21.163  0.00  0.00    +0.000 Cl
ATOM     27  C   UNL     1      -0.696  11.393  20.562  0.00  0.00    +0.000 A 
ENDBRANCH  17  20
ENDBRANCH   4  16
TORSDOF 3
ENDMDL
MODEL 6
REMARK VINA RESULT:      -7.6      1.237      1.626
REMARK  Name = 
REMARK  3 active torsions:
REMARK  status: ('A' for Active; 'I' for Inactive)
REMARK    1  A    between atoms: C_5  and  C_6
REMARK    2  A    between atoms: C_9  and  N_10
REMARK    3  A    between atoms: C_11  and  C_13
REMARK                            x       y       z     vdW  Elec       q    Type
REMARK                         _______ _______ _______ _____ _____    ______ ____
ROOT
ATOM      1  C   UNL     1       4.648   5.725  16.572  0.00  0.00    +0.000 A 
ATOM      2  C   UNL     1       3.772   4.989  17.372  0.00  0.00    +0.000 A 
ATOM      3  C   UNL     1       2.953   5.621  18.312  0.00  0.00    +0.000 A 
ATOM      4  C   UNL     1       2.990   7.005  18.487  0.00  0.00    +0.000 A 
ATOM      5  C   UNL     1       3.832   7.756  17.664  0.00  0.00    +0.000 A 
ATOM      6  C   UNL     1       4.660   7.120  16.723  0.00  0.00    +0.000 A 
ENDROOT
BRANCH   1  11
ATOM      7  N   UNL     1       5.943   3.177  12.675  0.00  0.00    +0.000 N 
ATOM      8  C   UNL     1       6.111   3.884  13.798  0.00  0.00    +0.000 A 
ATOM      9  N   UNL     1       7.236   4.259  14.342  0.00  0.00    +0.000 NA
ATOM     10  C   UNL     1       6.878   4.983  15.452  0.00  0.00    +0.000 A 
ATOM     11  C   UNL     1       5.504   5.055  15.596  0.00  0.00    +0.000 A 
ATOM     12  N   UNL     1       5.040   4.315  14.528  0.00  0.00    +0.000 N 
ATOM     13  H   UNL     1       6.782   2.755  12.287  0.00  0.00    +0.000 HD
ATOM     14  H   UNL     1       5.094   2.664  12.474  0.00  0.00    +0.000 HD
ATOM     15  H   UNL     1       4.076   4.134  14.300  0.00  0.00    +0.000 HD
ENDBRANCH   1  11
BRANCH   4  16
ATOM     16  N   UNL     1       2.204   7.672  19.463  0.00  0.00    +0.000 N 
ATOM     17  C   UNL     1       1.488   8.834  19.221  0.00  0.00    +0.000 C 
ATOM     18  O   UNL     1       1.377   9.402  18.137  0.00  0.00    +0.000 OA
ATOM     19  H   UNL     1       2.041   7.177  20.331  0.00  0.00    +0.000 HD
BRANCH  17  20
ATOM     20  C   UNL     1       0.735   9.431  20.356  0.00  0.00    +0.000 A 
ATOM     21  C   UNL     1       0.724   8.706  21.563  0.00  0.00    +0.000 A 
ATOM     22  C   UNL     1      -0.059   9.126  22.635  0.00  0.00    +0.000 A 
ATOM     23  C   UNL     1      -0.837  10.269  22.500  0.00  0.00    +0.000 A 
ATOM     24  F   UNL     1      -1.608  10.644  23.531  0.00  0.00    +0.000 F 
ATOM     25  C   UNL     1      -0.827  10.999  21.310  0.00  0.00    +0.000 A 
ATOM     26 CL   UNL     1      -1.815  12.401  21.145  0.00  0.00    +0.000 Cl
ATOM     27  C   UNL     1      -0.039  10.587  20.228  0.00  0.00    +0.000 A 
ENDBRANCH  17  20
ENDBRANCH   4  16
TORSDOF 3
ENDMDL
MODEL 7
REMARK VINA RESULT:      -7.6      1.919      2.648
REMARK  Name = 
REMARK  3 active torsions:
REMARK  status: ('A' for Active; 'I' for Inactive)
REMARK    1  A    between atoms: C_5  and  C_6
REMARK    2  A    between atoms: C_9  and  N_10
REMARK    3  A    between atoms: C_11  and  C_13
REMARK                            x       y       z     vdW  Elec       q    Type
REMARK                         _______ _______ _______ _____ _____    ______ ____
ROOT
ATOM      1  C   UNL     1       2.485   7.589  18.539  0.00  0.00    +0.000 A 
ATOM      2  C   UNL     1       2.166   7.379  19.882  0.00  0.00    +0.000 A 
ATOM      3  C   UNL     1       1.336   8.267  20.571  0.00  0.00    +0.000 A 
ATOM      4  C   UNL     1       0.807   9.396  19.943  0.00  0.00    +0.000 A 
ATOM      5  C   UNL     1       1.085   9.594  18.589  0.00  0.00    +0.000 A 
ATOM      6  C   UNL     1       1.925   8.704  17.897  0.00  0.00    +0.000 A 
ENDROOT
BRANCH   1  11
ATOM      7  N   UNL     1       6.115   5.991  15.777  0.00  0.00    +0.000 N 
ATOM      8  C   UNL     1       5.033   5.912  16.557  0.00  0.00    +0.000 A 
ATOM      9  N   UNL     1       4.441   4.833  16.990  0.00  0.00    +0.000 NA
ATOM     10  C   UNL     1       3.406   5.276  17.775  0.00  0.00    +0.000 A 
ATOM     11  C   UNL     1       3.358   6.658  17.827  0.00  0.00    +0.000 A 
ATOM     12  N   UNL     1       4.404   7.036  17.010  0.00  0.00    +0.000 N 
ATOM     13  H   UNL     1       6.419   5.122  15.350  0.00  0.00    +0.000 HD
ATOM     14  H   UNL     1       6.338   6.817  15.235  0.00  0.00    +0.000 HD
ATOM     15  H   UNL     1       4.682   7.980  16.795  0.00  0.00    +0.000 HD
ENDBRANCH   1  11
BRANCH   4  16
ATOM     16  N   UNL     1      -0.002  10.340  20.628  0.00  0.00    +0.000 N 
ATOM     17  C   UNL     1       0.491  11.476  21.253  0.00  0.00    +0.000 C 
ATOM     18  O   UNL     1       1.660  11.855  21.245  0.00  0.00    +0.000 OA
ATOM     19  H   UNL     1      -1.003  10.251  20.511  0.00  0.00    +0.000 HD
BRANCH  17  20
ATOM     20  C   UNL     1      -0.480  12.355  21.956  0.00  0.00    +0.000 A 
ATOM     21  C   UNL     1      -0.127  13.711  22.091  0.00  0.00    +0.000 A 
ATOM     22  C   UNL     1      -0.915  14.579  22.843  0.00  0.00    +0.000 A 
ATOM     23  C   UNL     1      -2.056  14.089  23.467  0.00  0.00    +0.000 A 
ATOM     24  F   UNL     1      -2.788  14.929  24.212  0.00  0.00    +0.000 F 
ATOM     25  C   UNL     1      -2.419  12.747  23.332  0.00  0.00    +0.000 A 
ATOM     26 CL   UNL     1      -3.822  12.145  24.131  0.00  0.00    +0.000 Cl
ATOM     27  C   UNL     1      -1.634  11.869  22.574  0.00  0.00    +0.000 A 
ENDBRANCH  17  20
ENDBRANCH   4  16
TORSDOF 3
ENDMDL
MODEL 8
REMARK VINA RESULT:      -7.6      2.239      3.307
REMARK  Name = 
REMARK  3 active torsions:
REMARK  status: ('A' for Active; 'I' for Inactive)
REMARK    1  A    between atoms: C_5  and  C_6
REMARK    2  A    between atoms: C_9  and  N_10
REMARK    3  A    between atoms: C_11  and  C_13
REMARK                            x       y       z     vdW  Elec       q    Type
REMARK                         _______ _______ _______ _____ _____    ______ ____
ROOT
ATOM      1  C   UNL     1       2.457   7.245  19.296  0.00  0.00    +0.000 A 
ATOM      2  C   UNL     1       2.092   8.326  18.490  0.00  0.00    +0.000 A 
ATOM      3  C   UNL     1       1.224   9.314  18.963  0.00  0.00    +0.000 A 
ATOM      4  C   UNL     1       0.687   9.247  20.250  0.00  0.00    +0.000 A 
ATOM      5  C   UNL     1       1.077   8.193  21.078  0.00  0.00    +0.000 A 
ATOM      6  C   UNL     1       1.946   7.196  20.601  0.00  0.00    +0.000 A 
ENDROOT
BRANCH   1  11
ATOM      7  N   UNL     1       5.348   3.372  19.269  0.00  0.00    +0.000 N 
ATOM      8  C   UNL     1       4.694   4.426  18.769  0.00  0.00    +0.000 A 
ATOM      9  N   UNL     1       4.642   4.814  17.525  0.00  0.00    +0.000 NA
ATOM     10  C   UNL     1       3.823   5.916  17.522  0.00  0.00    +0.000 A 
ATOM     11  C   UNL     1       3.362   6.214  18.791  0.00  0.00    +0.000 A 
ATOM     12  N   UNL     1       3.963   5.251  19.575  0.00  0.00    +0.000 N 
ATOM     13  H   UNL     1       5.998   2.913  18.637  0.00  0.00    +0.000 HD
ATOM     14  H   UNL     1       5.603   3.301  20.246  0.00  0.00    +0.000 HD
ATOM     15  H   UNL     1       3.868   5.148  20.573  0.00  0.00    +0.000 HD
ENDBRANCH   1  11
BRANCH   4  16
ATOM     16  N   UNL     1      -0.233  10.210  20.743  0.00  0.00    +0.000 N 
ATOM     17  C   UNL     1       0.140  11.399  21.350  0.00  0.00    +0.000 C 
ATOM     18  O   UNL     1       1.289  11.814  21.482  0.00  0.00    +0.000 OA
ATOM     19  H   UNL     1      -1.204  10.081  20.490  0.00  0.00    +0.000 HD
BRANCH  17  20
ATOM     20  C   UNL     1      -0.941  12.293  21.841  0.00  0.00    +0.000 A 
ATOM     21  C   UNL     1      -0.868  13.647  21.463  0.00  0.00    +0.000 A 
ATOM     22  C   UNL     1      -1.765  14.579  21.980  0.00  0.00    +0.000 A 
ATOM     23  C   UNL     1      -2.734  14.157  22.882  0.00  0.00    +0.000 A 
ATOM     24  F   UNL     1      -3.571  15.071  23.394  0.00  0.00    +0.000 F 
ATOM     25  C   UNL     1      -2.820  12.815  23.258  0.00  0.00    +0.000 A 
ATOM     26 CL   UNL     1      -4.010  12.309  24.397  0.00  0.00    +0.000 Cl
ATOM     27  C   UNL     1      -1.925  11.872  22.739  0.00  0.00    +0.000 A 
ENDBRANCH  17  20
ENDBRANCH   4  16
TORSDOF 3
ENDMDL
MODEL 9
REMARK VINA RESULT:      -7.5      4.742      9.588
REMARK  Name = 
REMARK  3 active torsions:
REMARK  status: ('A' for Active; 'I' for Inactive)
REMARK    1  A    between atoms: C_5  and  C_6
REMARK    2  A    between atoms: C_9  and  N_10
REMARK    3  A    between atoms: C_11  and  C_13
REMARK                            x       y       z     vdW  Elec       q    Type
REMARK                         _______ _______ _______ _____ _____    ______ ____
ROOT
ATOM      1  C   UNL     1      -0.602  10.801  22.037  0.00  0.00    +0.000 A 
ATOM      2  C   UNL     1       0.119   9.837  22.744  0.00  0.00    +0.000 A 
ATOM      3  C   UNL     1       0.888   8.881  22.075  0.00  0.00    +0.000 A 
ATOM      4  C   UNL     1       0.953   8.853  20.681  0.00  0.00    +0.000 A 
ATOM      5  C   UNL     1       0.269   9.838  19.965  0.00  0.00    +0.000 A 
ATOM      6  C   UNL     1      -0.509  10.796  20.637  0.00  0.00    +0.000 A 
ENDROOT
BRANCH   1  11
ATOM      7  N   UNL     1      -4.220  12.691  24.625  0.00  0.00    +0.000 N 
ATOM      8  C   UNL     1      -3.071  12.674  23.942  0.00  0.00    +0.000 A 
ATOM      9  N   UNL     1      -2.234  13.659  23.766  0.00  0.00    +0.000 NA
ATOM     10  C   UNL     1      -1.203  13.133  23.028  0.00  0.00    +0.000 A 
ATOM     11  C   UNL     1      -1.408  11.795  22.744  0.00  0.00    +0.000 A 
ATOM     12  N   UNL     1      -2.633  11.537  23.325  0.00  0.00    +0.000 N 
ATOM     13  H   UNL     1      -4.554  13.608  24.908  0.00  0.00    +0.000 HD
ATOM     14  H   UNL     1      -4.956  12.013  24.473  0.00  0.00    +0.000 HD
ATOM     15  H   UNL     1      -3.122  10.657  23.322  0.00  0.00    +0.000 HD
ENDBRANCH   1  11
BRANCH   4  16
ATOM     16  N   UNL     1       1.688   7.868  19.971  0.00  0.00    +0.000 N 
ATOM     17  C   UNL     1       2.133   8.021  18.667  0.00  0.00    +0.000 C 
ATOM     18  O   UNL     1       2.019   9.032  17.979  0.00  0.00    +0.000 OA
ATOM     19  H   UNL     1       2.034   7.084  20.510  0.00  0.00    +0.000 HD
BRANCH  17  20
ATOM     20  C   UNL     1       2.866   6.885  18.049  0.00  0.00    +0.000 A 
ATOM     21  C   UNL     1       2.289   5.608  18.181  0.00  0.00    +0.000 A 
ATOM     22  C   UNL     1       2.968   4.473  17.744  0.00  0.00    +0.000 A 
ATOM     23  C   UNL     1       4.229   4.614  17.180  0.00  0.00    +0.000 A 
ATOM     24  F   UNL     1       4.883   3.509  16.791  0.00  0.00    +0.000 F 
ATOM     25  C   UNL     1       4.807   5.877  17.037  0.00  0.00    +0.000 A 
ATOM     26 CL   UNL     1       6.383   6.037  16.357  0.00  0.00    +0.000 Cl
ATOM     27  C   UNL     1       4.129   7.024  17.468  0.00  0.00    +0.000 A 
ENDBRANCH  17  20
ENDBRANCH   4  16
TORSDOF 3
ENDMDL
