MODEL 1
REMARK VINA RESULT:      -8.0      0.000      0.000
REMARK  Name = 
REMARK  5 active torsions:
REMARK  status: ('A' for Active; 'I' for Inactive)
REMARK    1  A    between atoms: C_1  and  O_2
REMARK    2  A    between atoms: O_2  and  C_3
REMARK    3  A    between atoms: C_6  and  C_7
REMARK    4  A    between atoms: C_7  and  C_9
REMARK    5  A    between atoms: C_11  and  C_12
REMARK                            x       y       z     vdW  Elec       q    Type
REMARK                         _______ _______ _______ _____ _____    ______ ____
ROOT
ATOM      1  C   UNL     1       2.179   4.866  19.185  0.00  0.00    +0.000 C 
ATOM      2  C   UNL     1       1.666   5.098  20.592  0.00  0.00    +0.000 C 
ATOM      3  C   UNL     1       2.625   6.080  19.980  0.00  0.00    +0.000 C 
ENDROOT
BRANCH   3   4
ATOM      4  C   UNL     1       2.179   7.479  19.647  0.00  0.00    +0.000 A 
ATOM      5  C   UNL     1       2.349   7.989  18.331  0.00  0.00    +0.000 A 
ATOM      6  C   UNL     1       1.710   9.156  17.898  0.00  0.00    +0.000 A 
ATOM      7  C   UNL     1       0.876   9.777  18.795  0.00  0.00    +0.000 A 
ATOM      8  C   UNL     1       0.759   9.343  20.096  0.00  0.00    +0.000 A 
ATOM      9  C   UNL     1       1.423   8.230  20.561  0.00  0.00    +0.000 A 
ATOM     10  O   UNL     1      -0.185  10.045  20.786  0.00  0.00    +0.000 OA
ATOM     11  C   UNL     1      -0.854  10.673  19.673  0.00  0.00    +0.000 C 
ATOM     12  O   UNL     1      -0.000  10.783  18.515  0.00  0.00    +0.000 OA
ENDBRANCH   3   4
BRANCH   1  13
ATOM     13  C   UNL     1       3.192   3.793  18.926  0.00  0.00    +0.000 C 
ATOM     14  O   UNL     1       3.050   2.689  19.443  0.00  0.00    +0.000 OA
BRANCH  13  18
ATOM     15  C   UNL     1       6.575   4.564  16.358  0.00  0.00    +0.000 A 
ATOM     16  C   UNL     1       5.331   4.215  15.837  0.00  0.00    +0.000 A 
ATOM     17  C   UNL     1       4.246   3.977  16.687  0.00  0.00    +0.000 A 
ATOM     18  C   UNL     1       4.394   4.064  18.077  0.00  0.00    +0.000 A 
ATOM     19  C   UNL     1       5.652   4.390  18.599  0.00  0.00    +0.000 A 
ATOM     20  C   UNL     1       6.736   4.642  17.742  0.00  0.00    +0.000 A 
BRANCH  15  22
ATOM     21  C   UNL     1       7.141   4.797  14.067  0.00  0.00    +0.000 C 
ATOM     22  O   UNL     1       7.554   4.776  15.428  0.00  0.00    +0.000 OA
ENDBRANCH  15  22
ENDBRANCH  13  18
ENDBRANCH   1  13
TORSDOF 4
ENDMDL
MODEL 2
REMARK VINA RESULT:      -7.9      3.544      5.037
REMARK  Name = 
REMARK  5 active torsions:
REMARK  status: ('A' for Active; 'I' for Inactive)
REMARK    1  A    between atoms: C_1  and  O_2
REMARK    2  A    between atoms: O_2  and  C_3
REMARK    3  A    between atoms: C_6  and  C_7
REMARK    4  A    between atoms: C_7  and  C_9
REMARK    5  A    between atoms: C_11  and  C_12
REMARK                            x       y       z     vdW  Elec       q    Type
REMARK                         _______ _______ _______ _____ _____    ______ ____
ROOT
ATOM      1  C   UNL     1       6.061   5.056  17.528  0.00  0.00    +0.000 C 
ATOM      2  C   UNL     1       6.163   5.877  18.797  0.00  0.00    +0.000 C 
ATOM      3  C   UNL     1       4.900   5.922  17.983  0.00  0.00    +0.000 C 
ENDROOT
BRANCH   3   4
ATOM      4  C   UNL     1       3.619   5.348  18.525  0.00  0.00    +0.000 A 
ATOM      5  C   UNL     1       2.684   4.734  17.647  0.00  0.00    +0.000 A 
ATOM      6  C   UNL     1       1.628   3.947  18.118  0.00  0.00    +0.000 A 
ATOM      7  C   UNL     1       1.550   3.760  19.477  0.00  0.00    +0.000 A 
ATOM      8  C   UNL     1       2.399   4.407  20.346  0.00  0.00    +0.000 A 
ATOM      9  C   UNL     1       3.409   5.233  19.908  0.00  0.00    +0.000 A 
ATOM     10  O   UNL     1       2.206   4.012  21.637  0.00  0.00    +0.000 OA
ATOM     11  C   UNL     1       1.429   2.821  21.392  0.00  0.00    +0.000 C 
ATOM     12  O   UNL     1       0.748   2.867  20.121  0.00  0.00    +0.000 OA
ENDBRANCH   3   4
BRANCH   1  13
ATOM     13  C   UNL     1       6.808   5.480  16.301  0.00  0.00    +0.000 C 
ATOM     14  O   UNL     1       7.633   6.385  16.377  0.00  0.00    +0.000 OA
BRANCH  13  18
ATOM     15  C   UNL     1       5.878   3.595  12.531  0.00  0.00    +0.000 A 
ATOM     16  C   UNL     1       5.043   3.459  13.638  0.00  0.00    +0.000 A 
ATOM     17  C   UNL     1       5.360   4.084  14.848  0.00  0.00    +0.000 A 
ATOM     18  C   UNL     1       6.531   4.841  14.976  0.00  0.00    +0.000 A 
ATOM     19  C   UNL     1       7.380   4.956  13.869  0.00  0.00    +0.000 A 
ATOM     20  C   UNL     1       7.052   4.339  12.652  0.00  0.00    +0.000 A 
BRANCH  15  22
ATOM     21  C   UNL     1       4.086   3.085  11.064  0.00  0.00    +0.000 C 
ATOM     22  O   UNL     1       5.459   2.942  11.405  0.00  0.00    +0.000 OA
ENDBRANCH  15  22
ENDBRANCH  13  18
ENDBRANCH   1  13
TORSDOF 4
ENDMDL
MODEL 3
REMARK VINA RESULT:      -7.8      0.909      1.618
REMARK  Name = 
REMARK  5 active torsions:
REMARK  status: ('A' for Active; 'I' for Inactive)
REMARK    1  A    between atoms: C_1  and  O_2
REMARK    2  A    between atoms: O_2  and  C_3
REMARK    3  A    between atoms: C_6  and  C_7
REMARK    4  A    between atoms: C_7  and  C_9
REMARK    5  A    between atoms: C_11  and  C_12
REMARK                            x       y       z     vdW  Elec       q    Type
REMARK                         _______ _______ _______ _____ _____    ______ ____
ROOT
ATOM      1  C   UNL     1       2.623   4.383  19.448  0.00  0.00    +0.000 C 
ATOM      2  C   UNL     1       2.353   4.612  20.921  0.00  0.00    +0.000 C 
ATOM      3  C   UNL     1       2.947   5.717  20.095  0.00  0.00    +0.000 C 
ENDROOT
BRANCH   3   4
ATOM      4  C   UNL     1       2.161   6.970  19.815  0.00  0.00    +0.000 A 
ATOM      5  C   UNL     1       1.434   7.605  20.858  0.00  0.00    +0.000 A 
ATOM      6  C   UNL     1       0.925   8.902  20.728  0.00  0.00    +0.000 A 
ATOM      7  C   UNL     1       1.190   9.558  19.550  0.00  0.00    +0.000 A 
ATOM      8  C   UNL     1       1.825   8.933  18.501  0.00  0.00    +0.000 A 
ATOM      9  C   UNL     1       2.283   7.638  18.585  0.00  0.00    +0.000 A 
ATOM     10  O   UNL     1       2.065   9.789  17.467  0.00  0.00    +0.000 OA
ATOM     11  C   UNL     1       1.843  11.038  18.154  0.00  0.00    +0.000 C 
ATOM     12  O   UNL     1       0.984  10.882  19.303  0.00  0.00    +0.000 OA
ENDBRANCH   3   4
BRANCH   1  13
ATOM     13  C   UNL     1       3.769   3.518  19.023  0.00  0.00    +0.000 C 
ATOM     14  O   UNL     1       3.885   2.391  19.495  0.00  0.00    +0.000 OA
BRANCH  13  18
ATOM     15  C   UNL     1       6.637   4.967  16.140  0.00  0.00    +0.000 A 
ATOM     16  C   UNL     1       5.402   4.457  15.745  0.00  0.00    +0.000 A 
ATOM     17  C   UNL     1       4.485   3.999  16.696  0.00  0.00    +0.000 A 
ATOM     18  C   UNL     1       4.797   4.026  18.061  0.00  0.00    +0.000 A 
ATOM     19  C   UNL     1       6.048   4.517  18.454  0.00  0.00    +0.000 A 
ATOM     20  C   UNL     1       6.962   4.988  17.497  0.00  0.00    +0.000 A 
BRANCH  15  22
ATOM     21  C   UNL     1       7.184   4.831  13.837  0.00  0.00    +0.000 C 
ATOM     22  O   UNL     1       7.444   5.387  15.120  0.00  0.00    +0.000 OA
ENDBRANCH  15  22
ENDBRANCH  13  18
ENDBRANCH   1  13
TORSDOF 4
ENDMDL
MODEL 4
REMARK VINA RESULT:      -7.8      1.000      1.962
REMARK  Name = 
REMARK  5 active torsions:
REMARK  status: ('A' for Active; 'I' for Inactive)
REMARK    1  A    between atoms: C_1  and  O_2
REMARK    2  A    between atoms: O_2  and  C_3
REMARK    3  A    between atoms: C_6  and  C_7
REMARK    4  A    between atoms: C_7  and  C_9
REMARK    5  A    between atoms: C_11  and  C_12
REMARK                            x       y       z     vdW  Elec       q    Type
REMARK                         _______ _______ _______ _____ _____    ______ ____
ROOT
ATOM      1  C   UNL     1       2.873   4.377  19.282  0.00  0.00    +0.000 C 
ATOM      2  C   UNL     1       2.587   4.554  20.759  0.00  0.00    +0.000 C 
ATOM      3  C   UNL     1       3.128   5.709  19.964  0.00  0.00    +0.000 C 
ENDROOT
BRANCH   3   4
ATOM      4  C   UNL     1       2.282   6.928  19.712  0.00  0.00    +0.000 A 
ATOM      5  C   UNL     1       1.485   7.471  20.756  0.00  0.00    +0.000 A 
ATOM      6  C   UNL     1       0.907   8.743  20.665  0.00  0.00    +0.000 A 
ATOM      7  C   UNL     1       1.173   9.466  19.528  0.00  0.00    +0.000 A 
ATOM      8  C   UNL     1       1.878   8.928  18.476  0.00  0.00    +0.000 A 
ATOM      9  C   UNL     1       2.406   7.657  18.519  0.00  0.00    +0.000 A 
ATOM     10  O   UNL     1       2.103   9.843  17.491  0.00  0.00    +0.000 OA
ATOM     11  C   UNL     1       1.787  11.044  18.225  0.00  0.00    +0.000 C 
ATOM     12  O   UNL     1       0.901  10.787  19.333  0.00  0.00    +0.000 OA
ENDBRANCH   3   4
BRANCH   1  13
ATOM     13  C   UNL     1       4.062   3.581  18.841  0.00  0.00    +0.000 C 
ATOM     14  O   UNL     1       4.341   2.537  19.422  0.00  0.00    +0.000 OA
BRANCH  13  18
ATOM     15  C   UNL     1       6.693   4.995  15.724  0.00  0.00    +0.000 A 
ATOM     16  C   UNL     1       7.061   5.049  17.067  0.00  0.00    +0.000 A 
ATOM     17  C   UNL     1       6.196   4.578  18.060  0.00  0.00    +0.000 A 
ATOM     18  C   UNL     1       4.937   4.064  17.727  0.00  0.00    +0.000 A 
ATOM     19  C   UNL     1       4.560   4.035  16.378  0.00  0.00    +0.000 A 
ATOM     20  C   UNL     1       5.436   4.495  15.383  0.00  0.00    +0.000 A 
BRANCH  15  22
ATOM     21  C   UNL     1       7.558   4.988  13.516  0.00  0.00    +0.000 C 
ATOM     22  O   UNL     1       7.625   5.480  14.849  0.00  0.00    +0.000 OA
ENDBRANCH  15  22
ENDBRANCH  13  18
ENDBRANCH   1  13
TORSDOF 4
ENDMDL
MODEL 5
REMARK VINA RESULT:      -7.7      0.231      1.051
REMARK  Name = 
REMARK  5 active torsions:
REMARK  status: ('A' for Active; 'I' for Inactive)
REMARK    1  A    between atoms: C_1  and  O_2
REMARK    2  A    between atoms: O_2  and  C_3
REMARK    3  A    between atoms: C_6  and  C_7
REMARK    4  A    between atoms: C_7  and  C_9
REMARK    5  A    between atoms: C_11  and  C_12
REMARK                            x       y       z     vdW  Elec       q    Type
REMARK                         _______ _______ _______ _____ _____    ______ ____
ROOT
ATOM      1  C   UNL     1       2.109   4.909  19.465  0.00  0.00    +0.000 C 
ATOM      2  C   UNL     1       1.753   5.253  20.897  0.00  0.00    +0.000 C 
ATOM      3  C   UNL     1       2.636   6.179  20.108  0.00  0.00    +0.000 C 
ENDROOT
BRANCH   3   4
ATOM      4  C   UNL     1       2.152   7.550  19.718  0.00  0.00    +0.000 A 
ATOM      5  C   UNL     1       2.341   8.023  18.391  0.00  0.00    +0.000 A 
ATOM      6  C   UNL     1       1.676   9.153  17.902  0.00  0.00    +0.000 A 
ATOM      7  C   UNL     1       0.796   9.773  18.755  0.00  0.00    +0.000 A 
ATOM      8  C   UNL     1       0.658   9.377  20.066  0.00  0.00    +0.000 A 
ATOM      9  C   UNL     1       1.346   8.304  20.586  0.00  0.00    +0.000 A 
ATOM     10  O   UNL     1      -0.328  10.068  20.707  0.00  0.00    +0.000 OA
ATOM     11  C   UNL     1      -0.987  10.636  19.557  0.00  0.00    +0.000 C 
ATOM     12  O   UNL     1      -0.105  10.738  18.419  0.00  0.00    +0.000 OA
ENDBRANCH   3   4
BRANCH   1  13
ATOM     13  C   UNL     1       3.089   3.813  19.181  0.00  0.00    +0.000 C 
ATOM     14  O   UNL     1       3.009   2.755  19.797  0.00  0.00    +0.000 OA
BRANCH  13  18
ATOM     15  C   UNL     1       6.356   4.394  16.420  0.00  0.00    +0.000 A 
ATOM     16  C   UNL     1       6.522   4.575  17.792  0.00  0.00    +0.000 A 
ATOM     17  C   UNL     1       5.452   4.374  18.669  0.00  0.00    +0.000 A 
ATOM     18  C   UNL     1       4.189   4.009  18.185  0.00  0.00    +0.000 A 
ATOM     19  C   UNL     1       4.019   3.852  16.804  0.00  0.00    +0.000 A 
ATOM     20  C   UNL     1       5.100   4.041  15.927  0.00  0.00    +0.000 A 
BRANCH  15  22
ATOM     21  C   UNL     1       7.264   4.970  14.306  0.00  0.00    +0.000 C 
ATOM     22  O   UNL     1       7.476   4.615  15.667  0.00  0.00    +0.000 OA
ENDBRANCH  15  22
ENDBRANCH  13  18
ENDBRANCH   1  13
TORSDOF 4
ENDMDL
MODEL 6
REMARK VINA RESULT:      -7.7      0.910      1.105
REMARK  Name = 
REMARK  5 active torsions:
REMARK  status: ('A' for Active; 'I' for Inactive)
REMARK    1  A    between atoms: C_1  and  O_2
REMARK    2  A    between atoms: O_2  and  C_3
REMARK    3  A    between atoms: C_6  and  C_7
REMARK    4  A    between atoms: C_7  and  C_9
REMARK    5  A    between atoms: C_11  and  C_12
REMARK                            x       y       z     vdW  Elec       q    Type
REMARK                         _______ _______ _______ _____ _____    ______ ____
ROOT
ATOM      1  C   UNL     1       2.629   4.775  17.952  0.00  0.00    +0.000 C 
ATOM      2  C   UNL     1       1.811   4.602  19.216  0.00  0.00    +0.000 C 
ATOM      3  C   UNL     1       2.850   5.686  19.145  0.00  0.00    +0.000 C 
ENDROOT
BRANCH   3   4
ATOM      4  C   UNL     1       2.444   7.136  19.148  0.00  0.00    +0.000 A 
ATOM      5  C   UNL     1       2.561   7.912  17.963  0.00  0.00    +0.000 A 
ATOM      6  C   UNL     1       1.948   9.163  17.830  0.00  0.00    +0.000 A 
ATOM      7  C   UNL     1       1.192   9.600  18.891  0.00  0.00    +0.000 A 
ATOM      8  C   UNL     1       1.130   8.899  20.073  0.00  0.00    +0.000 A 
ATOM      9  C   UNL     1       1.773   7.694  20.248  0.00  0.00    +0.000 A 
ATOM     10  O   UNL     1       0.257   9.463  20.956  0.00  0.00    +0.000 OA
ATOM     11  C   UNL     1      -0.447  10.335  20.048  0.00  0.00    +0.000 C 
ATOM     12  O   UNL     1       0.344  10.667  18.888  0.00  0.00    +0.000 OA
ENDBRANCH   3   4
BRANCH   1  13
ATOM     13  C   UNL     1       3.706   3.790  17.619  0.00  0.00    +0.000 C 
ATOM     14  O   UNL     1       3.630   2.641  18.044  0.00  0.00    +0.000 OA
BRANCH  13  18
ATOM     15  C   UNL     1       7.050   4.979  15.161  0.00  0.00    +0.000 A 
ATOM     16  C   UNL     1       5.807   4.683  14.605  0.00  0.00    +0.000 A 
ATOM     17  C   UNL     1       4.735   4.306  15.420  0.00  0.00    +0.000 A 
ATOM     18  C   UNL     1       4.895   4.200  16.808  0.00  0.00    +0.000 A 
ATOM     19  C   UNL     1       6.152   4.474  17.361  0.00  0.00    +0.000 A 
ATOM     20  C   UNL     1       7.222   4.866  16.541  0.00  0.00    +0.000 A 
BRANCH  15  22
ATOM     21  C   UNL     1       7.689   5.189  12.887  0.00  0.00    +0.000 C 
ATOM     22  O   UNL     1       8.016   5.339  14.263  0.00  0.00    +0.000 OA
ENDBRANCH  15  22
ENDBRANCH  13  18
ENDBRANCH   1  13
TORSDOF 4
ENDMDL
MODEL 7
REMARK VINA RESULT:      -7.6      3.460      5.381
REMARK  Name = 
REMARK  5 active torsions:
REMARK  status: ('A' for Active; 'I' for Inactive)
REMARK    1  A    between atoms: C_1  and  O_2
REMARK    2  A    between atoms: O_2  and  C_3
REMARK    3  A    between atoms: C_6  and  C_7
REMARK    4  A    between atoms: C_7  and  C_9
REMARK    5  A    between atoms: C_11  and  C_12
REMARK                            x       y       z     vdW  Elec       q    Type
REMARK                         _______ _______ _______ _____ _____    ______ ____
ROOT
ATOM      1  C   UNL     1       6.550   5.020  17.599  0.00  0.00    +0.000 C 
ATOM      2  C   UNL     1       6.690   5.836  18.867  0.00  0.00    +0.000 C 
ATOM      3  C   UNL     1       5.339   5.689  18.224  0.00  0.00    +0.000 C 
ENDROOT
BRANCH   3   4
ATOM      4  C   UNL     1       4.246   4.915  18.911  0.00  0.00    +0.000 A 
ATOM      5  C   UNL     1       3.432   5.547  19.891  0.00  0.00    +0.000 A 
ATOM      6  C   UNL     1       2.241   4.973  20.350  0.00  0.00    +0.000 A 
ATOM      7  C   UNL     1       1.869   3.778  19.785  0.00  0.00    +0.000 A 
ATOM      8  C   UNL     1       2.680   3.115  18.893  0.00  0.00    +0.000 A 
ATOM      9  C   UNL     1       3.884   3.632  18.470  0.00  0.00    +0.000 A 
ATOM     10  O   UNL     1       2.081   1.998  18.390  0.00  0.00    +0.000 OA
ATOM     11  C   UNL     1       0.723   2.274  18.789  0.00  0.00    +0.000 C 
ATOM     12  O   UNL     1       0.659   3.166  19.921  0.00  0.00    +0.000 OA
ENDBRANCH   3   4
BRANCH   1  13
ATOM     13  C   UNL     1       7.053   5.565  16.298  0.00  0.00    +0.000 C 
ATOM     14  O   UNL     1       7.723   6.593  16.291  0.00  0.00    +0.000 OA
BRANCH  13  18
ATOM     15  C   UNL     1       5.949   3.588  12.623  0.00  0.00    +0.000 A 
ATOM     16  C   UNL     1       5.185   3.451  13.781  0.00  0.00    +0.000 A 
ATOM     17  C   UNL     1       5.557   4.106  14.959  0.00  0.00    +0.000 A 
ATOM     18  C   UNL     1       6.714   4.895  15.003  0.00  0.00    +0.000 A 
ATOM     19  C   UNL     1       7.493   5.011  13.845  0.00  0.00    +0.000 A 
ATOM     20  C   UNL     1       7.109   4.362  12.660  0.00  0.00    +0.000 A 
BRANCH  15  22
ATOM     21  C   UNL     1       4.118   3.118  11.191  0.00  0.00    +0.000 C 
ATOM     22  O   UNL     1       5.481   2.903  11.536  0.00  0.00    +0.000 OA
ENDBRANCH  15  22
ENDBRANCH  13  18
ENDBRANCH   1  13
TORSDOF 4
ENDMDL
MODEL 8
REMARK VINA RESULT:      -7.2      3.297      5.237
REMARK  Name = 
REMARK  5 active torsions:
REMARK  status: ('A' for Active; 'I' for Inactive)
REMARK    1  A    between atoms: C_1  and  O_2
REMARK    2  A    between atoms: O_2  and  C_3
REMARK    3  A    between atoms: C_6  and  C_7
REMARK    4  A    between atoms: C_7  and  C_9
REMARK    5  A    between atoms: C_11  and  C_12
REMARK                            x       y       z     vdW  Elec       q    Type
REMARK                         _______ _______ _______ _____ _____    ______ ____
ROOT
ATOM      1  C   UNL     1       5.838   5.469  17.283  0.00  0.00    +0.000 C 
ATOM      2  C   UNL     1       5.152   6.633  17.968  0.00  0.00    +0.000 C 
ATOM      3  C   UNL     1       4.359   5.733  17.063  0.00  0.00    +0.000 C 
ENDROOT
BRANCH   3   4
ATOM      4  C   UNL     1       3.282   4.843  17.623  0.00  0.00    +0.000 A 
ATOM      5  C   UNL     1       3.120   3.520  17.129  0.00  0.00    +0.000 A 
ATOM      6  C   UNL     1       2.337   2.569  17.792  0.00  0.00    +0.000 A 
ATOM      7  C   UNL     1       1.751   2.960  18.971  0.00  0.00    +0.000 A 
ATOM      8  C   UNL     1       1.832   4.257  19.425  0.00  0.00    +0.000 A 
ATOM      9  C   UNL     1       2.550   5.225  18.758  0.00  0.00    +0.000 A 
ATOM     10  O   UNL     1       1.258   4.405  20.653  0.00  0.00    +0.000 OA
ATOM     11  C   UNL     1       1.164   3.015  21.025  0.00  0.00    +0.000 C 
ATOM     12  O   UNL     1       1.140   2.144  19.875  0.00  0.00    +0.000 OA
ENDBRANCH   3   4
BRANCH   1  13
ATOM     13  C   UNL     1       6.768   5.718  16.136  0.00  0.00    +0.000 C 
ATOM     14  O   UNL     1       7.631   6.585  16.234  0.00  0.00    +0.000 OA
BRANCH  13  18
ATOM     15  C   UNL     1       6.248   3.451  12.500  0.00  0.00    +0.000 A 
ATOM     16  C   UNL     1       5.398   3.281  13.591  0.00  0.00    +0.000 A 
ATOM     17  C   UNL     1       5.580   4.031  14.757  0.00  0.00    +0.000 A 
ATOM     18  C   UNL     1       6.631   4.951  14.858  0.00  0.00    +0.000 A 
ATOM     19  C   UNL     1       7.499   5.102  13.769  0.00  0.00    +0.000 A 
ATOM     20  C   UNL     1       7.304   4.357  12.595  0.00  0.00    +0.000 A 
BRANCH  15  22
ATOM     21  C   UNL     1       6.939   1.687  11.073  0.00  0.00    +0.000 C 
ATOM     22  O   UNL     1       5.965   2.664  11.417  0.00  0.00    +0.000 OA
ENDBRANCH  15  22
ENDBRANCH  13  18
ENDBRANCH   1  13
TORSDOF 4
ENDMDL
MODEL 9
REMARK VINA RESULT:      -7.2      3.121      7.896
REMARK  Name = 
REMARK  5 active torsions:
REMARK  status: ('A' for Active; 'I' for Inactive)
REMARK    1  A    between atoms: C_1  and  O_2
REMARK    2  A    between atoms: O_2  and  C_3
REMARK    3  A    between atoms: C_6  and  C_7
REMARK    4  A    between atoms: C_7  and  C_9
REMARK    5  A    between atoms: C_11  and  C_12
REMARK                            x       y       z     vdW  Elec       q    Type
REMARK                         _______ _______ _______ _____ _____    ______ ____
ROOT
ATOM      1  C   UNL     1       1.788   8.348  17.963  0.00  0.00    +0.000 C 
ATOM      2  C   UNL     1       3.084   7.762  17.442  0.00  0.00    +0.000 C 
ATOM      3  C   UNL     1       2.615   7.412  18.826  0.00  0.00    +0.000 C 
ENDROOT
BRANCH   3   4
ATOM      4  C   UNL     1       2.180   6.009  19.154  0.00  0.00    +0.000 A 
ATOM      5  C   UNL     1       2.069   5.036  18.123  0.00  0.00    +0.000 A 
ATOM      6  C   UNL     1       1.945   3.670  18.399  0.00  0.00    +0.000 A 
ATOM      7  C   UNL     1       1.970   3.299  19.721  0.00  0.00    +0.000 A 
ATOM      8  C   UNL     1       2.000   4.231  20.734  0.00  0.00    +0.000 A 
ATOM      9  C   UNL     1       2.063   5.584  20.487  0.00  0.00    +0.000 A 
ATOM     10  O   UNL     1       2.110   3.647  21.962  0.00  0.00    +0.000 OA
ATOM     11  C   UNL     1       2.507   2.324  21.545  0.00  0.00    +0.000 C 
ATOM     12  O   UNL     1       2.086   2.028  20.198  0.00  0.00    +0.000 OA
ENDBRANCH   3   4
BRANCH   1  13
ATOM     13  C   UNL     1       1.725   9.790  18.362  0.00  0.00    +0.000 C 
ATOM     14  O   UNL     1       2.287  10.634  17.671  0.00  0.00    +0.000 OA
BRANCH  13  18
ATOM     15  C   UNL     1      -0.299  10.860  22.022  0.00  0.00    +0.000 A 
ATOM     16  C   UNL     1      -0.007   9.533  21.713  0.00  0.00    +0.000 A 
ATOM     17  C   UNL     1       0.655   9.209  20.524  0.00  0.00    +0.000 A 
ATOM     18  C   UNL     1       1.020  10.208  19.614  0.00  0.00    +0.000 A 
ATOM     19  C   UNL     1       0.704  11.539  19.916  0.00  0.00    +0.000 A 
ATOM     20  C   UNL     1       0.051  11.862  21.116  0.00  0.00    +0.000 A 
BRANCH  15  22
ATOM     21  C   UNL     1      -2.030  11.968  23.205  0.00  0.00    +0.000 C 
ATOM     22  O   UNL     1      -0.944  11.049  23.212  0.00  0.00    +0.000 OA
ENDBRANCH  15  22
ENDBRANCH  13  18
ENDBRANCH   1  13
TORSDOF 4
ENDMDL
