MODEL 1
REMARK VINA RESULT:      -9.3      0.000      0.000
REMARK  Name = 
REMARK  5 active torsions:
REMARK  status: ('A' for Active; 'I' for Inactive)
REMARK    1  A    between atoms: C_1  and  C_2
REMARK    2  A    between atoms: C_3  and  C_4
REMARK    3  A    between atoms: N_6  and  C_7
REMARK    4  A    between atoms: C_7  and  C_8
REMARK    5  A    between atoms: C_8  and  C_9
REMARK                            x       y       z     vdW  Elec       q    Type
REMARK                         _______ _______ _______ _____ _____    ______ ____
ROOT
ATOM      1  C   UNL     1       2.190   4.908  20.511  0.00  0.00    +0.000 C 
ATOM      2  O   UNL     1       2.512   4.442  21.599  0.00  0.00    +0.000 OA
ATOM      3  N   UNL     1       2.068   4.120  19.385  0.00  0.00    +0.000 N 
ATOM      4  H   UNL     1       1.891   4.601  18.512  0.00  0.00    +0.000 HD
ENDROOT
BRANCH   1   7
ATOM      5  C   UNL     1       2.985   6.961  17.996  0.00  0.00    +0.000 C 
ATOM      6  C   UNL     1       2.214   7.187  19.244  0.00  0.00    +0.000 A 
ATOM      7  C   UNL     1       1.880   6.318  20.286  0.00  0.00    +0.000 A 
ATOM      8  O   UNL     1       1.143   7.018  21.227  0.00  0.00    +0.000 OA
ATOM      9  C   UNL     1       1.000   8.312  20.798  0.00  0.00    +0.000 A 
ATOM     10  C   UNL     1       1.649   8.448  19.578  0.00  0.00    +0.000 A 
ATOM     11  C   UNL     1       1.653   9.693  18.928  0.00  0.00    +0.000 A 
ATOM     12  C   UNL     1       1.006  10.773  19.518  0.00  0.00    +0.000 A 
ATOM     13  C   UNL     1       0.353  10.638  20.743  0.00  0.00    +0.000 A 
ATOM     14  C   UNL     1      -0.284  11.753  21.296  0.00  0.00    +0.000 A 
ATOM     15  C   UNL     1      -0.947  11.659  22.516  0.00  0.00    +0.000 A 
ATOM     16  C   UNL     1      -0.979  10.444  23.199  0.00  0.00    +0.000 A 
ATOM     17  C   UNL     1      -0.349   9.308  22.670  0.00  0.00    +0.000 A 
ATOM     18  C   UNL     1       0.325   9.393  21.434  0.00  0.00    +0.000 A 
ENDBRANCH   1   7
BRANCH   3  19
ATOM     19  C   UNL     1       2.346   2.691  19.321  0.00  0.00    +0.000 C 
BRANCH  19  20
ATOM     20  C   UNL     1       3.387   2.352  18.245  0.00  0.00    +0.000 C 
BRANCH  20  21
ATOM     21  C   UNL     1       4.465   3.385  18.175  0.00  0.00    +0.000 A 
ATOM     22  N   UNL     1       5.217   3.794  19.175  0.00  0.00    +0.000 NA
ATOM     23  C   UNL     1       6.032   4.769  18.655  0.00  0.00    +0.000 A 
ATOM     24  C   UNL     1       7.020   5.539  19.283  0.00  0.00    +0.000 A 
ATOM     25  C   UNL     1       7.719   6.486  18.523  0.00  0.00    +0.000 A 
ATOM     26  C   UNL     1       7.437   6.660  17.166  0.00  0.00    +0.000 A 
ATOM     27  C   UNL     1       6.453   5.899  16.521  0.00  0.00    +0.000 A 
ATOM     28  C   UNL     1       5.772   4.962  17.303  0.00  0.00    +0.000 A 
ATOM     29  N   UNL     1       4.773   4.065  17.020  0.00  0.00    +0.000 N 
ATOM     30  H   UNL     1       4.334   3.935  16.121  0.00  0.00    +0.000 HD
ENDBRANCH  20  21
ENDBRANCH  19  20
ENDBRANCH   3  19
TORSDOF 4
ENDMDL
MODEL 2
REMARK VINA RESULT:      -9.2      0.339      1.127
REMARK  Name = 
REMARK  5 active torsions:
REMARK  status: ('A' for Active; 'I' for Inactive)
REMARK    1  A    between atoms: C_1  and  C_2
REMARK    2  A    between atoms: C_3  and  C_4
REMARK    3  A    between atoms: N_6  and  C_7
REMARK    4  A    between atoms: C_7  and  C_8
REMARK    5  A    between atoms: C_8  and  C_9
REMARK                            x       y       z     vdW  Elec       q    Type
REMARK                         _______ _______ _______ _____ _____    ______ ____
ROOT
ATOM      1  C   UNL     1       2.222   5.060  20.380  0.00  0.00    +0.000 C 
ATOM      2  O   UNL     1       2.501   4.568  21.469  0.00  0.00    +0.000 OA
ATOM      3  N   UNL     1       2.201   4.310  19.223  0.00  0.00    +0.000 N 
ATOM      4  H   UNL     1       2.054   4.816  18.358  0.00  0.00    +0.000 HD
ENDROOT
BRANCH   1   7
ATOM      5  C   UNL     1       2.864   7.167  17.866  0.00  0.00    +0.000 C 
ATOM      6  C   UNL     1       2.134   7.355  19.145  0.00  0.00    +0.000 A 
ATOM      7  C   UNL     1       1.864   6.463  20.186  0.00  0.00    +0.000 A 
ATOM      8  O   UNL     1       1.143   7.129  21.164  0.00  0.00    +0.000 OA
ATOM      9  C   UNL     1       0.948   8.424  20.758  0.00  0.00    +0.000 A 
ATOM     10  C   UNL     1       1.546   8.594  19.517  0.00  0.00    +0.000 A 
ATOM     11  C   UNL     1       1.491   9.847  18.884  0.00  0.00    +0.000 A 
ATOM     12  C   UNL     1       0.836  10.900  19.513  0.00  0.00    +0.000 A 
ATOM     13  C   UNL     1       0.233  10.731  20.759  0.00  0.00    +0.000 A 
ATOM     14  C   UNL     1      -0.414  11.820  21.350  0.00  0.00    +0.000 A 
ATOM     15  C   UNL     1      -1.028  11.691  22.593  0.00  0.00    +0.000 A 
ATOM     16  C   UNL     1      -1.001  10.467  23.260  0.00  0.00    +0.000 A 
ATOM     17  C   UNL     1      -0.358   9.357  22.692  0.00  0.00    +0.000 A 
ATOM     18  C   UNL     1       0.266   9.477  21.434  0.00  0.00    +0.000 A 
ENDBRANCH   1   7
BRANCH   3  19
ATOM     19  C   UNL     1       2.545   2.897  19.126  0.00  0.00    +0.000 C 
BRANCH  19  20
ATOM     20  C   UNL     1       3.642   2.639  18.083  0.00  0.00    +0.000 C 
BRANCH  20  21
ATOM     21  C   UNL     1       4.652   3.741  18.061  0.00  0.00    +0.000 A 
ATOM     22  N   UNL     1       4.792   4.650  17.120  0.00  0.00    +0.000 NA
ATOM     23  C   UNL     1       5.859   5.423  17.503  0.00  0.00    +0.000 A 
ATOM     24  C   UNL     1       6.441   6.527  16.864  0.00  0.00    +0.000 A 
ATOM     25  C   UNL     1       7.541   7.150  17.466  0.00  0.00    +0.000 A 
ATOM     26  C   UNL     1       8.052   6.681  18.679  0.00  0.00    +0.000 A 
ATOM     27  C   UNL     1       7.483   5.578  19.332  0.00  0.00    +0.000 A 
ATOM     28  C   UNL     1       6.386   4.977  18.709  0.00  0.00    +0.000 A 
ATOM     29  N   UNL     1       5.596   3.907  19.047  0.00  0.00    +0.000 N 
ATOM     30  H   UNL     1       5.699   3.335  19.872  0.00  0.00    +0.000 HD
ENDBRANCH  20  21
ENDBRANCH  19  20
ENDBRANCH   3  19
TORSDOF 4
ENDMDL
MODEL 3
REMARK VINA RESULT:      -8.9      4.725      7.399
REMARK  Name = 
REMARK  5 active torsions:
REMARK  status: ('A' for Active; 'I' for Inactive)
REMARK    1  A    between atoms: C_1  and  C_2
REMARK    2  A    between atoms: C_3  and  C_4
REMARK    3  A    between atoms: N_6  and  C_7
REMARK    4  A    between atoms: C_7  and  C_8
REMARK    5  A    between atoms: C_8  and  C_9
REMARK                            x       y       z     vdW  Elec       q    Type
REMARK                         _______ _______ _______ _____ _____    ______ ____
ROOT
ATOM      1  C   UNL     1       6.921   6.504  16.703  0.00  0.00    +0.000 C 
ATOM      2  O   UNL     1       7.806   6.325  15.873  0.00  0.00    +0.000 OA
ATOM      3  N   UNL     1       6.871   7.638  17.486  0.00  0.00    +0.000 N 
ATOM      4  H   UNL     1       6.162   7.659  18.208  0.00  0.00    +0.000 HD
ENDROOT
BRANCH   1   7
ATOM      5  C   UNL     1       5.929   3.800  15.007  0.00  0.00    +0.000 C 
ATOM      6  C   UNL     1       5.394   4.442  16.234  0.00  0.00    +0.000 A 
ATOM      7  C   UNL     1       5.823   5.569  16.940  0.00  0.00    +0.000 A 
ATOM      8  O   UNL     1       4.982   5.758  18.025  0.00  0.00    +0.000 OA
ATOM      9  C   UNL     1       4.033   4.768  18.021  0.00  0.00    +0.000 A 
ATOM     10  C   UNL     1       4.261   3.941  16.930  0.00  0.00    +0.000 A 
ATOM     11  C   UNL     1       3.412   2.846  16.699  0.00  0.00    +0.000 A 
ATOM     12  C   UNL     1       2.354   2.607  17.569  0.00  0.00    +0.000 A 
ATOM     13  C   UNL     1       2.125   3.436  18.667  0.00  0.00    +0.000 A 
ATOM     14  C   UNL     1       1.050   3.154  19.514  0.00  0.00    +0.000 A 
ATOM     15  C   UNL     1       0.788   3.958  20.620  0.00  0.00    +0.000 A 
ATOM     16  C   UNL     1       1.603   5.056  20.891  0.00  0.00    +0.000 A 
ATOM     17  C   UNL     1       2.689   5.364  20.059  0.00  0.00    +0.000 A 
ATOM     18  C   UNL     1       2.963   4.557  18.936  0.00  0.00    +0.000 A 
ENDBRANCH   1   7
BRANCH   3  19
ATOM     19  C   UNL     1       7.853   8.715  17.476  0.00  0.00    +0.000 C 
BRANCH  19  20
ATOM     20  C   UNL     1       8.598   8.830  18.814  0.00  0.00    +0.000 C 
BRANCH  20  21
ATOM     21  C   UNL     1       9.176  10.195  19.007  0.00  0.00    +0.000 A 
ATOM     22  N   UNL     1       9.570  10.719  20.149  0.00  0.00    +0.000 NA
ATOM     23  C   UNL     1       9.990  11.991  19.849  0.00  0.00    +0.000 A 
ATOM     24  C   UNL     1      10.502  12.987  20.693  0.00  0.00    +0.000 A 
ATOM     25  C   UNL     1      10.859  14.222  20.137  0.00  0.00    +0.000 A 
ATOM     26  C   UNL     1      10.709  14.458  18.768  0.00  0.00    +0.000 A 
ATOM     27  C   UNL     1      10.199  13.475  17.909  0.00  0.00    +0.000 A 
ATOM     28  C   UNL     1       9.851  12.253  18.492  0.00  0.00    +0.000 A 
ATOM     29  N   UNL     1       9.336  11.090  17.976  0.00  0.00    +0.000 N 
ATOM     30  H   UNL     1       9.103  10.927  17.007  0.00  0.00    +0.000 HD
ENDBRANCH  20  21
ENDBRANCH  19  20
ENDBRANCH   3  19
TORSDOF 4
ENDMDL
MODEL 4
REMARK VINA RESULT:      -8.8      4.609      7.414
REMARK  Name = 
REMARK  5 active torsions:
REMARK  status: ('A' for Active; 'I' for Inactive)
REMARK    1  A    between atoms: C_1  and  C_2
REMARK    2  A    between atoms: C_3  and  C_4
REMARK    3  A    between atoms: N_6  and  C_7
REMARK    4  A    between atoms: C_7  and  C_8
REMARK    5  A    between atoms: C_8  and  C_9
REMARK                            x       y       z     vdW  Elec       q    Type
REMARK                         _______ _______ _______ _____ _____    ______ ____
ROOT
ATOM      1  C   UNL     1       6.969   6.074  17.123  0.00  0.00    +0.000 C 
ATOM      2  O   UNL     1       7.665   6.124  16.114  0.00  0.00    +0.000 OA
ATOM      3  N   UNL     1       7.223   6.863  18.225  0.00  0.00    +0.000 N 
ATOM      4  H   UNL     1       6.657   6.689  19.047  0.00  0.00    +0.000 HD
ENDROOT
BRANCH   1   7
ATOM      5  C   UNL     1       5.366   4.155  14.905  0.00  0.00    +0.000 C 
ATOM      6  C   UNL     1       5.118   4.410  16.346  0.00  0.00    +0.000 A 
ATOM      7  C   UNL     1       5.800   5.209  17.267  0.00  0.00    +0.000 A 
ATOM      8  O   UNL     1       5.168   5.108  18.496  0.00  0.00    +0.000 OA
ATOM      9  C   UNL     1       4.100   4.256  18.370  0.00  0.00    +0.000 A 
ATOM     10  C   UNL     1       4.043   3.809  17.057  0.00  0.00    +0.000 A 
ATOM     11  C   UNL     1       3.026   2.923  16.668  0.00  0.00    +0.000 A 
ATOM     12  C   UNL     1       2.088   2.506  17.608  0.00  0.00    +0.000 A 
ATOM     13  C   UNL     1       2.145   2.953  18.927  0.00  0.00    +0.000 A 
ATOM     14  C   UNL     1       1.181   2.505  19.835  0.00  0.00    +0.000 A 
ATOM     15  C   UNL     1       1.204   2.929  21.161  0.00  0.00    +0.000 A 
ATOM     16  C   UNL     1       2.196   3.808  21.594  0.00  0.00    +0.000 A 
ATOM     17  C   UNL     1       3.176   4.275  20.706  0.00  0.00    +0.000 A 
ATOM     18  C   UNL     1       3.162   3.852  19.361  0.00  0.00    +0.000 A 
ENDBRANCH   1   7
BRANCH   3  19
ATOM     19  C   UNL     1       8.338   7.791  18.361  0.00  0.00    +0.000 C 
BRANCH  19  20
ATOM     20  C   UNL     1       7.919   9.244  18.096  0.00  0.00    +0.000 C 
BRANCH  20  21
ATOM     21  C   UNL     1       9.031  10.200  18.381  0.00  0.00    +0.000 A 
ATOM     22  N   UNL     1       9.522  10.492  19.567  0.00  0.00    +0.000 NA
ATOM     23  C   UNL     1      10.493  11.436  19.346  0.00  0.00    +0.000 A 
ATOM     24  C   UNL     1      11.326  12.095  20.262  0.00  0.00    +0.000 A 
ATOM     25  C   UNL     1      12.246  13.034  19.779  0.00  0.00    +0.000 A 
ATOM     26  C   UNL     1      12.333  13.311  18.412  0.00  0.00    +0.000 A 
ATOM     27  C   UNL     1      11.509  12.662  17.483  0.00  0.00    +0.000 A 
ATOM     28  C   UNL     1      10.601  11.730  17.993  0.00  0.00    +0.000 A 
ATOM     29  N   UNL     1       9.662  10.925  17.398  0.00  0.00    +0.000 N 
ATOM     30  H   UNL     1       9.462  10.883  16.409  0.00  0.00    +0.000 HD
ENDBRANCH  20  21
ENDBRANCH  19  20
ENDBRANCH   3  19
TORSDOF 4
ENDMDL
MODEL 5
REMARK VINA RESULT:      -8.8      4.670      7.511
REMARK  Name = 
REMARK  5 active torsions:
REMARK  status: ('A' for Active; 'I' for Inactive)
REMARK    1  A    between atoms: C_1  and  C_2
REMARK    2  A    between atoms: C_3  and  C_4
REMARK    3  A    between atoms: N_6  and  C_7
REMARK    4  A    between atoms: C_7  and  C_8
REMARK    5  A    between atoms: C_8  and  C_9
REMARK                            x       y       z     vdW  Elec       q    Type
REMARK                         _______ _______ _______ _____ _____    ______ ____
ROOT
ATOM      1  C   UNL     1       6.892   6.510  16.781  0.00  0.00    +0.000 C 
ATOM      2  O   UNL     1       7.813   6.342  15.987  0.00  0.00    +0.000 OA
ATOM      3  N   UNL     1       6.769   7.666  17.523  0.00  0.00    +0.000 N 
ATOM      4  H   UNL     1       6.034   7.680  18.220  0.00  0.00    +0.000 HD
ENDROOT
BRANCH   1   7
ATOM      5  C   UNL     1       5.861   3.901  14.963  0.00  0.00    +0.000 C 
ATOM      6  C   UNL     1       5.382   4.450  16.257  0.00  0.00    +0.000 A 
ATOM      7  C   UNL     1       5.827   5.537  17.013  0.00  0.00    +0.000 A 
ATOM      8  O   UNL     1       5.044   5.635  18.152  0.00  0.00    +0.000 OA
ATOM      9  C   UNL     1       4.115   4.627  18.133  0.00  0.00    +0.000 A 
ATOM     10  C   UNL     1       4.298   3.878  16.978  0.00  0.00    +0.000 A 
ATOM     11  C   UNL     1       3.459   2.782  16.720  0.00  0.00    +0.000 A 
ATOM     12  C   UNL     1       2.455   2.462  17.628  0.00  0.00    +0.000 A 
ATOM     13  C   UNL     1       2.271   3.212  18.789  0.00  0.00    +0.000 A 
ATOM     14  C   UNL     1       1.250   2.851  19.672  0.00  0.00    +0.000 A 
ATOM     15  C   UNL     1       1.034   3.574  20.841  0.00  0.00    +0.000 A 
ATOM     16  C   UNL     1       1.841   4.670  21.142  0.00  0.00    +0.000 A 
ATOM     17  C   UNL     1       2.874   5.057  20.275  0.00  0.00    +0.000 A 
ATOM     18  C   UNL     1       3.101   4.331  19.087  0.00  0.00    +0.000 A 
ENDBRANCH   1   7
BRANCH   3  19
ATOM     19  C   UNL     1       7.704   8.783  17.509  0.00  0.00    +0.000 C 
BRANCH  19  20
ATOM     20  C   UNL     1       8.662   8.751  18.708  0.00  0.00    +0.000 C 
BRANCH  20  21
ATOM     21  C   UNL     1       9.172  10.115  19.044  0.00  0.00    +0.000 A 
ATOM     22  N   UNL     1       9.703  10.977  18.203  0.00  0.00    +0.000 NA
ATOM     23  C   UNL     1      10.056  12.067  18.958  0.00  0.00    +0.000 A 
ATOM     24  C   UNL     1      10.664  13.268  18.568  0.00  0.00    +0.000 A 
ATOM     25  C   UNL     1      10.928  14.237  19.544  0.00  0.00    +0.000 A 
ATOM     26  C   UNL     1      10.594  14.012  20.882  0.00  0.00    +0.000 A 
ATOM     27  C   UNL     1       9.985  12.817  21.290  0.00  0.00    +0.000 A 
ATOM     28  C   UNL     1       9.733  11.869  20.295  0.00  0.00    +0.000 A 
ATOM     29  N   UNL     1       9.166  10.620  20.323  0.00  0.00    +0.000 N 
ATOM     30  H   UNL     1       8.815  10.149  21.145  0.00  0.00    +0.000 HD
ENDBRANCH  20  21
ENDBRANCH  19  20
ENDBRANCH   3  19
TORSDOF 4
ENDMDL
MODEL 6
REMARK VINA RESULT:      -8.7      4.916      7.615
REMARK  Name = 
REMARK  5 active torsions:
REMARK  status: ('A' for Active; 'I' for Inactive)
REMARK    1  A    between atoms: C_1  and  C_2
REMARK    2  A    between atoms: C_3  and  C_4
REMARK    3  A    between atoms: N_6  and  C_7
REMARK    4  A    between atoms: C_7  and  C_8
REMARK    5  A    between atoms: C_8  and  C_9
REMARK                            x       y       z     vdW  Elec       q    Type
REMARK                         _______ _______ _______ _____ _____    ______ ____
ROOT
ATOM      1  C   UNL     1       7.403   6.771  18.132  0.00  0.00    +0.000 C 
ATOM      2  O   UNL     1       8.360   6.528  18.860  0.00  0.00    +0.000 OA
ATOM      3  N   UNL     1       7.311   7.945  17.414  0.00  0.00    +0.000 N 
ATOM      4  H   UNL     1       6.445   8.104  16.914  0.00  0.00    +0.000 HD
ENDROOT
BRANCH   1   7
ATOM      5  C   UNL     1       6.673   4.726  15.592  0.00  0.00    +0.000 C 
ATOM      6  C   UNL     1       5.962   5.006  16.865  0.00  0.00    +0.000 A 
ATOM      7  C   UNL     1       6.281   5.858  17.925  0.00  0.00    +0.000 A 
ATOM      8  O   UNL     1       5.289   5.759  18.887  0.00  0.00    +0.000 OA
ATOM      9  C   UNL     1       4.350   4.857  18.456  0.00  0.00    +0.000 A 
ATOM     10  C   UNL     1       4.737   4.374  17.213  0.00  0.00    +0.000 A 
ATOM     11  C   UNL     1       3.932   3.433  16.552  0.00  0.00    +0.000 A 
ATOM     12  C   UNL     1       2.756   2.998  17.154  0.00  0.00    +0.000 A 
ATOM     13  C   UNL     1       2.366   3.481  18.403  0.00  0.00    +0.000 A 
ATOM     14  C   UNL     1       1.177   3.013  18.967  0.00  0.00    +0.000 A 
ATOM     15  C   UNL     1       0.754   3.470  20.212  0.00  0.00    +0.000 A 
ATOM     16  C   UNL     1       1.520   4.404  20.908  0.00  0.00    +0.000 A 
ATOM     17  C   UNL     1       2.718   4.893  20.367  0.00  0.00    +0.000 A 
ATOM     18  C   UNL     1       3.155   4.436  19.107  0.00  0.00    +0.000 A 
ENDBRANCH   1   7
BRANCH   3  19
ATOM     19  C   UNL     1       8.272   9.040  17.457  0.00  0.00    +0.000 C 
BRANCH  19  20
ATOM     20  C   UNL     1       8.703   9.375  18.893  0.00  0.00    +0.000 C 
BRANCH  20  21
ATOM     21  C   UNL     1       9.512  10.630  18.946  0.00  0.00    +0.000 A 
ATOM     22  N   UNL     1       9.740  11.364  20.015  0.00  0.00    +0.000 NA
ATOM     23  C   UNL     1      10.493  12.428  19.583  0.00  0.00    +0.000 A 
ATOM     24  C   UNL     1      11.008  13.513  20.307  0.00  0.00    +0.000 A 
ATOM     25  C   UNL     1      11.751  14.484  19.624  0.00  0.00    +0.000 A 
ATOM     26  C   UNL     1      11.976  14.375  18.250  0.00  0.00    +0.000 A 
ATOM     27  C   UNL     1      11.470  13.297  17.510  0.00  0.00    +0.000 A 
ATOM     28  C   UNL     1      10.732  12.344  18.217  0.00  0.00    +0.000 A 
ATOM     29  N   UNL     1      10.101  11.186  17.835  0.00  0.00    +0.000 N 
ATOM     30  H   UNL     1      10.067  10.815  16.897  0.00  0.00    +0.000 HD
ENDBRANCH  20  21
ENDBRANCH  19  20
ENDBRANCH   3  19
TORSDOF 4
ENDMDL
MODEL 7
REMARK VINA RESULT:      -8.6      3.741      8.191
REMARK  Name = 
REMARK  5 active torsions:
REMARK  status: ('A' for Active; 'I' for Inactive)
REMARK    1  A    between atoms: C_1  and  C_2
REMARK    2  A    between atoms: C_3  and  C_4
REMARK    3  A    between atoms: N_6  and  C_7
REMARK    4  A    between atoms: C_7  and  C_8
REMARK    5  A    between atoms: C_8  and  C_9
REMARK                            x       y       z     vdW  Elec       q    Type
REMARK                         _______ _______ _______ _____ _____    ______ ____
ROOT
ATOM      1  C   UNL     1       0.955   9.541  21.421  0.00  0.00    +0.000 C 
ATOM      2  O   UNL     1       1.558   9.977  22.396  0.00  0.00    +0.000 OA
ATOM      3  N   UNL     1      -0.259  10.060  21.020  0.00  0.00    +0.000 N 
ATOM      4  H   UNL     1      -0.729   9.579  20.263  0.00  0.00    +0.000 HD
ENDROOT
BRANCH   1   7
ATOM      5  C   UNL     1       1.950   9.531  18.230  0.00  0.00    +0.000 C 
ATOM      6  C   UNL     1       1.859   8.442  19.236  0.00  0.00    +0.000 A 
ATOM      7  C   UNL     1       1.449   8.460  20.571  0.00  0.00    +0.000 A 
ATOM      8  O   UNL     1       1.549   7.176  21.082  0.00  0.00    +0.000 OA
ATOM      9  C   UNL     1       2.018   6.347  20.095  0.00  0.00    +0.000 A 
ATOM     10  C   UNL     1       2.220   7.099  18.946  0.00  0.00    +0.000 A 
ATOM     11  C   UNL     1       2.697   6.474  17.782  0.00  0.00    +0.000 A 
ATOM     12  C   UNL     1       2.959   5.108  17.799  0.00  0.00    +0.000 A 
ATOM     13  C   UNL     1       2.759   4.352  18.954  0.00  0.00    +0.000 A 
ATOM     14  C   UNL     1       3.038   2.983  18.923  0.00  0.00    +0.000 A 
ATOM     15  C   UNL     1       2.851   2.195  20.055  0.00  0.00    +0.000 A 
ATOM     16  C   UNL     1       2.381   2.770  21.234  0.00  0.00    +0.000 A 
ATOM     17  C   UNL     1       2.091   4.141  21.296  0.00  0.00    +0.000 A 
ATOM     18  C   UNL     1       2.277   4.948  20.155  0.00  0.00    +0.000 A 
ENDBRANCH   1   7
BRANCH   3  19
ATOM     19  C   UNL     1      -0.991  11.120  21.702  0.00  0.00    +0.000 C 
BRANCH  19  20
ATOM     20  C   UNL     1      -1.396  12.251  20.745  0.00  0.00    +0.000 C 
BRANCH  20  21
ATOM     21  C   UNL     1      -1.917  11.718  19.450  0.00  0.00    +0.000 A 
ATOM     22  N   UNL     1      -1.329  10.824  18.683  0.00  0.00    +0.000 NA
ATOM     23  C   UNL     1      -2.148  10.672  17.592  0.00  0.00    +0.000 A 
ATOM     24  C   UNL     1      -1.997   9.849  16.467  0.00  0.00    +0.000 A 
ATOM     25  C   UNL     1      -2.984   9.880  15.474  0.00  0.00    +0.000 A 
ATOM     26  C   UNL     1      -4.098  10.715  15.600  0.00  0.00    +0.000 A 
ATOM     27  C   UNL     1      -4.265  11.544  16.718  0.00  0.00    +0.000 A 
ATOM     28  C   UNL     1      -3.265  11.492  17.692  0.00  0.00    +0.000 A 
ATOM     29  N   UNL     1      -3.097  12.145  18.888  0.00  0.00    +0.000 N 
ATOM     30  H   UNL     1      -3.727  12.828  19.281  0.00  0.00    +0.000 HD
ENDBRANCH  20  21
ENDBRANCH  19  20
ENDBRANCH   3  19
TORSDOF 4
ENDMDL
MODEL 8
REMARK VINA RESULT:      -8.5      3.666      8.651
REMARK  Name = 
REMARK  5 active torsions:
REMARK  status: ('A' for Active; 'I' for Inactive)
REMARK    1  A    between atoms: C_1  and  C_2
REMARK    2  A    between atoms: C_3  and  C_4
REMARK    3  A    between atoms: N_6  and  C_7
REMARK    4  A    between atoms: C_7  and  C_8
REMARK    5  A    between atoms: C_8  and  C_9
REMARK                            x       y       z     vdW  Elec       q    Type
REMARK                         _______ _______ _______ _____ _____    ______ ____
ROOT
ATOM      1  C   UNL     1       1.824   8.036  20.054  0.00  0.00    +0.000 C 
ATOM      2  O   UNL     1       1.558   8.107  21.249  0.00  0.00    +0.000 OA
ATOM      3  N   UNL     1       1.659   9.109  19.203  0.00  0.00    +0.000 N 
ATOM      4  H   UNL     1       1.813   8.933  18.217  0.00  0.00    +0.000 HD
ENDROOT
BRANCH   1   7
ATOM      5  C   UNL     1       1.321   4.789  20.669  0.00  0.00    +0.000 C 
ATOM      6  C   UNL     1       2.162   5.480  19.660  0.00  0.00    +0.000 A 
ATOM      7  C   UNL     1       2.359   6.840  19.406  0.00  0.00    +0.000 A 
ATOM      8  O   UNL     1       3.247   6.969  18.350  0.00  0.00    +0.000 OA
ATOM      9  C   UNL     1       3.611   5.717  17.929  0.00  0.00    +0.000 A 
ATOM     10  C   UNL     1       2.959   4.777  18.716  0.00  0.00    +0.000 A 
ATOM     11  C   UNL     1       3.173   3.408  18.486  0.00  0.00    +0.000 A 
ATOM     12  C   UNL     1       4.037   3.014  17.470  0.00  0.00    +0.000 A 
ATOM     13  C   UNL     1       4.692   3.956  16.677  0.00  0.00    +0.000 A 
ATOM     14  C   UNL     1       5.550   3.511  15.668  0.00  0.00    +0.000 A 
ATOM     15  C   UNL     1       6.221   4.420  14.855  0.00  0.00    +0.000 A 
ATOM     16  C   UNL     1       6.041   5.789  15.044  0.00  0.00    +0.000 A 
ATOM     17  C   UNL     1       5.187   6.266  16.050  0.00  0.00    +0.000 A 
ATOM     18  C   UNL     1       4.502   5.354  16.878  0.00  0.00    +0.000 A 
ENDBRANCH   1   7
BRANCH   3  19
ATOM     19  C   UNL     1       1.117  10.408  19.578  0.00  0.00    +0.000 C 
BRANCH  19  20
ATOM     20  C   UNL     1      -0.357  10.321  20.000  0.00  0.00    +0.000 C 
BRANCH  20  21
ATOM     21  C   UNL     1      -1.274  10.389  18.822  0.00  0.00    +0.000 A 
ATOM     22  N   UNL     1      -1.100   9.786  17.665  0.00  0.00    +0.000 NA
ATOM     23  C   UNL     1      -2.164  10.164  16.884  0.00  0.00    +0.000 A 
ATOM     24  C   UNL     1      -2.473   9.817  15.561  0.00  0.00    +0.000 A 
ATOM     25  C   UNL     1      -3.630  10.347  14.979  0.00  0.00    +0.000 A 
ATOM     26  C   UNL     1      -4.463  11.206  15.701  0.00  0.00    +0.000 A 
ATOM     27  C   UNL     1      -4.171  11.564  17.024  0.00  0.00    +0.000 A 
ATOM     28  C   UNL     1      -3.010  11.020  17.579  0.00  0.00    +0.000 A 
ATOM     29  N   UNL     1      -2.423  11.144  18.814  0.00  0.00    +0.000 N 
ATOM     30  H   UNL     1      -2.771  11.702  19.579  0.00  0.00    +0.000 HD
ENDBRANCH  20  21
ENDBRANCH  19  20
ENDBRANCH   3  19
TORSDOF 4
ENDMDL
MODEL 9
REMARK VINA RESULT:      -8.4      2.091      2.901
REMARK  Name = 
REMARK  5 active torsions:
REMARK  status: ('A' for Active; 'I' for Inactive)
REMARK    1  A    between atoms: C_1  and  C_2
REMARK    2  A    between atoms: C_3  and  C_4
REMARK    3  A    between atoms: N_6  and  C_7
REMARK    4  A    between atoms: C_7  and  C_8
REMARK    5  A    between atoms: C_8  and  C_9
REMARK                            x       y       z     vdW  Elec       q    Type
REMARK                         _______ _______ _______ _____ _____    ______ ____
ROOT
ATOM      1  C   UNL     1       3.076   5.726  19.632  0.00  0.00    +0.000 C 
ATOM      2  O   UNL     1       2.981   4.928  20.559  0.00  0.00    +0.000 OA
ATOM      3  N   UNL     1       3.853   5.467  18.522  0.00  0.00    +0.000 N 
ATOM      4  H   UNL     1       3.948   6.220  17.851  0.00  0.00    +0.000 HD
ENDROOT
BRANCH   1   7
ATOM      5  C   UNL     1       2.850   8.018  17.210  0.00  0.00    +0.000 C 
ATOM      6  C   UNL     1       2.282   7.976  18.581  0.00  0.00    +0.000 A 
ATOM      7  C   UNL     1       2.376   7.008  19.583  0.00  0.00    +0.000 A 
ATOM      8  O   UNL     1       1.663   7.443  20.688  0.00  0.00    +0.000 OA
ATOM      9  C   UNL     1       1.115   8.667  20.401  0.00  0.00    +0.000 A 
ATOM     10  C   UNL     1       1.478   9.022  19.109  0.00  0.00    +0.000 A 
ATOM     11  C   UNL     1       1.044  10.247  18.577  0.00  0.00    +0.000 A 
ATOM     12  C   UNL     1       0.255  11.088  19.356  0.00  0.00    +0.000 A 
ATOM     13  C   UNL     1      -0.112  10.731  20.653  0.00  0.00    +0.000 A 
ATOM     14  C   UNL     1      -0.907  11.609  21.395  0.00  0.00    +0.000 A 
ATOM     15  C   UNL     1      -1.295  11.289  22.694  0.00  0.00    +0.000 A 
ATOM     16  C   UNL     1      -0.889  10.084  23.265  0.00  0.00    +0.000 A 
ATOM     17  C   UNL     1      -0.090   9.184  22.545  0.00  0.00    +0.000 A 
ATOM     18  C   UNL     1       0.308   9.498  21.229  0.00  0.00    +0.000 A 
ENDBRANCH   1   7
BRANCH   3  19
ATOM     19  C   UNL     1       4.677   4.282  18.325  0.00  0.00    +0.000 C 
BRANCH  19  20
ATOM     20  C   UNL     1       6.112   4.637  17.908  0.00  0.00    +0.000 C 
BRANCH  20  21
ATOM     21  C   UNL     1       6.292   4.554  16.427  0.00  0.00    +0.000 A 
ATOM     22  N   UNL     1       5.658   3.740  15.610  0.00  0.00    +0.000 NA
ATOM     23  C   UNL     1       6.170   3.991  14.361  0.00  0.00    +0.000 A 
ATOM     24  C   UNL     1       5.854   3.403  13.129  0.00  0.00    +0.000 A 
ATOM     25  C   UNL     1       6.532   3.837  11.983  0.00  0.00    +0.000 A 
ATOM     26  C   UNL     1       7.505   4.837  12.065  0.00  0.00    +0.000 A 
ATOM     27  C   UNL     1       7.833   5.436  13.288  0.00  0.00    +0.000 A 
ATOM     28  C   UNL     1       7.142   4.984  14.414  0.00  0.00    +0.000 A 
ATOM     29  N   UNL     1       7.197   5.330  15.741  0.00  0.00    +0.000 N 
ATOM     30  H   UNL     1       7.806   6.027  16.144  0.00  0.00    +0.000 HD
ENDBRANCH  20  21
ENDBRANCH  19  20
ENDBRANCH   3  19
TORSDOF 4
ENDMDL
