MODEL 1
REMARK VINA RESULT:      -5.8      0.000      0.000
REMARK  Name = 
REMARK  2 active torsions:
REMARK  status: ('A' for Active; 'I' for Inactive)
REMARK    1  A    between atoms: C_1  and  C_2
REMARK    2  A    between atoms: N_7  and  C_8
REMARK                            x       y       z     vdW  Elec       q    Type
REMARK                         _______ _______ _______ _____ _____    ______ ____
ROOT
ATOM      1  C   UNL     1       8.905  10.002  18.396  0.00  0.00    +0.000 C 
ATOM      2  C   UNL     1       8.263   8.687  18.161  0.00  0.00    +0.000 A 
ATOM      3  N   UNL     1       7.390   8.403  17.213  0.00  0.00    +0.000 NA
ATOM      4  C   UNL     1       7.079   7.075  17.386  0.00  0.00    +0.000 A 
ATOM      5  C   UNL     1       6.168   6.239  16.618  0.00  0.00    +0.000 A 
ATOM      6  O   UNL     1       5.524   6.655  15.658  0.00  0.00    +0.000 OA
ATOM      7  N   UNL     1       6.106   4.906  17.094  0.00  0.00    +0.000 N 
ATOM      8  C   UNL     1       5.241   3.952  16.429  0.00  0.00    +0.000 C 
ATOM      9  N   UNL     1       6.832   4.400  18.193  0.00  0.00    +0.000 NA
ATOM     10  C   UNL     1       7.631   5.199  18.839  0.00  0.00    +0.000 A 
ATOM     11  C   UNL     1       7.772   6.556  18.448  0.00  0.00    +0.000 A 
ATOM     12  N   UNL     1       8.524   7.582  18.941  0.00  0.00    +0.000 N 
ATOM     13  H   UNL     1       9.159   7.553  19.727  0.00  0.00    +0.000 HD
ENDROOT
TORSDOF 0
ENDMDL
MODEL 2
REMARK VINA RESULT:      -5.7      2.387      5.152
REMARK  Name = 
REMARK  2 active torsions:
REMARK  status: ('A' for Active; 'I' for Inactive)
REMARK    1  A    between atoms: C_1  and  C_2
REMARK    2  A    between atoms: N_7  and  C_8
REMARK                            x       y       z     vdW  Elec       q    Type
REMARK                         _______ _______ _______ _____ _____    ______ ____
ROOT
ATOM      1  C   UNL     1       3.043   1.933  18.546  0.00  0.00    +0.000 C 
ATOM      2  C   UNL     1       3.962   3.064  18.277  0.00  0.00    +0.000 A 
ATOM      3  N   UNL     1       4.885   3.531  19.096  0.00  0.00    +0.000 NA
ATOM      4  C   UNL     1       5.482   4.570  18.421  0.00  0.00    +0.000 A 
ATOM      5  C   UNL     1       6.566   5.441  18.853  0.00  0.00    +0.000 A 
ATOM      6  O   UNL     1       7.110   5.342  19.949  0.00  0.00    +0.000 OA
ATOM      7  N   UNL     1       6.921   6.406  17.878  0.00  0.00    +0.000 N 
ATOM      8  C   UNL     1       7.988   7.346  18.162  0.00  0.00    +0.000 C 
ATOM      9  N   UNL     1       6.314   6.545  16.612  0.00  0.00    +0.000 NA
ATOM     10  C   UNL     1       5.349   5.735  16.285  0.00  0.00    +0.000 A 
ATOM     11  C   UNL     1       4.912   4.728  17.185  0.00  0.00    +0.000 A 
ATOM     12  N   UNL     1       3.945   3.770  17.094  0.00  0.00    +0.000 N 
ATOM     13  H   UNL     1       3.326   3.597  16.314  0.00  0.00    +0.000 HD
ENDROOT
TORSDOF 0
ENDMDL
MODEL 3
REMARK VINA RESULT:      -5.7      3.029      4.055
REMARK  Name = 
REMARK  2 active torsions:
REMARK  status: ('A' for Active; 'I' for Inactive)
REMARK    1  A    between atoms: C_1  and  C_2
REMARK    2  A    between atoms: N_7  and  C_8
REMARK                            x       y       z     vdW  Elec       q    Type
REMARK                         _______ _______ _______ _____ _____    ______ ____
ROOT
ATOM      1  C   UNL     1       7.241   4.767  12.963  0.00  0.00    +0.000 C 
ATOM      2  C   UNL     1       6.811   4.625  14.374  0.00  0.00    +0.000 A 
ATOM      3  N   UNL     1       5.615   4.257  14.792  0.00  0.00    +0.000 NA
ATOM      4  C   UNL     1       5.687   4.268  16.165  0.00  0.00    +0.000 A 
ATOM      5  C   UNL     1       4.655   3.943  17.139  0.00  0.00    +0.000 A 
ATOM      6  O   UNL     1       3.519   3.598  16.824  0.00  0.00    +0.000 OA
ATOM      7  N   UNL     1       5.101   4.067  18.479  0.00  0.00    +0.000 N 
ATOM      8  C   UNL     1       4.186   3.774  19.564  0.00  0.00    +0.000 C 
ATOM      9  N   UNL     1       6.398   4.462  18.871  0.00  0.00    +0.000 NA
ATOM     10  C   UNL     1       7.275   4.739  17.951  0.00  0.00    +0.000 A 
ATOM     11  C   UNL     1       6.938   4.648  16.576  0.00  0.00    +0.000 A 
ATOM     12  N   UNL     1       7.652   4.876  15.436  0.00  0.00    +0.000 N 
ATOM     13  H   UNL     1       8.616   5.171  15.366  0.00  0.00    +0.000 HD
ENDROOT
TORSDOF 0
ENDMDL
MODEL 4
REMARK VINA RESULT:      -5.7      3.318      4.368
REMARK  Name = 
REMARK  2 active torsions:
REMARK  status: ('A' for Active; 'I' for Inactive)
REMARK    1  A    between atoms: C_1  and  C_2
REMARK    2  A    between atoms: N_7  and  C_8
REMARK                            x       y       z     vdW  Elec       q    Type
REMARK                         _______ _______ _______ _____ _____    ______ ____
ROOT
ATOM      1  C   UNL     1       7.825   6.466  18.491  0.00  0.00    +0.000 C 
ATOM      2  C   UNL     1       6.550   5.714  18.553  0.00  0.00    +0.000 A 
ATOM      3  N   UNL     1       6.351   4.565  19.170  0.00  0.00    +0.000 NA
ATOM      4  C   UNL     1       5.027   4.258  18.957  0.00  0.00    +0.000 A 
ATOM      5  C   UNL     1       4.269   3.103  19.414  0.00  0.00    +0.000 A 
ATOM      6  O   UNL     1       4.760   2.203  20.091  0.00  0.00    +0.000 OA
ATOM      7  N   UNL     1       2.915   3.129  18.997  0.00  0.00    +0.000 N 
ATOM      8  C   UNL     1       2.031   2.045  19.377  0.00  0.00    +0.000 C 
ATOM      9  N   UNL     1       2.324   4.147  18.219  0.00  0.00    +0.000 NA
ATOM     10  C   UNL     1       3.056   5.155  17.841  0.00  0.00    +0.000 A 
ATOM     11  C   UNL     1       4.426   5.232  18.203  0.00  0.00    +0.000 A 
ATOM     12  N   UNL     1       5.395   6.157  17.945  0.00  0.00    +0.000 N 
ATOM     13  H   UNL     1       5.300   7.011  17.414  0.00  0.00    +0.000 HD
ENDROOT
TORSDOF 0
ENDMDL
MODEL 5
REMARK VINA RESULT:      -5.6      3.594      4.890
REMARK  Name = 
REMARK  2 active torsions:
REMARK  status: ('A' for Active; 'I' for Inactive)
REMARK    1  A    between atoms: C_1  and  C_2
REMARK    2  A    between atoms: N_7  and  C_8
REMARK                            x       y       z     vdW  Elec       q    Type
REMARK                         _______ _______ _______ _____ _____    ______ ____
ROOT
ATOM      1  C   UNL     1       6.895   4.885  16.153  0.00  0.00    +0.000 C 
ATOM      2  C   UNL     1       5.782   4.397  17.001  0.00  0.00    +0.000 A 
ATOM      3  N   UNL     1       4.499   4.428  16.697  0.00  0.00    +0.000 NA
ATOM      4  C   UNL     1       3.853   3.871  17.776  0.00  0.00    +0.000 A 
ATOM      5  C   UNL     1       2.428   3.653  17.979  0.00  0.00    +0.000 A 
ATOM      6  O   UNL     1       1.577   3.965  17.150  0.00  0.00    +0.000 OA
ATOM      7  N   UNL     1       2.133   3.046  19.226  0.00  0.00    +0.000 N 
ATOM      8  C   UNL     1       0.754   2.763  19.571  0.00  0.00    +0.000 C 
ATOM      9  N   UNL     1       3.089   2.678  20.197  0.00  0.00    +0.000 NA
ATOM     10  C   UNL     1       4.348   2.900  19.955  0.00  0.00    +0.000 A 
ATOM     11  C   UNL     1       4.758   3.502  18.737  0.00  0.00    +0.000 A 
ATOM     12  N   UNL     1       5.985   3.838  18.244  0.00  0.00    +0.000 N 
ATOM     13  H   UNL     1       6.881   3.707  18.691  0.00  0.00    +0.000 HD
ENDROOT
TORSDOF 0
ENDMDL
MODEL 6
REMARK VINA RESULT:      -5.5      3.662      4.785
REMARK  Name = 
REMARK  2 active torsions:
REMARK  status: ('A' for Active; 'I' for Inactive)
REMARK    1  A    between atoms: C_1  and  C_2
REMARK    2  A    between atoms: N_7  and  C_8
REMARK                            x       y       z     vdW  Elec       q    Type
REMARK                         _______ _______ _______ _____ _____    ______ ____
ROOT
ATOM      1  C   UNL     1       7.525   5.804  18.947  0.00  0.00    +0.000 C 
ATOM      2  C   UNL     1       6.218   5.105  18.973  0.00  0.00    +0.000 A 
ATOM      3  N   UNL     1       5.152   5.470  19.658  0.00  0.00    +0.000 NA
ATOM      4  C   UNL     1       4.191   4.529  19.372  0.00  0.00    +0.000 A 
ATOM      5  C   UNL     1       2.820   4.441  19.855  0.00  0.00    +0.000 A 
ATOM      6  O   UNL     1       2.329   5.257  20.630  0.00  0.00    +0.000 OA
ATOM      7  N   UNL     1       2.122   3.323  19.336  0.00  0.00    +0.000 N 
ATOM      8  C   UNL     1       0.743   3.102  19.725  0.00  0.00    +0.000 C 
ATOM      9  N   UNL     1       2.660   2.369  18.446  0.00  0.00    +0.000 NA
ATOM     10  C   UNL     1       3.893   2.503  18.052  0.00  0.00    +0.000 A 
ATOM     11  C   UNL     1       4.686   3.588  18.507  0.00  0.00    +0.000 A 
ATOM     12  N   UNL     1       5.976   3.955  18.254  0.00  0.00    +0.000 N 
ATOM     13  H   UNL     1       6.640   3.484  17.655  0.00  0.00    +0.000 HD
ENDROOT
TORSDOF 0
ENDMDL
MODEL 7
REMARK VINA RESULT:      -5.4      3.649      4.535
REMARK  Name = 
REMARK  2 active torsions:
REMARK  status: ('A' for Active; 'I' for Inactive)
REMARK    1  A    between atoms: C_1  and  C_2
REMARK    2  A    between atoms: N_7  and  C_8
REMARK                            x       y       z     vdW  Elec       q    Type
REMARK                         _______ _______ _______ _____ _____    ______ ____
ROOT
ATOM      1  C   UNL     1       7.133   5.965  17.141  0.00  0.00    +0.000 C 
ATOM      2  C   UNL     1       6.046   5.328  17.921  0.00  0.00    +0.000 A 
ATOM      3  N   UNL     1       4.922   5.902  18.305  0.00  0.00    +0.000 NA
ATOM      4  C   UNL     1       4.231   4.932  18.994  0.00  0.00    +0.000 A 
ATOM      5  C   UNL     1       2.927   5.016  19.635  0.00  0.00    +0.000 A 
ATOM      6  O   UNL     1       2.245   6.037  19.637  0.00  0.00    +0.000 OA
ATOM      7  N   UNL     1       2.535   3.802  20.252  0.00  0.00    +0.000 N 
ATOM      8  C   UNL     1       1.257   3.729  20.932  0.00  0.00    +0.000 C 
ATOM      9  N   UNL     1       3.297   2.615  20.268  0.00  0.00    +0.000 NA
ATOM     10  C   UNL     1       4.456   2.604  19.676  0.00  0.00    +0.000 A 
ATOM     11  C   UNL     1       4.948   3.765  19.025  0.00  0.00    +0.000 A 
ATOM     12  N   UNL     1       6.103   4.017  18.343  0.00  0.00    +0.000 N 
ATOM     13  H   UNL     1       6.865   3.376  18.170  0.00  0.00    +0.000 HD
ENDROOT
TORSDOF 0
ENDMDL
MODEL 8
REMARK VINA RESULT:      -5.4      3.277      5.322
REMARK  Name = 
REMARK  2 active torsions:
REMARK  status: ('A' for Active; 'I' for Inactive)
REMARK    1  A    between atoms: C_1  and  C_2
REMARK    2  A    between atoms: N_7  and  C_8
REMARK                            x       y       z     vdW  Elec       q    Type
REMARK                         _______ _______ _______ _____ _____    ______ ____
ROOT
ATOM      1  C   UNL     1       1.005   4.526  20.458  0.00  0.00    +0.000 C 
ATOM      2  C   UNL     1       2.249   4.478  19.656  0.00  0.00    +0.000 A 
ATOM      3  N   UNL     1       3.458   4.804  20.071  0.00  0.00    +0.000 NA
ATOM      4  C   UNL     1       4.285   4.600  18.990  0.00  0.00    +0.000 A 
ATOM      5  C   UNL     1       5.723   4.799  18.886  0.00  0.00    +0.000 A 
ATOM      6  O   UNL     1       6.414   5.201  19.818  0.00  0.00    +0.000 OA
ATOM      7  N   UNL     1       6.234   4.479  17.603  0.00  0.00    +0.000 N 
ATOM      8  C   UNL     1       7.653   4.625  17.346  0.00  0.00    +0.000 C 
ATOM      9  N   UNL     1       5.466   4.016  16.514  0.00  0.00    +0.000 NA
ATOM     10  C   UNL     1       4.183   3.860  16.672  0.00  0.00    +0.000 A 
ATOM     11  C   UNL     1       3.565   4.148  17.916  0.00  0.00    +0.000 A 
ATOM     12  N   UNL     1       2.270   4.072  18.339  0.00  0.00    +0.000 N 
ATOM     13  H   UNL     1       1.467   3.774  17.803  0.00  0.00    +0.000 HD
ENDROOT
TORSDOF 0
ENDMDL
MODEL 9
REMARK VINA RESULT:      -5.3      2.648      4.483
REMARK  Name = 
REMARK  2 active torsions:
REMARK  status: ('A' for Active; 'I' for Inactive)
REMARK    1  A    between atoms: C_1  and  C_2
REMARK    2  A    between atoms: N_7  and  C_8
REMARK                            x       y       z     vdW  Elec       q    Type
REMARK                         _______ _______ _______ _____ _____    ______ ____
ROOT
ATOM      1  C   UNL     1       7.350   4.456  12.107  0.00  0.00    +0.000 C 
ATOM      2  C   UNL     1       6.966   4.515  13.537  0.00  0.00    +0.000 A 
ATOM      3  N   UNL     1       7.485   5.311  14.452  0.00  0.00    +0.000 NA
ATOM      4  C   UNL     1       6.821   5.012  15.619  0.00  0.00    +0.000 A 
ATOM      5  C   UNL     1       6.989   5.591  16.944  0.00  0.00    +0.000 A 
ATOM      6  O   UNL     1       7.804   6.476  17.191  0.00  0.00    +0.000 OA
ATOM      7  N   UNL     1       6.117   5.026  17.909  0.00  0.00    +0.000 N 
ATOM      8  C   UNL     1       6.166   5.502  19.277  0.00  0.00    +0.000 C 
ATOM      9  N   UNL     1       5.173   4.009  17.655  0.00  0.00    +0.000 NA
ATOM     10  C   UNL     1       5.071   3.533  16.448  0.00  0.00    +0.000 A 
ATOM     11  C   UNL     1       5.894   4.026  15.402  0.00  0.00    +0.000 A 
ATOM     12  N   UNL     1       5.988   3.709  14.078  0.00  0.00    +0.000 N 
ATOM     13  H   UNL     1       5.449   3.019  13.574  0.00  0.00    +0.000 HD
ENDROOT
TORSDOF 0
ENDMDL
