MODEL 1
REMARK VINA RESULT:      -6.9      0.000      0.000
REMARK  Name = 
REMARK  7 active torsions:
REMARK  status: ('A' for Active; 'I' for Inactive)
REMARK    1  A    between atoms: C_1  and  C_2
REMARK    2  A    between atoms: N_4  and  C_5
REMARK    3  A    between atoms: C_9  and  O_10
REMARK    4  A    between atoms: O_10  and  S_11
REMARK    5  A    between atoms: S_11  and  N_14
REMARK    6  A    between atoms: N_14  and  C_15
REMARK    7  A    between atoms: N_14  and  C_16
REMARK                            x       y       z     vdW  Elec       q    Type
REMARK                         _______ _______ _______ _____ _____    ______ ____
ROOT
ATOM      1  C   UNL     1       6.258   4.098  16.118  0.00  0.00    +0.000 A 
ATOM      2  C   UNL     1       7.441   4.583  16.679  0.00  0.00    +0.000 A 
ATOM      3  C   UNL     1       7.469   5.021  18.003  0.00  0.00    +0.000 A 
ATOM      4  C   UNL     1       6.312   4.978  18.780  0.00  0.00    +0.000 A 
ATOM      5  C   UNL     1       5.116   4.526  18.224  0.00  0.00    +0.000 A 
ATOM      6  C   UNL     1       5.090   4.090  16.895  0.00  0.00    +0.000 A 
ENDROOT
BRANCH   1  10
ATOM      7  C   UNL     1       6.329   3.481  12.400  0.00  0.00    +0.000 C 
ATOM      8  C   UNL     1       6.660   4.240  13.662  0.00  0.00    +0.000 C 
ATOM      9  O   UNL     1       7.303   5.282  13.614  0.00  0.00    +0.000 OA
ATOM     10  N   UNL     1       6.163   3.620  14.794  0.00  0.00    +0.000 N 
ATOM     11  H   UNL     1       5.783   2.689  14.678  0.00  0.00    +0.000 HD
ENDBRANCH   1  10
BRANCH   5  12
ATOM     12  O   UNL     1       4.038   4.498  19.073  0.00  0.00    +0.000 OA
BRANCH  12  13
ATOM     13  S   UNL     1       3.483   3.104  19.710  0.00  0.00    +0.000 S 
ATOM     14  O   UNL     1       2.604   2.475  18.744  0.00  0.00    +0.000 OA
ATOM     15  O   UNL     1       4.601   2.374  20.272  0.00  0.00    +0.000 OA
BRANCH  13  16
ATOM     16  N   UNL     1       2.515   3.615  21.017  0.00  0.00    +0.000 NA
ATOM     17  C   UNL     1       1.832   4.906  20.817  0.00  0.00    +0.000 C 
ATOM     18  C   UNL     1       1.636   2.577  21.583  0.00  0.00    +0.000 C 
ENDBRANCH  13  16
ENDBRANCH  12  13
ENDBRANCH   5  12
TORSDOF 4
ENDMDL
MODEL 2
REMARK VINA RESULT:      -6.9      2.191      3.267
REMARK  Name = 
REMARK  7 active torsions:
REMARK  status: ('A' for Active; 'I' for Inactive)
REMARK    1  A    between atoms: C_1  and  C_2
REMARK    2  A    between atoms: N_4  and  C_5
REMARK    3  A    between atoms: C_9  and  O_10
REMARK    4  A    between atoms: O_10  and  S_11
REMARK    5  A    between atoms: S_11  and  N_14
REMARK    6  A    between atoms: N_14  and  C_15
REMARK    7  A    between atoms: N_14  and  C_16
REMARK                            x       y       z     vdW  Elec       q    Type
REMARK                         _______ _______ _______ _____ _____    ______ ____
ROOT
ATOM      1  C   UNL     1       6.327   6.078  16.638  0.00  0.00    +0.000 A 
ATOM      2  C   UNL     1       6.758   5.211  15.631  0.00  0.00    +0.000 A 
ATOM      3  C   UNL     1       6.107   3.996  15.417  0.00  0.00    +0.000 A 
ATOM      4  C   UNL     1       5.020   3.634  16.210  0.00  0.00    +0.000 A 
ATOM      5  C   UNL     1       4.599   4.475  17.240  0.00  0.00    +0.000 A 
ATOM      6  C   UNL     1       5.254   5.692  17.454  0.00  0.00    +0.000 A 
ENDROOT
BRANCH   1  10
ATOM      7  C   UNL     1       8.205   9.077  17.937  0.00  0.00    +0.000 C 
ATOM      8  C   UNL     1       7.807   7.622  17.919  0.00  0.00    +0.000 C 
ATOM      9  O   UNL     1       8.258   6.840  18.749  0.00  0.00    +0.000 OA
ATOM     10  N   UNL     1       6.924   7.330  16.895  0.00  0.00    +0.000 N 
ATOM     11  H   UNL     1       6.766   8.053  16.205  0.00  0.00    +0.000 HD
ENDBRANCH   1  10
BRANCH   5  12
ATOM     12  O   UNL     1       3.506   4.045  17.951  0.00  0.00    +0.000 OA
BRANCH  12  13
ATOM     13  S   UNL     1       3.637   2.932  19.135  0.00  0.00    +0.000 S 
ATOM     14  O   UNL     1       3.124   1.670  18.639  0.00  0.00    +0.000 OA
ATOM     15  O   UNL     1       4.967   3.012  19.702  0.00  0.00    +0.000 OA
BRANCH  13  16
ATOM     16  N   UNL     1       2.552   3.484  20.329  0.00  0.00    +0.000 NA
ATOM     17  C   UNL     1       2.454   4.950  20.448  0.00  0.00    +0.000 C 
ATOM     18  C   UNL     1       1.241   2.814  20.336  0.00  0.00    +0.000 C 
ENDBRANCH  13  16
ENDBRANCH  12  13
ENDBRANCH   5  12
TORSDOF 4
ENDMDL
MODEL 3
REMARK VINA RESULT:      -6.9      1.614      1.991
REMARK  Name = 
REMARK  7 active torsions:
REMARK  status: ('A' for Active; 'I' for Inactive)
REMARK    1  A    between atoms: C_1  and  C_2
REMARK    2  A    between atoms: N_4  and  C_5
REMARK    3  A    between atoms: C_9  and  O_10
REMARK    4  A    between atoms: O_10  and  S_11
REMARK    5  A    between atoms: S_11  and  N_14
REMARK    6  A    between atoms: N_14  and  C_15
REMARK    7  A    between atoms: N_14  and  C_16
REMARK                            x       y       z     vdW  Elec       q    Type
REMARK                         _______ _______ _______ _____ _____    ______ ____
ROOT
ATOM      1  C   UNL     1       5.047   5.038  15.689  0.00  0.00    +0.000 A 
ATOM      2  C   UNL     1       5.113   6.401  15.980  0.00  0.00    +0.000 A 
ATOM      3  C   UNL     1       4.648   6.888  17.203  0.00  0.00    +0.000 A 
ATOM      4  C   UNL     1       4.111   6.013  18.145  0.00  0.00    +0.000 A 
ATOM      5  C   UNL     1       4.010   4.652  17.856  0.00  0.00    +0.000 A 
ATOM      6  C   UNL     1       4.474   4.168  16.628  0.00  0.00    +0.000 A 
ENDROOT
BRANCH   1  10
ATOM      7  C   UNL     1       6.921   3.955  12.602  0.00  0.00    +0.000 C 
ATOM      8  C   UNL     1       6.773   4.654  13.931  0.00  0.00    +0.000 C 
ATOM      9  O   UNL     1       7.705   5.291  14.409  0.00  0.00    +0.000 OA
ATOM     10  N   UNL     1       5.517   4.476  14.483  0.00  0.00    +0.000 N 
ATOM     11  H   UNL     1       4.911   3.800  14.035  0.00  0.00    +0.000 HD
ENDBRANCH   1  10
BRANCH   5  12
ATOM     12  O   UNL     1       3.489   3.868  18.855  0.00  0.00    +0.000 OA
BRANCH  12  13
ATOM     13  S   UNL     1       1.976   3.266  18.773  0.00  0.00    +0.000 S 
ATOM     14  O   UNL     1       1.269   3.945  17.705  0.00  0.00    +0.000 OA
ATOM     15  O   UNL     1       2.050   1.820  18.803  0.00  0.00    +0.000 OA
BRANCH  13  16
ATOM     16  N   UNL     1       1.266   3.759  20.243  0.00  0.00    +0.000 NA
ATOM     17  C   UNL     1       1.338   2.767  21.330  0.00  0.00    +0.000 C 
ATOM     18  C   UNL     1       1.619   5.121  20.678  0.00  0.00    +0.000 C 
ENDBRANCH  13  16
ENDBRANCH  12  13
ENDBRANCH   5  12
TORSDOF 4
ENDMDL
MODEL 4
REMARK VINA RESULT:      -6.8      0.909      1.320
REMARK  Name = 
REMARK  7 active torsions:
REMARK  status: ('A' for Active; 'I' for Inactive)
REMARK    1  A    between atoms: C_1  and  C_2
REMARK    2  A    between atoms: N_4  and  C_5
REMARK    3  A    between atoms: C_9  and  O_10
REMARK    4  A    between atoms: O_10  and  S_11
REMARK    5  A    between atoms: S_11  and  N_14
REMARK    6  A    between atoms: N_14  and  C_15
REMARK    7  A    between atoms: N_14  and  C_16
REMARK                            x       y       z     vdW  Elec       q    Type
REMARK                         _______ _______ _______ _____ _____    ______ ____
ROOT
ATOM      1  C   UNL     1       6.050   4.250  16.065  0.00  0.00    +0.000 A 
ATOM      2  C   UNL     1       7.144   4.499  16.896  0.00  0.00    +0.000 A 
ATOM      3  C   UNL     1       6.952   4.878  18.225  0.00  0.00    +0.000 A 
ATOM      4  C   UNL     1       5.662   5.013  18.735  0.00  0.00    +0.000 A 
ATOM      5  C   UNL     1       4.560   4.799  17.908  0.00  0.00    +0.000 A 
ATOM      6  C   UNL     1       4.755   4.422  16.575  0.00  0.00    +0.000 A 
ENDROOT
BRANCH   1  10
ATOM      7  C   UNL     1       6.773   3.803  12.393  0.00  0.00    +0.000 C 
ATOM      8  C   UNL     1       6.914   4.473  13.737  0.00  0.00    +0.000 C 
ATOM      9  O   UNL     1       7.628   5.460  13.872  0.00  0.00    +0.000 OA
ATOM     10  N   UNL     1       6.171   3.844  14.719  0.00  0.00    +0.000 N 
ATOM     11  H   UNL     1       5.754   2.953  14.479  0.00  0.00    +0.000 HD
ENDBRANCH   1  10
BRANCH   5  12
ATOM     12  O   UNL     1       3.332   4.933  18.506  0.00  0.00    +0.000 OA
BRANCH  12  13
ATOM     13  S   UNL     1       2.310   3.672  18.659  0.00  0.00    +0.000 S 
ATOM     14  O   UNL     1       1.387   3.690  17.541  0.00  0.00    +0.000 OA
ATOM     15  O   UNL     1       3.082   2.483  18.957  0.00  0.00    +0.000 OA
BRANCH  13  16
ATOM     16  N   UNL     1       1.413   4.047  20.060  0.00  0.00    +0.000 NA
ATOM     17  C   UNL     1       1.271   2.939  21.021  0.00  0.00    +0.000 C 
ATOM     18  C   UNL     1       1.765   5.326  20.700  0.00  0.00    +0.000 C 
ENDBRANCH  13  16
ENDBRANCH  12  13
ENDBRANCH   5  12
TORSDOF 4
ENDMDL
MODEL 5
REMARK VINA RESULT:      -6.8      1.279      1.478
REMARK  Name = 
REMARK  7 active torsions:
REMARK  status: ('A' for Active; 'I' for Inactive)
REMARK    1  A    between atoms: C_1  and  C_2
REMARK    2  A    between atoms: N_4  and  C_5
REMARK    3  A    between atoms: C_9  and  O_10
REMARK    4  A    between atoms: O_10  and  S_11
REMARK    5  A    between atoms: S_11  and  N_14
REMARK    6  A    between atoms: N_14  and  C_15
REMARK    7  A    between atoms: N_14  and  C_16
REMARK                            x       y       z     vdW  Elec       q    Type
REMARK                         _______ _______ _______ _____ _____    ______ ____
ROOT
ATOM      1  C   UNL     1       5.476   4.964  15.705  0.00  0.00    +0.000 A 
ATOM      2  C   UNL     1       5.065   6.284  15.895  0.00  0.00    +0.000 A 
ATOM      3  C   UNL     1       4.768   6.756  17.175  0.00  0.00    +0.000 A 
ATOM      4  C   UNL     1       4.878   5.908  18.276  0.00  0.00    +0.000 A 
ATOM      5  C   UNL     1       5.257   4.578  18.097  0.00  0.00    +0.000 A 
ATOM      6  C   UNL     1       5.552   4.108  16.813  0.00  0.00    +0.000 A 
ENDROOT
BRANCH   1  10
ATOM      7  C   UNL     1       6.959   4.012  12.373  0.00  0.00    +0.000 C 
ATOM      8  C   UNL     1       6.944   4.719  13.705  0.00  0.00    +0.000 C 
ATOM      9  O   UNL     1       7.869   5.454  14.033  0.00  0.00    +0.000 OA
ATOM     10  N   UNL     1       5.812   4.427  14.444  0.00  0.00    +0.000 N 
ATOM     11  H   UNL     1       5.216   3.687  14.097  0.00  0.00    +0.000 HD
ENDBRANCH   1  10
BRANCH   5  12
ATOM     12  O   UNL     1       5.360   3.829  19.243  0.00  0.00    +0.000 OA
BRANCH  12  13
ATOM     13  S   UNL     1       4.295   2.646  19.593  0.00  0.00    +0.000 S 
ATOM     14  O   UNL     1       3.782   2.106  18.349  0.00  0.00    +0.000 OA
ATOM     15  O   UNL     1       4.881   1.772  20.588  0.00  0.00    +0.000 OA
BRANCH  13  16
ATOM     16  N   UNL     1       3.010   3.472  20.352  0.00  0.00    +0.000 NA
ATOM     17  C   UNL     1       1.954   3.948  19.441  0.00  0.00    +0.000 C 
ATOM     18  C   UNL     1       2.480   2.820  21.562  0.00  0.00    +0.000 C 
ENDBRANCH  13  16
ENDBRANCH  12  13
ENDBRANCH   5  12
TORSDOF 4
ENDMDL
MODEL 6
REMARK VINA RESULT:      -6.8      3.291      6.342
REMARK  Name = 
REMARK  7 active torsions:
REMARK  status: ('A' for Active; 'I' for Inactive)
REMARK    1  A    between atoms: C_1  and  C_2
REMARK    2  A    between atoms: N_4  and  C_5
REMARK    3  A    between atoms: C_9  and  O_10
REMARK    4  A    between atoms: O_10  and  S_11
REMARK    5  A    between atoms: S_11  and  N_14
REMARK    6  A    between atoms: N_14  and  C_15
REMARK    7  A    between atoms: N_14  and  C_16
REMARK                            x       y       z     vdW  Elec       q    Type
REMARK                         _______ _______ _______ _____ _____    ______ ____
ROOT
ATOM      1  C   UNL     1       2.719   5.447  19.145  0.00  0.00    +0.000 A 
ATOM      2  C   UNL     1       1.914   4.598  18.384  0.00  0.00    +0.000 A 
ATOM      3  C   UNL     1       2.479   3.758  17.423  0.00  0.00    +0.000 A 
ATOM      4  C   UNL     1       3.857   3.762  17.215  0.00  0.00    +0.000 A 
ATOM      5  C   UNL     1       4.671   4.627  17.946  0.00  0.00    +0.000 A 
ATOM      6  C   UNL     1       4.101   5.470  18.906  0.00  0.00    +0.000 A 
ENDROOT
BRANCH   1  10
ATOM      7  C   UNL     1       1.446   8.275  21.287  0.00  0.00    +0.000 C 
ATOM      8  C   UNL     1       1.901   7.643  19.996  0.00  0.00    +0.000 C 
ATOM      9  O   UNL     1       1.958   8.302  18.964  0.00  0.00    +0.000 OA
ATOM     10  N   UNL     1       2.218   6.305  20.146  0.00  0.00    +0.000 N 
ATOM     11  H   UNL     1       1.975   5.873  21.029  0.00  0.00    +0.000 HD
ENDBRANCH   1  10
BRANCH   5  12
ATOM     12  O   UNL     1       6.016   4.541  17.686  0.00  0.00    +0.000 OA
BRANCH  12  13
ATOM     13  S   UNL     1       6.757   5.561  16.652  0.00  0.00    +0.000 S 
ATOM     14  O   UNL     1       7.587   4.782  15.754  0.00  0.00    +0.000 OA
ATOM     15  O   UNL     1       5.774   6.486  16.128  0.00  0.00    +0.000 OA
BRANCH  13  16
ATOM     16  N   UNL     1       7.803   6.461  17.654  0.00  0.00    +0.000 NA
ATOM     17  C   UNL     1       7.663   7.924  17.542  0.00  0.00    +0.000 C 
ATOM     18  C   UNL     1       7.886   5.992  19.048  0.00  0.00    +0.000 C 
ENDBRANCH  13  16
ENDBRANCH  12  13
ENDBRANCH   5  12
TORSDOF 4
ENDMDL
MODEL 7
REMARK VINA RESULT:      -6.8      1.334      1.665
REMARK  Name = 
REMARK  7 active torsions:
REMARK  status: ('A' for Active; 'I' for Inactive)
REMARK    1  A    between atoms: C_1  and  C_2
REMARK    2  A    between atoms: N_4  and  C_5
REMARK    3  A    between atoms: C_9  and  O_10
REMARK    4  A    between atoms: O_10  and  S_11
REMARK    5  A    between atoms: S_11  and  N_14
REMARK    6  A    between atoms: N_14  and  C_15
REMARK    7  A    between atoms: N_14  and  C_16
REMARK                            x       y       z     vdW  Elec       q    Type
REMARK                         _______ _______ _______ _____ _____    ______ ____
ROOT
ATOM      1  C   UNL     1       6.258   4.192  16.246  0.00  0.00    +0.000 A 
ATOM      2  C   UNL     1       7.464   4.529  16.863  0.00  0.00    +0.000 A 
ATOM      3  C   UNL     1       7.481   5.006  18.174  0.00  0.00    +0.000 A 
ATOM      4  C   UNL     1       6.288   5.150  18.881  0.00  0.00    +0.000 A 
ATOM      5  C   UNL     1       5.073   4.847  18.268  0.00  0.00    +0.000 A 
ATOM      6  C   UNL     1       5.059   4.372  16.952  0.00  0.00    +0.000 A 
ENDROOT
BRANCH   1  10
ATOM      7  C   UNL     1       6.343   3.496  12.543  0.00  0.00    +0.000 C 
ATOM      8  C   UNL     1       6.664   4.283  13.789  0.00  0.00    +0.000 C 
ATOM      9  O   UNL     1       7.300   5.330  13.720  0.00  0.00    +0.000 OA
ATOM     10  N   UNL     1       6.170   3.684  14.933  0.00  0.00    +0.000 N 
ATOM     11  H   UNL     1       5.797   2.748  14.836  0.00  0.00    +0.000 HD
ENDBRANCH   1  10
BRANCH   5  12
ATOM     12  O   UNL     1       3.956   4.998  19.052  0.00  0.00    +0.000 OA
BRANCH  12  13
ATOM     13  S   UNL     1       3.201   3.719  19.724  0.00  0.00    +0.000 S 
ATOM     14  O   UNL     1       4.141   2.619  19.802  0.00  0.00    +0.000 OA
ATOM     15  O   UNL     1       2.492   4.167  20.905  0.00  0.00    +0.000 OA
BRANCH  13  16
ATOM     16  N   UNL     1       2.021   3.295  18.567  0.00  0.00    +0.000 NA
ATOM     17  C   UNL     1       0.970   2.385  19.057  0.00  0.00    +0.000 C 
ATOM     18  C   UNL     1       1.491   4.420  17.778  0.00  0.00    +0.000 C 
ENDBRANCH  13  16
ENDBRANCH  12  13
ENDBRANCH   5  12
TORSDOF 4
ENDMDL
MODEL 8
REMARK VINA RESULT:      -6.8      3.164      6.297
REMARK  Name = 
REMARK  7 active torsions:
REMARK  status: ('A' for Active; 'I' for Inactive)
REMARK    1  A    between atoms: C_1  and  C_2
REMARK    2  A    between atoms: N_4  and  C_5
REMARK    3  A    between atoms: C_9  and  O_10
REMARK    4  A    between atoms: O_10  and  S_11
REMARK    5  A    between atoms: S_11  and  N_14
REMARK    6  A    between atoms: N_14  and  C_15
REMARK    7  A    between atoms: N_14  and  C_16
REMARK                            x       y       z     vdW  Elec       q    Type
REMARK                         _______ _______ _______ _____ _____    ______ ____
ROOT
ATOM      1  C   UNL     1       3.031   5.505  19.380  0.00  0.00    +0.000 A 
ATOM      2  C   UNL     1       2.439   6.767  19.303  0.00  0.00    +0.000 A 
ATOM      3  C   UNL     1       2.779   7.647  18.275  0.00  0.00    +0.000 A 
ATOM      4  C   UNL     1       3.718   7.273  17.315  0.00  0.00    +0.000 A 
ATOM      5  C   UNL     1       4.341   6.028  17.397  0.00  0.00    +0.000 A 
ATOM      6  C   UNL     1       3.999   5.148  18.430  0.00  0.00    +0.000 A 
ENDROOT
BRANCH   1  10
ATOM      7  C   UNL     1       1.606   2.814  21.601  0.00  0.00    +0.000 C 
ATOM      8  C   UNL     1       1.692   3.633  20.338  0.00  0.00    +0.000 C 
ATOM      9  O   UNL     1       0.906   3.444  19.415  0.00  0.00    +0.000 OA
ATOM     10  N   UNL     1       2.719   4.558  20.379  0.00  0.00    +0.000 N 
ATOM     11  H   UNL     1       3.370   4.487  21.150  0.00  0.00    +0.000 HD
ENDBRANCH   1  10
BRANCH   5  12
ATOM     12  O   UNL     1       5.232   5.740  16.394  0.00  0.00    +0.000 OA
BRANCH  12  13
ATOM     13  S   UNL     1       6.817   5.509  16.695  0.00  0.00    +0.000 S 
ATOM     14  O   UNL     1       7.000   4.157  17.185  0.00  0.00    +0.000 OA
ATOM     15  O   UNL     1       7.580   5.990  15.561  0.00  0.00    +0.000 OA
BRANCH  13  16
ATOM     16  N   UNL     1       7.139   6.566  17.994  0.00  0.00    +0.000 NA
ATOM     17  C   UNL     1       7.754   5.930  19.173  0.00  0.00    +0.000 C 
ATOM     18  C   UNL     1       7.785   7.835  17.619  0.00  0.00    +0.000 C 
ENDBRANCH  13  16
ENDBRANCH  12  13
ENDBRANCH   5  12
TORSDOF 4
ENDMDL
MODEL 9
REMARK VINA RESULT:      -6.7      1.256      1.872
REMARK  Name = 
REMARK  7 active torsions:
REMARK  status: ('A' for Active; 'I' for Inactive)
REMARK    1  A    between atoms: C_1  and  C_2
REMARK    2  A    between atoms: N_4  and  C_5
REMARK    3  A    between atoms: C_9  and  O_10
REMARK    4  A    between atoms: O_10  and  S_11
REMARK    5  A    between atoms: S_11  and  N_14
REMARK    6  A    between atoms: N_14  and  C_15
REMARK    7  A    between atoms: N_14  and  C_16
REMARK                            x       y       z     vdW  Elec       q    Type
REMARK                         _______ _______ _______ _____ _____    ______ ____
ROOT
ATOM      1  C   UNL     1       6.162   3.987  15.895  0.00  0.00    +0.000 A 
ATOM      2  C   UNL     1       7.174   4.539  16.683  0.00  0.00    +0.000 A 
ATOM      3  C   UNL     1       6.963   4.778  18.041  0.00  0.00    +0.000 A 
ATOM      4  C   UNL     1       5.735   4.469  18.624  0.00  0.00    +0.000 A 
ATOM      5  C   UNL     1       4.705   3.946  17.843  0.00  0.00    +0.000 A 
ATOM      6  C   UNL     1       4.918   3.709  16.481  0.00  0.00    +0.000 A 
ENDROOT
BRANCH   1  10
ATOM      7  C   UNL     1       6.914   3.891  12.203  0.00  0.00    +0.000 C 
ATOM      8  C   UNL     1       7.002   4.462  13.596  0.00  0.00    +0.000 C 
ATOM      9  O   UNL     1       7.634   5.490  13.812  0.00  0.00    +0.000 OA
ATOM     10  N   UNL     1       6.314   3.699  14.522  0.00  0.00    +0.000 N 
ATOM     11  H   UNL     1       5.969   2.800  14.211  0.00  0.00    +0.000 HD
ENDBRANCH   1  10
BRANCH   5  12
ATOM     12  O   UNL     1       3.542   3.652  18.511  0.00  0.00    +0.000 OA
BRANCH  12  13
ATOM     13  S   UNL     1       2.169   4.493  18.255  0.00  0.00    +0.000 S 
ATOM     14  O   UNL     1       2.517   5.882  18.029  0.00  0.00    +0.000 OA
ATOM     15  O   UNL     1       1.355   3.774  17.297  0.00  0.00    +0.000 OA
BRANCH  13  16
ATOM     16  N   UNL     1       1.361   4.412  19.755  0.00  0.00    +0.000 NA
ATOM     17  C   UNL     1       1.067   3.048  20.228  0.00  0.00    +0.000 C 
ATOM     18  C   UNL     1       1.913   5.283  20.806  0.00  0.00    +0.000 C 
ENDBRANCH  13  16
ENDBRANCH  12  13
ENDBRANCH   5  12
TORSDOF 4
ENDMDL
