MODEL 1
REMARK VINA RESULT:      -6.9      0.000      0.000
REMARK  Name = 
REMARK  3 active torsions:
REMARK  status: ('A' for Active; 'I' for Inactive)
REMARK    1  A    between atoms: O_1  and  C_2
REMARK    2  A    between atoms: C_4  and  O_5
REMARK    3  A    between atoms: C_8  and  N_9
REMARK                            x       y       z     vdW  Elec       q    Type
REMARK                         _______ _______ _______ _____ _____    ______ ____
ROOT
ATOM      1  C   UNL     1       7.233   5.409  19.451  0.00  0.00    +0.000 A 
ATOM      2  N   UNL     1       7.719   5.784  18.245  0.00  0.00    +0.000 NA
ATOM      3  C   UNL     1       7.007   5.576  17.106  0.00  0.00    +0.000 A 
ATOM      4  C   UNL     1       5.740   4.977  17.166  0.00  0.00    +0.000 A 
ATOM      5 CL   UNL     1       4.932   4.666  15.626  0.00  0.00    +0.000 Cl
ATOM      6  C   UNL     1       5.227   4.607  18.444  0.00  0.00    +0.000 A 
ATOM      7  N   UNL     1       6.012   4.823  19.538  0.00  0.00    +0.000 NA
ENDROOT
BRANCH   6   8
ATOM      8  N   UNL     1       3.923   4.037  18.650  0.00  0.00    +0.000 N 
ATOM      9  C   UNL     1       3.727   2.600  18.741  0.00  0.00    +0.000 C 
ATOM     10  C   UNL     1       2.644   2.211  17.715  0.00  0.00    +0.000 C 
ATOM     11  O   UNL     1       1.450   2.953  17.928  0.00  0.00    +0.000 OA
ATOM     12  C   UNL     1       1.699   4.344  17.778  0.00  0.00    +0.000 C 
ATOM     13  C   UNL     1       2.709   4.813  18.825  0.00  0.00    +0.000 C 
ENDBRANCH   6   8
BRANCH   1  14
ATOM     14  O   UNL     1       7.954   5.627  20.567  0.00  0.00    +0.000 OA
ATOM     15  H   UNL     1       8.917   5.710  20.532  0.00  0.00    +0.000 HD
ENDBRANCH   1  14
BRANCH   3  16
ATOM     16  O   UNL     1       7.528   5.944  15.919  0.00  0.00    +0.000 OA
ATOM     17  H   UNL     1       7.920   6.818  15.789  0.00  0.00    +0.000 HD
ENDBRANCH   3  16
TORSDOF 3
ENDMDL
MODEL 2
REMARK VINA RESULT:      -6.9      1.011      1.011
REMARK  Name = 
REMARK  3 active torsions:
REMARK  status: ('A' for Active; 'I' for Inactive)
REMARK    1  A    between atoms: O_1  and  C_2
REMARK    2  A    between atoms: C_4  and  O_5
REMARK    3  A    between atoms: C_8  and  N_9
REMARK                            x       y       z     vdW  Elec       q    Type
REMARK                         _______ _______ _______ _____ _____    ______ ____
ROOT
ATOM      1  C   UNL     1       7.540   5.569  19.736  0.00  0.00    +0.000 A 
ATOM      2  N   UNL     1       7.943   6.428  18.771  0.00  0.00    +0.000 NA
ATOM      3  C   UNL     1       7.150   6.706  17.703  0.00  0.00    +0.000 A 
ATOM      4  C   UNL     1       5.883   6.113  17.593  0.00  0.00    +0.000 A 
ATOM      5 CL   UNL     1       4.964   6.465  16.126  0.00  0.00    +0.000 Cl
ATOM      6  C   UNL     1       5.459   5.228  18.627  0.00  0.00    +0.000 A 
ATOM      7  N   UNL     1       6.322   4.978  19.653  0.00  0.00    +0.000 NA
ENDROOT
BRANCH   6   8
ATOM      8  N   UNL     1       4.166   4.599  18.663  0.00  0.00    +0.000 N 
ATOM      9  C   UNL     1       3.999   3.186  18.368  0.00  0.00    +0.000 C 
ATOM     10  C   UNL     1       2.928   3.063  17.267  0.00  0.00    +0.000 C 
ATOM     11  O   UNL     1       1.718   3.699  17.658  0.00  0.00    +0.000 OA
ATOM     12  C   UNL     1       1.939   5.085  17.885  0.00  0.00    +0.000 C 
ATOM     13  C   UNL     1       2.935   5.278  19.028  0.00  0.00    +0.000 C 
ENDBRANCH   6   8
BRANCH   1  14
ATOM     14  O   UNL     1       8.341   5.310  20.786  0.00  0.00    +0.000 OA
ATOM     15  H   UNL     1       8.931   4.542  20.788  0.00  0.00    +0.000 HD
ENDBRANCH   1  14
BRANCH   3  16
ATOM     16  O   UNL     1       7.589   7.550  16.750  0.00  0.00    +0.000 OA
ATOM     17  H   UNL     1       7.328   7.447  15.824  0.00  0.00    +0.000 HD
ENDBRANCH   3  16
TORSDOF 3
ENDMDL
MODEL 3
REMARK VINA RESULT:      -6.9      1.105      1.622
REMARK  Name = 
REMARK  3 active torsions:
REMARK  status: ('A' for Active; 'I' for Inactive)
REMARK    1  A    between atoms: O_1  and  C_2
REMARK    2  A    between atoms: C_4  and  O_5
REMARK    3  A    between atoms: C_8  and  N_9
REMARK                            x       y       z     vdW  Elec       q    Type
REMARK                         _______ _______ _______ _____ _____    ______ ____
ROOT
ATOM      1  C   UNL     1       7.527   5.535  19.755  0.00  0.00    +0.000 A 
ATOM      2  N   UNL     1       7.984   6.358  18.784  0.00  0.00    +0.000 NA
ATOM      3  C   UNL     1       7.279   6.550  17.638  0.00  0.00    +0.000 A 
ATOM      4  C   UNL     1       6.047   5.904  17.451  0.00  0.00    +0.000 A 
ATOM      5 CL   UNL     1       5.250   6.145  15.894  0.00  0.00    +0.000 Cl
ATOM      6  C   UNL     1       5.564   5.058  18.492  0.00  0.00    +0.000 A 
ATOM      7  N   UNL     1       6.342   4.894  19.600  0.00  0.00    +0.000 NA
ENDROOT
BRANCH   6   8
ATOM      8  N   UNL     1       4.295   4.382  18.451  0.00  0.00    +0.000 N 
ATOM      9  C   UNL     1       3.162   4.844  19.235  0.00  0.00    +0.000 C 
ATOM     10  C   UNL     1       2.650   3.649  20.063  0.00  0.00    +0.000 C 
ATOM     11  O   UNL     1       2.337   2.544  19.226  0.00  0.00    +0.000 OA
ATOM     12  C   UNL     1       3.496   2.111  18.525  0.00  0.00    +0.000 C 
ATOM     13  C   UNL     1       4.008   3.229  17.617  0.00  0.00    +0.000 C 
ENDBRANCH   6   8
BRANCH   1  14
ATOM     14  O   UNL     1       8.241   5.360  20.883  0.00  0.00    +0.000 OA
ATOM     15  H   UNL     1       8.989   4.747  20.912  0.00  0.00    +0.000 HD
ENDBRANCH   1  14
BRANCH   3  16
ATOM     16  O   UNL     1       7.771   7.361  16.682  0.00  0.00    +0.000 OA
ATOM     17  H   UNL     1       8.495   7.975  16.864  0.00  0.00    +0.000 HD
ENDBRANCH   3  16
TORSDOF 3
ENDMDL
MODEL 4
REMARK VINA RESULT:      -6.6      1.549      2.126
REMARK  Name = 
REMARK  3 active torsions:
REMARK  status: ('A' for Active; 'I' for Inactive)
REMARK    1  A    between atoms: O_1  and  C_2
REMARK    2  A    between atoms: C_4  and  O_5
REMARK    3  A    between atoms: C_8  and  N_9
REMARK                            x       y       z     vdW  Elec       q    Type
REMARK                         _______ _______ _______ _____ _____    ______ ____
ROOT
ATOM      1  C   UNL     1       7.441   5.183  19.614  0.00  0.00    +0.000 A 
ATOM      2  N   UNL     1       7.981   4.951  18.395  0.00  0.00    +0.000 NA
ATOM      3  C   UNL     1       7.195   4.679  17.320  0.00  0.00    +0.000 A 
ATOM      4  C   UNL     1       5.799   4.649  17.457  0.00  0.00    +0.000 A 
ATOM      5 CL   UNL     1       4.868   4.197  16.026  0.00  0.00    +0.000 Cl
ATOM      6  C   UNL     1       5.240   4.918  18.741  0.00  0.00    +0.000 A 
ATOM      7  N   UNL     1       6.095   5.156  19.776  0.00  0.00    +0.000 NA
ENDROOT
BRANCH   6   8
ATOM      8  N   UNL     1       3.827   4.973  19.005  0.00  0.00    +0.000 N 
ATOM      9  C   UNL     1       3.026   6.124  18.622  0.00  0.00    +0.000 C 
ATOM     10  C   UNL     1       2.272   6.605  19.877  0.00  0.00    +0.000 C 
ATOM     11  O   UNL     1       1.504   5.553  20.446  0.00  0.00    +0.000 OA
ATOM     12  C   UNL     1       2.350   4.481  20.842  0.00  0.00    +0.000 C 
ATOM     13  C   UNL     1       3.068   3.902  19.623  0.00  0.00    +0.000 C 
ENDBRANCH   6   8
BRANCH   1  14
ATOM     14  O   UNL     1       8.239   5.453  20.664  0.00  0.00    +0.000 OA
ATOM     15  H   UNL     1       8.620   6.333  20.791  0.00  0.00    +0.000 HD
ENDBRANCH   1  14
BRANCH   3  16
ATOM     16  O   UNL     1       7.764   4.433  16.124  0.00  0.00    +0.000 OA
ATOM     17  H   UNL     1       7.913   3.530  15.812  0.00  0.00    +0.000 HD
ENDBRANCH   3  16
TORSDOF 3
ENDMDL
MODEL 5
REMARK VINA RESULT:      -6.6      0.729      1.470
REMARK  Name = 
REMARK  3 active torsions:
REMARK  status: ('A' for Active; 'I' for Inactive)
REMARK    1  A    between atoms: O_1  and  C_2
REMARK    2  A    between atoms: C_4  and  O_5
REMARK    3  A    between atoms: C_8  and  N_9
REMARK                            x       y       z     vdW  Elec       q    Type
REMARK                         _______ _______ _______ _____ _____    ______ ____
ROOT
ATOM      1  C   UNL     1       7.156   5.346  19.261  0.00  0.00    +0.000 A 
ATOM      2  N   UNL     1       7.684   5.755  18.084  0.00  0.00    +0.000 NA
ATOM      3  C   UNL     1       7.045   5.515  16.909  0.00  0.00    +0.000 A 
ATOM      4  C   UNL     1       5.811   4.848  16.900  0.00  0.00    +0.000 A 
ATOM      5 CL   UNL     1       5.103   4.504  15.319  0.00  0.00    +0.000 Cl
ATOM      6  C   UNL     1       5.253   4.444  18.148  0.00  0.00    +0.000 A 
ATOM      7  N   UNL     1       5.966   4.695  19.282  0.00  0.00    +0.000 NA
ENDROOT
BRANCH   6   8
ATOM      8  N   UNL     1       3.972   3.802  18.283  0.00  0.00    +0.000 N 
ATOM      9  C   UNL     1       2.740   4.480  17.918  0.00  0.00    +0.000 C 
ATOM     10  C   UNL     1       1.792   4.409  19.132  0.00  0.00    +0.000 C 
ATOM     11  O   UNL     1       1.590   3.064  19.543  0.00  0.00    +0.000 OA
ATOM     12  C   UNL     1       2.824   2.475  19.932  0.00  0.00    +0.000 C 
ATOM     13  C   UNL     1       3.785   2.439  18.744  0.00  0.00    +0.000 C 
ENDBRANCH   6   8
BRANCH   1  14
ATOM     14  O   UNL     1       7.805   5.596  20.414  0.00  0.00    +0.000 OA
ATOM     15  H   UNL     1       7.343   5.969  21.178  0.00  0.00    +0.000 HD
ENDBRANCH   1  14
BRANCH   3  16
ATOM     16  O   UNL     1       7.606   5.918  15.752  0.00  0.00    +0.000 OA
ATOM     17  H   UNL     1       7.449   6.803  15.395  0.00  0.00    +0.000 HD
ENDBRANCH   3  16
TORSDOF 3
ENDMDL
MODEL 6
REMARK VINA RESULT:      -6.3      2.151      4.720
REMARK  Name = 
REMARK  3 active torsions:
REMARK  status: ('A' for Active; 'I' for Inactive)
REMARK    1  A    between atoms: O_1  and  C_2
REMARK    2  A    between atoms: C_4  and  O_5
REMARK    3  A    between atoms: C_8  and  N_9
REMARK                            x       y       z     vdW  Elec       q    Type
REMARK                         _______ _______ _______ _____ _____    ______ ____
ROOT
ATOM      1  C   UNL     1       4.495   2.475  20.261  0.00  0.00    +0.000 A 
ATOM      2  N   UNL     1       3.147   2.467  20.377  0.00  0.00    +0.000 NA
ATOM      3  C   UNL     1       2.370   3.265  19.597  0.00  0.00    +0.000 A 
ATOM      4  C   UNL     1       2.960   4.104  18.640  0.00  0.00    +0.000 A 
ATOM      5 CL   UNL     1       1.876   5.167  17.737  0.00  0.00    +0.000 Cl
ATOM      6  C   UNL     1       4.380   4.086  18.509  0.00  0.00    +0.000 A 
ATOM      7  N   UNL     1       5.092   3.280  19.347  0.00  0.00    +0.000 NA
ENDROOT
BRANCH   6   8
ATOM      8  N   UNL     1       5.104   4.854  17.532  0.00  0.00    +0.000 N 
ATOM      9  C   UNL     1       5.390   4.326  16.209  0.00  0.00    +0.000 C 
ATOM     10  C   UNL     1       6.908   4.450  15.975  0.00  0.00    +0.000 C 
ATOM     11  O   UNL     1       7.344   5.792  16.148  0.00  0.00    +0.000 OA
ATOM     12  C   UNL     1       7.079   6.231  17.474  0.00  0.00    +0.000 C 
ATOM     13  C   UNL     1       5.575   6.211  17.743  0.00  0.00    +0.000 C 
ENDBRANCH   6   8
BRANCH   1  14
ATOM     14  O   UNL     1       5.245   1.676  21.043  0.00  0.00    +0.000 OA
ATOM     15  H   UNL     1       5.202   1.737  22.007  0.00  0.00    +0.000 HD
ENDBRANCH   1  14
BRANCH   3  16
ATOM     16  O   UNL     1       1.033   3.248  19.752  0.00  0.00    +0.000 OA
ATOM     17  H   UNL     1       0.473   2.647  19.241  0.00  0.00    +0.000 HD
ENDBRANCH   3  16
TORSDOF 3
ENDMDL
MODEL 7
REMARK VINA RESULT:      -6.1      2.385      5.246
REMARK  Name = 
REMARK  3 active torsions:
REMARK  status: ('A' for Active; 'I' for Inactive)
REMARK    1  A    between atoms: O_1  and  C_2
REMARK    2  A    between atoms: C_4  and  O_5
REMARK    3  A    between atoms: C_8  and  N_9
REMARK                            x       y       z     vdW  Elec       q    Type
REMARK                         _______ _______ _______ _____ _____    ______ ____
ROOT
ATOM      1  C   UNL     1       3.486   1.948  18.696  0.00  0.00    +0.000 A 
ATOM      2  N   UNL     1       2.327   2.082  19.381  0.00  0.00    +0.000 NA
ATOM      3  C   UNL     1       1.894   3.303  19.795  0.00  0.00    +0.000 A 
ATOM      4  C   UNL     1       2.642   4.453  19.501  0.00  0.00    +0.000 A 
ATOM      5 CL   UNL     1       2.044   5.980  20.157  0.00  0.00    +0.000 Cl
ATOM      6  C   UNL     1       3.849   4.302  18.758  0.00  0.00    +0.000 A 
ATOM      7  N   UNL     1       4.231   3.042  18.402  0.00  0.00    +0.000 NA
ENDROOT
BRANCH   6   8
ATOM      8  N   UNL     1       4.678   5.403  18.344  0.00  0.00    +0.000 N 
ATOM      9  C   UNL     1       4.182   6.434  17.449  0.00  0.00    +0.000 C 
ATOM     10  C   UNL     1       5.168   6.541  16.269  0.00  0.00    +0.000 C 
ATOM     11  O   UNL     1       6.490   6.788  16.730  0.00  0.00    +0.000 OA
ATOM     12  C   UNL     1       6.932   5.722  17.559  0.00  0.00    +0.000 C 
ATOM     13  C   UNL     1       6.041   5.615  18.796  0.00  0.00    +0.000 C 
ENDBRANCH   6   8
BRANCH   1  14
ATOM     14  O   UNL     1       3.896   0.730  18.295  0.00  0.00    +0.000 OA
ATOM     15  H   UNL     1       3.276   0.097  17.904  0.00  0.00    +0.000 HD
ENDBRANCH   1  14
BRANCH   3  16
ATOM     16  O   UNL     1       0.745   3.400  20.491  0.00  0.00    +0.000 OA
ATOM     17  H   UNL     1       0.745   3.497  21.453  0.00  0.00    +0.000 HD
ENDBRANCH   3  16
TORSDOF 3
ENDMDL
MODEL 8
REMARK VINA RESULT:      -6.1      2.274      5.079
REMARK  Name = 
REMARK  3 active torsions:
REMARK  status: ('A' for Active; 'I' for Inactive)
REMARK    1  A    between atoms: O_1  and  C_2
REMARK    2  A    between atoms: C_4  and  O_5
REMARK    3  A    between atoms: C_8  and  N_9
REMARK                            x       y       z     vdW  Elec       q    Type
REMARK                         _______ _______ _______ _____ _____    ______ ____
ROOT
ATOM      1  C   UNL     1       3.609   1.986  18.297  0.00  0.00    +0.000 A 
ATOM      2  N   UNL     1       2.451   2.408  18.855  0.00  0.00    +0.000 NA
ATOM      3  C   UNL     1       2.086   3.717  18.812  0.00  0.00    +0.000 A 
ATOM      4  C   UNL     1       2.906   4.655  18.168  0.00  0.00    +0.000 A 
ATOM      5 CL   UNL     1       2.393   6.344  18.242  0.00  0.00    +0.000 Cl
ATOM      6  C   UNL     1       4.112   4.196  17.562  0.00  0.00    +0.000 A 
ATOM      7  N   UNL     1       4.423   2.873  17.672  0.00  0.00    +0.000 NA
ENDROOT
BRANCH   6   8
ATOM      8  N   UNL     1       5.012   5.043  16.825  0.00  0.00    +0.000 N 
ATOM      9  C   UNL     1       5.314   4.795  15.425  0.00  0.00    +0.000 C 
ATOM     10  C   UNL     1       6.847   4.725  15.285  0.00  0.00    +0.000 C 
ATOM     11  O   UNL     1       7.461   5.903  15.790  0.00  0.00    +0.000 OA
ATOM     12  C   UNL     1       7.167   6.061  17.172  0.00  0.00    +0.000 C 
ATOM     13  C   UNL     1       5.660   6.221  17.372  0.00  0.00    +0.000 C 
ENDBRANCH   6   8
BRANCH   1  14
ATOM     14  O   UNL     1       3.949   0.685  18.351  0.00  0.00    +0.000 OA
ATOM     15  H   UNL     1       4.870   0.413  18.472  0.00  0.00    +0.000 HD
ENDBRANCH   1  14
BRANCH   3  16
ATOM     16  O   UNL     1       0.936   4.107  19.394  0.00  0.00    +0.000 OA
ATOM     17  H   UNL     1       0.741   5.041  19.551  0.00  0.00    +0.000 HD
ENDBRANCH   3  16
TORSDOF 3
ENDMDL
MODEL 9
REMARK VINA RESULT:      -6.1      2.351      4.653
REMARK  Name = 
REMARK  3 active torsions:
REMARK  status: ('A' for Active; 'I' for Inactive)
REMARK    1  A    between atoms: O_1  and  C_2
REMARK    2  A    between atoms: C_4  and  O_5
REMARK    3  A    between atoms: C_8  and  N_9
REMARK                            x       y       z     vdW  Elec       q    Type
REMARK                         _______ _______ _______ _____ _____    ______ ____
ROOT
ATOM      1  C   UNL     1       4.456   2.374  20.389  0.00  0.00    +0.000 A 
ATOM      2  N   UNL     1       3.106   2.410  20.481  0.00  0.00    +0.000 NA
ATOM      3  C   UNL     1       2.369   3.212  19.668  0.00  0.00    +0.000 A 
ATOM      4  C   UNL     1       3.002   4.010  18.703  0.00  0.00    +0.000 A 
ATOM      5 CL   UNL     1       1.969   5.084  17.756  0.00  0.00    +0.000 Cl
ATOM      6  C   UNL     1       4.422   3.946  18.599  0.00  0.00    +0.000 A 
ATOM      7  N   UNL     1       5.094   3.138  19.469  0.00  0.00    +0.000 NA
ENDROOT
BRANCH   6   8
ATOM      8  N   UNL     1       5.188   4.668  17.619  0.00  0.00    +0.000 N 
ATOM      9  C   UNL     1       5.420   6.098  17.738  0.00  0.00    +0.000 C 
ATOM     10  C   UNL     1       4.969   6.754  16.418  0.00  0.00    +0.000 C 
ATOM     11  O   UNL     1       5.633   6.171  15.305  0.00  0.00    +0.000 OA
ATOM     12  C   UNL     1       5.327   4.785  15.217  0.00  0.00    +0.000 C 
ATOM     13  C   UNL     1       5.825   4.058  16.466  0.00  0.00    +0.000 C 
ENDBRANCH   6   8
BRANCH   1  14
ATOM     14  O   UNL     1       5.166   1.571  21.204  0.00  0.00    +0.000 OA
ATOM     15  H   UNL     1       5.603   0.776  20.867  0.00  0.00    +0.000 HD
ENDBRANCH   1  14
BRANCH   3  16
ATOM     16  O   UNL     1       1.029   3.239  19.798  0.00  0.00    +0.000 OA
ATOM     17  H   UNL     1       0.593   3.842  20.416  0.00  0.00    +0.000 HD
ENDBRANCH   3  16
TORSDOF 3
ENDMDL
