MODEL 1
REMARK VINA RESULT:      -7.4      0.000      0.000
REMARK  Name = 
REMARK  10 active torsions:
REMARK  status: ('A' for Active; 'I' for Inactive)
REMARK    1  A    between atoms: C_1  and  N_2
REMARK    2  A    between atoms: N_2  and  C_3
REMARK    3  A    between atoms: N_2  and  C_20
REMARK    4  A    between atoms: C_3  and  C_4
REMARK    5  A    between atoms: C_4  and  C_5
REMARK    6  A    between atoms: C_5  and  C_6
REMARK    7  A    between atoms: C_6  and  C_7
REMARK    8  A    between atoms: C_7  and  C_9
REMARK    9  A    between atoms: C_12  and  C_13
REMARK   10  A    between atoms: C_20  and  C_21
REMARK                            x       y       z     vdW  Elec       q    Type
REMARK                         _______ _______ _______ _____ _____    ______ ____
ROOT
ATOM      1  C   UNL     1       3.180   6.842  17.773  0.00  0.00    +0.000 C 
ENDROOT
BRANCH   1   2
ATOM      2  C   UNL     1       4.098   5.893  18.526  0.00  0.00    +0.000 C 
ATOM      3  O   UNL     1       3.855   5.526  19.676  0.00  0.00    +0.000 OA
BRANCH   2   4
ATOM      4  C   UNL     1       5.251   5.465  17.761  0.00  0.00    +0.000 A 
ATOM      5  N   UNL     1       6.407   5.055  18.258  0.00  0.00    +0.000 NA
ATOM      6  C   UNL     1       7.138   4.725  17.144  0.00  0.00    +0.000 A 
ATOM      7  C   UNL     1       6.401   4.962  16.004  0.00  0.00    +0.000 A 
ATOM      8  O   UNL     1       5.186   5.454  16.396  0.00  0.00    +0.000 OA
BRANCH   7   9
ATOM      9  C   UNL     1       6.613   4.754  14.588  0.00  0.00    +0.000 A 
ATOM     10  C   UNL     1       5.822   3.892  13.836  0.00  0.00    +0.000 A 
ATOM     11  C   UNL     1       6.158   3.669  12.506  0.00  0.00    +0.000 A 
ATOM     12  C   UNL     1       7.263   4.318  11.967  0.00  0.00    +0.000 A 
ATOM     13  C   UNL     1       7.979   5.181  12.780  0.00  0.00    +0.000 A 
ATOM     14  N   UNL     1       7.678   5.418  14.076  0.00  0.00    +0.000 NA
ENDBRANCH   7   9
ENDBRANCH   2   4
ENDBRANCH   1   2
BRANCH   1  15
ATOM     15  C   UNL     1       2.633   7.964  18.645  0.00  0.00    +0.000 C 
BRANCH  15  16
ATOM     16  C   UNL     1       1.734   8.932  17.870  0.00  0.00    +0.000 C 
BRANCH  16  17
ATOM     17  C   UNL     1       1.961  10.404  18.252  0.00  0.00    +0.000 C 
BRANCH  17  19
ATOM     18  C   UNL     1       0.901  12.242  19.433  0.00  0.00    +0.000 C 
ATOM     19  N   UNL     1       0.722  11.186  18.432  0.00  0.00    +0.000 NA
BRANCH  19  20
ATOM     20  C   UNL     1      -0.367  10.262  18.825  0.00  0.00    +0.000 C 
BRANCH  20  21
ATOM     21  C   UNL     1      -1.674  10.490  18.097  0.00  0.00    +0.000 A 
ATOM     22  C   UNL     1      -1.954   9.832  16.891  0.00  0.00    +0.000 A 
ATOM     23  C   UNL     1      -3.161  10.058  16.226  0.00  0.00    +0.000 A 
ATOM     24  C   UNL     1      -4.100  10.941  16.761  0.00  0.00    +0.000 A 
ATOM     25  C   UNL     1      -3.832  11.600  17.959  0.00  0.00    +0.000 A 
ATOM     26  C   UNL     1      -2.627  11.375  18.625  0.00  0.00    +0.000 A 
ENDBRANCH  20  21
ENDBRANCH  19  20
ENDBRANCH  17  19
ENDBRANCH  16  17
ENDBRANCH  15  16
ENDBRANCH   1  15
TORSDOF 9
ENDMDL
MODEL 2
REMARK VINA RESULT:      -7.4      5.778      8.902
REMARK  Name = 
REMARK  10 active torsions:
REMARK  status: ('A' for Active; 'I' for Inactive)
REMARK    1  A    between atoms: C_1  and  N_2
REMARK    2  A    between atoms: N_2  and  C_3
REMARK    3  A    between atoms: N_2  and  C_20
REMARK    4  A    between atoms: C_3  and  C_4
REMARK    5  A    between atoms: C_4  and  C_5
REMARK    6  A    between atoms: C_5  and  C_6
REMARK    7  A    between atoms: C_6  and  C_7
REMARK    8  A    between atoms: C_7  and  C_9
REMARK    9  A    between atoms: C_12  and  C_13
REMARK   10  A    between atoms: C_20  and  C_21
REMARK                            x       y       z     vdW  Elec       q    Type
REMARK                         _______ _______ _______ _____ _____    ______ ____
ROOT
ATOM      1  C   UNL     1       7.444   6.641  17.264  0.00  0.00    +0.000 C 
ENDROOT
BRANCH   1   2
ATOM      2  C   UNL     1       7.278   5.164  17.583  0.00  0.00    +0.000 C 
ATOM      3  O   UNL     1       8.226   4.464  17.942  0.00  0.00    +0.000 OA
BRANCH   2   4
ATOM      4  C   UNL     1       5.920   4.684  17.438  0.00  0.00    +0.000 A 
ATOM      5  N   UNL     1       5.359   4.258  16.317  0.00  0.00    +0.000 NA
ATOM      6  C   UNL     1       4.100   3.877  16.711  0.00  0.00    +0.000 A 
ATOM      7  C   UNL     1       3.936   4.099  18.061  0.00  0.00    +0.000 A 
ATOM      8  O   UNL     1       5.104   4.634  18.534  0.00  0.00    +0.000 OA
BRANCH   7   9
ATOM      9  C   UNL     1       2.883   3.843  19.018  0.00  0.00    +0.000 A 
ATOM     10  C   UNL     1       2.124   4.865  19.580  0.00  0.00    +0.000 A 
ATOM     11  C   UNL     1       1.203   4.543  20.570  0.00  0.00    +0.000 A 
ATOM     12  C   UNL     1       1.062   3.217  20.962  0.00  0.00    +0.000 A 
ATOM     13  C   UNL     1       1.839   2.260  20.331  0.00  0.00    +0.000 A 
ATOM     14  N   UNL     1       2.743   2.540  19.366  0.00  0.00    +0.000 NA
ENDBRANCH   7   9
ENDBRANCH   2   4
ENDBRANCH   1   2
BRANCH   1  15
ATOM     15  C   UNL     1       8.074   7.432  18.404  0.00  0.00    +0.000 C 
BRANCH  15  16
ATOM     16  C   UNL     1       8.329   8.897  18.038  0.00  0.00    +0.000 C 
BRANCH  16  17
ATOM     17  C   UNL     1       8.915   9.716  19.200  0.00  0.00    +0.000 C 
BRANCH  17  19
ATOM     18  C   UNL     1      10.371  11.512  19.943  0.00  0.00    +0.000 C 
ATOM     19  N   UNL     1       9.808  10.814  18.782  0.00  0.00    +0.000 NA
BRANCH  19  20
ATOM     20  C   UNL     1       9.042  11.747  17.924  0.00  0.00    +0.000 C 
BRANCH  20  21
ATOM     21  C   UNL     1       9.655  13.124  17.793  0.00  0.00    +0.000 A 
ATOM     22  C   UNL     1      10.824  13.326  17.044  0.00  0.00    +0.000 A 
ATOM     23  C   UNL     1      11.384  14.601  16.938  0.00  0.00    +0.000 A 
ATOM     24  C   UNL     1      10.780  15.685  17.576  0.00  0.00    +0.000 A 
ATOM     25  C   UNL     1       9.619  15.495  18.322  0.00  0.00    +0.000 A 
ATOM     26  C   UNL     1       9.058  14.223  18.428  0.00  0.00    +0.000 A 
ENDBRANCH  20  21
ENDBRANCH  19  20
ENDBRANCH  17  19
ENDBRANCH  16  17
ENDBRANCH  15  16
ENDBRANCH   1  15
TORSDOF 9
ENDMDL
MODEL 3
REMARK VINA RESULT:      -7.3      1.008      1.328
REMARK  Name = 
REMARK  10 active torsions:
REMARK  status: ('A' for Active; 'I' for Inactive)
REMARK    1  A    between atoms: C_1  and  N_2
REMARK    2  A    between atoms: N_2  and  C_3
REMARK    3  A    between atoms: N_2  and  C_20
REMARK    4  A    between atoms: C_3  and  C_4
REMARK    5  A    between atoms: C_4  and  C_5
REMARK    6  A    between atoms: C_5  and  C_6
REMARK    7  A    between atoms: C_6  and  C_7
REMARK    8  A    between atoms: C_7  and  C_9
REMARK    9  A    between atoms: C_12  and  C_13
REMARK   10  A    between atoms: C_20  and  C_21
REMARK                            x       y       z     vdW  Elec       q    Type
REMARK                         _______ _______ _______ _____ _____    ______ ____
ROOT
ATOM      1  C   UNL     1       2.938   4.900  18.564  0.00  0.00    +0.000 C 
ENDROOT
BRANCH   1   2
ATOM      2  C   UNL     1       4.154   4.036  18.855  0.00  0.00    +0.000 C 
ATOM      3  O   UNL     1       4.138   3.157  19.717  0.00  0.00    +0.000 OA
BRANCH   2   4
ATOM      4  C   UNL     1       5.299   4.339  18.021  0.00  0.00    +0.000 A 
ATOM      5  N   UNL     1       6.516   4.635  18.447  0.00  0.00    +0.000 NA
ATOM      6  C   UNL     1       7.234   4.790  17.287  0.00  0.00    +0.000 A 
ATOM      7  C   UNL     1       6.420   4.595  16.193  0.00  0.00    +0.000 A 
ATOM      8  O   UNL     1       5.164   4.317  16.661  0.00  0.00    +0.000 OA
BRANCH   7   9
ATOM      9  C   UNL     1       6.621   4.565  14.761  0.00  0.00    +0.000 A 
ATOM     10  C   UNL     1       5.838   3.787  13.916  0.00  0.00    +0.000 A 
ATOM     11  C   UNL     1       6.165   3.734  12.566  0.00  0.00    +0.000 A 
ATOM     12  C   UNL     1       7.253   4.464  12.101  0.00  0.00    +0.000 A 
ATOM     13  C   UNL     1       7.962   5.235  13.008  0.00  0.00    +0.000 A 
ATOM     14  N   UNL     1       7.669   5.307  14.325  0.00  0.00    +0.000 NA
ENDBRANCH   7   9
ENDBRANCH   2   4
ENDBRANCH   1   2
BRANCH   1  15
ATOM     15  C   UNL     1       2.842   6.123  19.468  0.00  0.00    +0.000 C 
BRANCH  15  16
ATOM     16  C   UNL     1       2.714   7.432  18.682  0.00  0.00    +0.000 C 
BRANCH  16  17
ATOM     17  C   UNL     1       1.685   8.400  19.287  0.00  0.00    +0.000 C 
BRANCH  17  19
ATOM     18  C   UNL     1       2.350  10.211  17.812  0.00  0.00    +0.000 C 
ATOM     19  N   UNL     1       1.221   9.453  18.362  0.00  0.00    +0.000 NA
BRANCH  19  20
ATOM     20  C   UNL     1       0.289  10.344  19.089  0.00  0.00    +0.000 C 
BRANCH  20  21
ATOM     21  C   UNL     1      -1.070  10.494  18.438  0.00  0.00    +0.000 A 
ATOM     22  C   UNL     1      -1.418   9.734  17.312  0.00  0.00    +0.000 A 
ATOM     23  C   UNL     1      -2.672   9.888  16.717  0.00  0.00    +0.000 A 
ATOM     24  C   UNL     1      -3.589  10.799  17.243  0.00  0.00    +0.000 A 
ATOM     25  C   UNL     1      -3.253  11.558  18.361  0.00  0.00    +0.000 A 
ATOM     26  C   UNL     1      -2.001  11.405  18.957  0.00  0.00    +0.000 A 
ENDBRANCH  20  21
ENDBRANCH  19  20
ENDBRANCH  17  19
ENDBRANCH  16  17
ENDBRANCH  15  16
ENDBRANCH   1  15
TORSDOF 9
ENDMDL
MODEL 4
REMARK VINA RESULT:      -7.3      3.352      9.581
REMARK  Name = 
REMARK  10 active torsions:
REMARK  status: ('A' for Active; 'I' for Inactive)
REMARK    1  A    between atoms: C_1  and  N_2
REMARK    2  A    between atoms: N_2  and  C_3
REMARK    3  A    between atoms: N_2  and  C_20
REMARK    4  A    between atoms: C_3  and  C_4
REMARK    5  A    between atoms: C_4  and  C_5
REMARK    6  A    between atoms: C_5  and  C_6
REMARK    7  A    between atoms: C_6  and  C_7
REMARK    8  A    between atoms: C_7  and  C_9
REMARK    9  A    between atoms: C_12  and  C_13
REMARK   10  A    between atoms: C_20  and  C_21
REMARK                            x       y       z     vdW  Elec       q    Type
REMARK                         _______ _______ _______ _____ _____    ______ ____
ROOT
ATOM      1  C   UNL     1       2.842   7.219  18.220  0.00  0.00    +0.000 C 
ENDROOT
BRANCH   1   2
ATOM      2  C   UNL     1       2.087   8.533  18.333  0.00  0.00    +0.000 C 
ATOM      3  O   UNL     1       2.037   9.339  17.403  0.00  0.00    +0.000 OA
BRANCH   2   4
ATOM      4  C   UNL     1       1.435   8.724  19.612  0.00  0.00    +0.000 A 
ATOM      5  N   UNL     1       1.605   7.979  20.692  0.00  0.00    +0.000 NA
ATOM      6  C   UNL     1       0.814   8.590  21.633  0.00  0.00    +0.000 A 
ATOM      7  C   UNL     1       0.178   9.682  21.084  0.00  0.00    +0.000 A 
ATOM      8  O   UNL     1       0.564   9.765  19.773  0.00  0.00    +0.000 OA
BRANCH   7   9
ATOM      9  C   UNL     1      -0.700  10.715  21.588  0.00  0.00    +0.000 A 
ATOM     10  C   UNL     1      -1.042  10.809  22.933  0.00  0.00    +0.000 A 
ATOM     11  C   UNL     1      -1.974  11.766  23.318  0.00  0.00    +0.000 A 
ATOM     12  C   UNL     1      -2.528  12.601  22.354  0.00  0.00    +0.000 A 
ATOM     13  C   UNL     1      -2.110  12.456  21.042  0.00  0.00    +0.000 A 
ATOM     14  N   UNL     1      -1.207  11.537  20.636  0.00  0.00    +0.000 NA
ENDBRANCH   7   9
ENDBRANCH   2   4
ENDBRANCH   1   2
BRANCH   1  15
ATOM     15  C   UNL     1       3.961   7.259  17.187  0.00  0.00    +0.000 C 
BRANCH  15  16
ATOM     16  C   UNL     1       5.112   6.305  17.522  0.00  0.00    +0.000 C 
BRANCH  16  17
ATOM     17  C   UNL     1       4.664   5.086  18.346  0.00  0.00    +0.000 C 
BRANCH  17  19
ATOM     18  C   UNL     1       5.370   3.972  16.307  0.00  0.00    +0.000 C 
ATOM     19  N   UNL     1       4.851   3.789  17.667  0.00  0.00    +0.000 NA
BRANCH  19  20
ATOM     20  C   UNL     1       3.554   3.075  17.648  0.00  0.00    +0.000 C 
BRANCH  20  21
ATOM     21  C   UNL     1       2.781   3.146  18.947  0.00  0.00    +0.000 A 
ATOM     22  C   UNL     1       1.535   3.786  19.012  0.00  0.00    +0.000 A 
ATOM     23  C   UNL     1       0.837   3.852  20.219  0.00  0.00    +0.000 A 
ATOM     24  C   UNL     1       1.374   3.277  21.371  0.00  0.00    +0.000 A 
ATOM     25  C   UNL     1       2.611   2.639  21.317  0.00  0.00    +0.000 A 
ATOM     26  C   UNL     1       3.310   2.572  20.112  0.00  0.00    +0.000 A 
ENDBRANCH  20  21
ENDBRANCH  19  20
ENDBRANCH  17  19
ENDBRANCH  16  17
ENDBRANCH  15  16
ENDBRANCH   1  15
TORSDOF 9
ENDMDL
MODEL 5
REMARK VINA RESULT:      -7.3      6.006      8.991
REMARK  Name = 
REMARK  10 active torsions:
REMARK  status: ('A' for Active; 'I' for Inactive)
REMARK    1  A    between atoms: C_1  and  N_2
REMARK    2  A    between atoms: N_2  and  C_3
REMARK    3  A    between atoms: N_2  and  C_20
REMARK    4  A    between atoms: C_3  and  C_4
REMARK    5  A    between atoms: C_4  and  C_5
REMARK    6  A    between atoms: C_5  and  C_6
REMARK    7  A    between atoms: C_6  and  C_7
REMARK    8  A    between atoms: C_7  and  C_9
REMARK    9  A    between atoms: C_12  and  C_13
REMARK   10  A    between atoms: C_20  and  C_21
REMARK                            x       y       z     vdW  Elec       q    Type
REMARK                         _______ _______ _______ _____ _____    ______ ____
ROOT
ATOM      1  C   UNL     1       7.973   6.977  18.316  0.00  0.00    +0.000 C 
ENDROOT
BRANCH   1   2
ATOM      2  C   UNL     1       7.182   6.014  17.447  0.00  0.00    +0.000 C 
ATOM      3  O   UNL     1       7.733   5.227  16.676  0.00  0.00    +0.000 OA
BRANCH   2   4
ATOM      4  C   UNL     1       5.748   6.107  17.627  0.00  0.00    +0.000 A 
ATOM      5  N   UNL     1       4.959   7.046  17.130  0.00  0.00    +0.000 NA
ATOM      6  C   UNL     1       3.706   6.665  17.542  0.00  0.00    +0.000 A 
ATOM      7  C   UNL     1       3.780   5.510  18.289  0.00  0.00    +0.000 A 
ATOM      8  O   UNL     1       5.100   5.152  18.360  0.00  0.00    +0.000 OA
BRANCH   7   9
ATOM      9  C   UNL     1       2.815   4.632  18.914  0.00  0.00    +0.000 A 
ATOM     10  C   UNL     1       2.028   3.751  18.182  0.00  0.00    +0.000 A 
ATOM     11  C   UNL     1       1.051   3.019  18.849  0.00  0.00    +0.000 A 
ATOM     12  C   UNL     1       0.898   3.183  20.220  0.00  0.00    +0.000 A 
ATOM     13  C   UNL     1       1.744   4.062  20.875  0.00  0.00    +0.000 A 
ATOM     14  N   UNL     1       2.701   4.788  20.256  0.00  0.00    +0.000 NA
ENDBRANCH   7   9
ENDBRANCH   2   4
ENDBRANCH   1   2
BRANCH   1  15
ATOM     15  C   UNL     1       8.048   8.383  17.736  0.00  0.00    +0.000 C 
BRANCH  15  16
ATOM     16  C   UNL     1       8.735   9.377  18.678  0.00  0.00    +0.000 C 
BRANCH  16  17
ATOM     17  C   UNL     1       8.926  10.768  18.052  0.00  0.00    +0.000 C 
BRANCH  17  19
ATOM     18  C   UNL     1       9.731  11.240  20.294  0.00  0.00    +0.000 C 
ATOM     19  N   UNL     1       9.632  11.734  18.917  0.00  0.00    +0.000 NA
BRANCH  19  20
ATOM     20  C   UNL     1       8.911  13.027  18.868  0.00  0.00    +0.000 C 
BRANCH  20  21
ATOM     21  C   UNL     1       9.668  14.139  18.175  0.00  0.00    +0.000 A 
ATOM     22  C   UNL     1       9.172  15.451  18.161  0.00  0.00    +0.000 A 
ATOM     23  C   UNL     1       9.876  16.466  17.511  0.00  0.00    +0.000 A 
ATOM     24  C   UNL     1      11.083  16.181  16.872  0.00  0.00    +0.000 A 
ATOM     25  C   UNL     1      11.585  14.882  16.879  0.00  0.00    +0.000 A 
ATOM     26  C   UNL     1      10.883  13.866  17.529  0.00  0.00    +0.000 A 
ENDBRANCH  20  21
ENDBRANCH  19  20
ENDBRANCH  17  19
ENDBRANCH  16  17
ENDBRANCH  15  16
ENDBRANCH   1  15
TORSDOF 9
ENDMDL
MODEL 6
REMARK VINA RESULT:      -7.2      3.008      9.266
REMARK  Name = 
REMARK  10 active torsions:
REMARK  status: ('A' for Active; 'I' for Inactive)
REMARK    1  A    between atoms: C_1  and  N_2
REMARK    2  A    between atoms: N_2  and  C_3
REMARK    3  A    between atoms: N_2  and  C_20
REMARK    4  A    between atoms: C_3  and  C_4
REMARK    5  A    between atoms: C_4  and  C_5
REMARK    6  A    between atoms: C_5  and  C_6
REMARK    7  A    between atoms: C_6  and  C_7
REMARK    8  A    between atoms: C_7  and  C_9
REMARK    9  A    between atoms: C_12  and  C_13
REMARK   10  A    between atoms: C_20  and  C_21
REMARK                            x       y       z     vdW  Elec       q    Type
REMARK                         _______ _______ _______ _____ _____    ______ ____
ROOT
ATOM      1  C   UNL     1       2.146   8.484  18.020  0.00  0.00    +0.000 C 
ENDROOT
BRANCH   1   2
ATOM      2  C   UNL     1       1.567   8.930  19.353  0.00  0.00    +0.000 C 
ATOM      3  O   UNL     1       1.857   8.368  20.410  0.00  0.00    +0.000 OA
BRANCH   2   4
ATOM      4  C   UNL     1       0.674  10.065  19.252  0.00  0.00    +0.000 A 
ATOM      5  N   UNL     1       0.912  11.286  19.703  0.00  0.00    +0.000 NA
ATOM      6  C   UNL     1      -0.204  11.992  19.326  0.00  0.00    +0.000 A 
ATOM      7  C   UNL     1      -1.090  11.167  18.669  0.00  0.00    +0.000 A 
ATOM      8  O   UNL     1      -0.535   9.916  18.631  0.00  0.00    +0.000 OA
BRANCH   7   9
ATOM      9  C   UNL     1      -2.363  11.353  18.008  0.00  0.00    +0.000 A 
ATOM     10  C   UNL     1      -3.511  11.730  18.697  0.00  0.00    +0.000 A 
ATOM     11  C   UNL     1      -4.716  11.784  18.005  0.00  0.00    +0.000 A 
ATOM     12  C   UNL     1      -4.736  11.470  16.651  0.00  0.00    +0.000 A 
ATOM     13  C   UNL     1      -3.541  11.131  16.038  0.00  0.00    +0.000 A 
ATOM     14  N   UNL     1      -2.355  11.069  16.682  0.00  0.00    +0.000 NA
ENDBRANCH   7   9
ENDBRANCH   2   4
ENDBRANCH   1   2
BRANCH   1  15
ATOM     15  C   UNL     1       2.857   7.140  18.096  0.00  0.00    +0.000 C 
BRANCH  15  16
ATOM     16  C   UNL     1       4.163   7.115  17.296  0.00  0.00    +0.000 C 
BRANCH  16  17
ATOM     17  C   UNL     1       4.912   5.776  17.403  0.00  0.00    +0.000 C 
BRANCH  17  19
ATOM     18  C   UNL     1       6.523   5.502  19.199  0.00  0.00    +0.000 C 
ATOM     19  N   UNL     1       5.129   5.308  18.786  0.00  0.00    +0.000 NA
BRANCH  19  20
ATOM     20  C   UNL     1       4.746   3.880  18.867  0.00  0.00    +0.000 C 
BRANCH  20  21
ATOM     21  C   UNL     1       3.300   3.641  19.248  0.00  0.00    +0.000 A 
ATOM     22  C   UNL     1       2.697   4.367  20.284  0.00  0.00    +0.000 A 
ATOM     23  C   UNL     1       1.365   4.131  20.630  0.00  0.00    +0.000 A 
ATOM     24  C   UNL     1       0.623   3.170  19.943  0.00  0.00    +0.000 A 
ATOM     25  C   UNL     1       1.213   2.443  18.911  0.00  0.00    +0.000 A 
ATOM     26  C   UNL     1       2.543   2.678  18.564  0.00  0.00    +0.000 A 
ENDBRANCH  20  21
ENDBRANCH  19  20
ENDBRANCH  17  19
ENDBRANCH  16  17
ENDBRANCH  15  16
ENDBRANCH   1  15
TORSDOF 9
ENDMDL
MODEL 7
REMARK VINA RESULT:      -7.2      3.265      9.464
REMARK  Name = 
REMARK  10 active torsions:
REMARK  status: ('A' for Active; 'I' for Inactive)
REMARK    1  A    between atoms: C_1  and  N_2
REMARK    2  A    between atoms: N_2  and  C_3
REMARK    3  A    between atoms: N_2  and  C_20
REMARK    4  A    between atoms: C_3  and  C_4
REMARK    5  A    between atoms: C_4  and  C_5
REMARK    6  A    between atoms: C_5  and  C_6
REMARK    7  A    between atoms: C_6  and  C_7
REMARK    8  A    between atoms: C_7  and  C_9
REMARK    9  A    between atoms: C_12  and  C_13
REMARK   10  A    between atoms: C_20  and  C_21
REMARK                            x       y       z     vdW  Elec       q    Type
REMARK                         _______ _______ _______ _____ _____    ______ ____
ROOT
ATOM      1  C   UNL     1       0.517   3.693  20.080  0.00  0.00    +0.000 C 
ENDROOT
BRANCH   1   2
ATOM      2  C   UNL     1       1.643   4.407  20.810  0.00  0.00    +0.000 C 
ATOM      3  O   UNL     1       2.398   3.816  21.583  0.00  0.00    +0.000 OA
BRANCH   2   4
ATOM      4  C   UNL     1       1.741   5.818  20.496  0.00  0.00    +0.000 A 
ATOM      5  N   UNL     1       2.452   6.350  19.515  0.00  0.00    +0.000 NA
ATOM      6  C   UNL     1       2.178   7.693  19.611  0.00  0.00    +0.000 A 
ATOM      7  C   UNL     1       1.317   7.929  20.660  0.00  0.00    +0.000 A 
ATOM      8  O   UNL     1       1.043   6.723  21.246  0.00  0.00    +0.000 OA
BRANCH   7   9
ATOM      9  C   UNL     1       0.648   9.097  21.190  0.00  0.00    +0.000 A 
ATOM     10  C   UNL     1       0.341   9.230  22.540  0.00  0.00    +0.000 A 
ATOM     11  C   UNL     1      -0.396  10.335  22.950  0.00  0.00    +0.000 A 
ATOM     12  C   UNL     1      -0.795  11.274  22.005  0.00  0.00    +0.000 A 
ATOM     13  C   UNL     1      -0.422  11.076  20.686  0.00  0.00    +0.000 A 
ATOM     14  N   UNL     1       0.293  10.013  20.256  0.00  0.00    +0.000 NA
ENDBRANCH   7   9
ENDBRANCH   2   4
ENDBRANCH   1   2
BRANCH   1  15
ATOM     15  C   UNL     1       0.986   2.463  19.315  0.00  0.00    +0.000 C 
BRANCH  15  16
ATOM     16  C   UNL     1       2.041   2.791  18.253  0.00  0.00    +0.000 C 
BRANCH  16  17
ATOM     17  C   UNL     1       3.219   1.804  18.247  0.00  0.00    +0.000 C 
BRANCH  17  19
ATOM     18  C   UNL     1       4.661   2.140  20.172  0.00  0.00    +0.000 C 
ATOM     19  N   UNL     1       4.493   2.370  18.733  0.00  0.00    +0.000 NA
BRANCH  19  20
ATOM     20  C   UNL     1       4.516   3.818  18.421  0.00  0.00    +0.000 C 
BRANCH  20  21
ATOM     21  C   UNL     1       5.387   4.189  17.241  0.00  0.00    +0.000 A 
ATOM     22  C   UNL     1       6.716   4.597  17.424  0.00  0.00    +0.000 A 
ATOM     23  C   UNL     1       7.506   4.945  16.327  0.00  0.00    +0.000 A 
ATOM     24  C   UNL     1       6.978   4.885  15.037  0.00  0.00    +0.000 A 
ATOM     25  C   UNL     1       5.659   4.482  14.844  0.00  0.00    +0.000 A 
ATOM     26  C   UNL     1       4.868   4.133  15.939  0.00  0.00    +0.000 A 
ENDBRANCH  20  21
ENDBRANCH  19  20
ENDBRANCH  17  19
ENDBRANCH  16  17
ENDBRANCH  15  16
ENDBRANCH   1  15
TORSDOF 9
ENDMDL
MODEL 8
REMARK VINA RESULT:      -7.2      2.312      2.958
REMARK  Name = 
REMARK  10 active torsions:
REMARK  status: ('A' for Active; 'I' for Inactive)
REMARK    1  A    between atoms: C_1  and  N_2
REMARK    2  A    between atoms: N_2  and  C_3
REMARK    3  A    between atoms: N_2  and  C_20
REMARK    4  A    between atoms: C_3  and  C_4
REMARK    5  A    between atoms: C_4  and  C_5
REMARK    6  A    between atoms: C_5  and  C_6
REMARK    7  A    between atoms: C_6  and  C_7
REMARK    8  A    between atoms: C_7  and  C_9
REMARK    9  A    between atoms: C_12  and  C_13
REMARK   10  A    between atoms: C_20  and  C_21
REMARK                            x       y       z     vdW  Elec       q    Type
REMARK                         _______ _______ _______ _____ _____    ______ ____
ROOT
ATOM      1  C   UNL     1       2.861   4.934  18.016  0.00  0.00    +0.000 C 
ENDROOT
BRANCH   1   2
ATOM      2  C   UNL     1       4.078   4.234  18.599  0.00  0.00    +0.000 C 
ATOM      3  O   UNL     1       4.020   3.588  19.645  0.00  0.00    +0.000 OA
BRANCH   2   4
ATOM      4  C   UNL     1       5.279   4.392  17.804  0.00  0.00    +0.000 A 
ATOM      5  N   UNL     1       6.515   4.483  18.269  0.00  0.00    +0.000 NA
ATOM      6  C   UNL     1       7.281   4.573  17.134  0.00  0.00    +0.000 A 
ATOM      7  C   UNL     1       6.478   4.547  16.014  0.00  0.00    +0.000 A 
ATOM      8  O   UNL     1       5.181   4.445  16.442  0.00  0.00    +0.000 OA
BRANCH   7   9
ATOM      9  C   UNL     1       6.713   4.544  14.587  0.00  0.00    +0.000 A 
ATOM     10  C   UNL     1       6.040   3.686  13.724  0.00  0.00    +0.000 A 
ATOM     11  C   UNL     1       6.401   3.674  12.382  0.00  0.00    +0.000 A 
ATOM     12  C   UNL     1       7.411   4.521  11.942  0.00  0.00    +0.000 A 
ATOM     13  C   UNL     1       8.010   5.363  12.865  0.00  0.00    +0.000 A 
ATOM     14  N   UNL     1       7.683   5.398  14.176  0.00  0.00    +0.000 NA
ENDBRANCH   7   9
ENDBRANCH   2   4
ENDBRANCH   1   2
BRANCH   1  15
ATOM     15  C   UNL     1       2.399   6.123  18.849  0.00  0.00    +0.000 C 
BRANCH  15  16
ATOM     16  C   UNL     1       2.784   7.468  18.225  0.00  0.00    +0.000 C 
BRANCH  16  17
ATOM     17  C   UNL     1       1.569   8.290  17.765  0.00  0.00    +0.000 C 
BRANCH  17  19
ATOM     18  C   UNL     1       2.008  10.631  18.240  0.00  0.00    +0.000 C 
ATOM     19  N   UNL     1       1.247   9.440  18.633  0.00  0.00    +0.000 NA
BRANCH  19  20
ATOM     20  C   UNL     1       1.533   9.068  20.037  0.00  0.00    +0.000 C 
BRANCH  20  21
ATOM     21  C   UNL     1       0.607   9.701  21.054  0.00  0.00    +0.000 A 
ATOM     22  C   UNL     1       0.498   9.184  22.352  0.00  0.00    +0.000 A 
ATOM     23  C   UNL     1      -0.366   9.772  23.277  0.00  0.00    +0.000 A 
ATOM     24  C   UNL     1      -1.127  10.884  22.915  0.00  0.00    +0.000 A 
ATOM     25  C   UNL     1      -1.026  11.406  21.627  0.00  0.00    +0.000 A 
ATOM     26  C   UNL     1      -0.163  10.819  20.702  0.00  0.00    +0.000 A 
ENDBRANCH  20  21
ENDBRANCH  19  20
ENDBRANCH  17  19
ENDBRANCH  16  17
ENDBRANCH  15  16
ENDBRANCH   1  15
TORSDOF 9
ENDMDL
MODEL 9
REMARK VINA RESULT:      -7.2      5.760      8.241
REMARK  Name = 
REMARK  10 active torsions:
REMARK  status: ('A' for Active; 'I' for Inactive)
REMARK    1  A    between atoms: C_1  and  N_2
REMARK    2  A    between atoms: N_2  and  C_3
REMARK    3  A    between atoms: N_2  and  C_20
REMARK    4  A    between atoms: C_3  and  C_4
REMARK    5  A    between atoms: C_4  and  C_5
REMARK    6  A    between atoms: C_5  and  C_6
REMARK    7  A    between atoms: C_6  and  C_7
REMARK    8  A    between atoms: C_7  and  C_9
REMARK    9  A    between atoms: C_12  and  C_13
REMARK   10  A    between atoms: C_20  and  C_21
REMARK                            x       y       z     vdW  Elec       q    Type
REMARK                         _______ _______ _______ _____ _____    ______ ____
ROOT
ATOM      1  C   UNL     1       7.904   8.760  17.813  0.00  0.00    +0.000 C 
ENDROOT
BRANCH   1   2
ATOM      2  C   UNL     1       7.647   7.300  18.148  0.00  0.00    +0.000 C 
ATOM      3  O   UNL     1       8.322   6.693  18.980  0.00  0.00    +0.000 OA
BRANCH   2   4
ATOM      4  C   UNL     1       6.542   6.717  17.414  0.00  0.00    +0.000 A 
ATOM      5  N   UNL     1       6.299   6.868  16.122  0.00  0.00    +0.000 NA
ATOM      6  C   UNL     1       5.185   6.093  15.911  0.00  0.00    +0.000 A 
ATOM      7  C   UNL     1       4.783   5.507  17.092  0.00  0.00    +0.000 A 
ATOM      8  O   UNL     1       5.648   5.919  18.070  0.00  0.00    +0.000 OA
BRANCH   7   9
ATOM      9  C   UNL     1       3.748   4.569  17.466  0.00  0.00    +0.000 A 
ATOM     10  C   UNL     1       2.484   4.980  17.876  0.00  0.00    +0.000 A 
ATOM     11  C   UNL     1       1.582   4.019  18.319  0.00  0.00    +0.000 A 
ATOM     12  C   UNL     1       1.965   2.683  18.332  0.00  0.00    +0.000 A 
ATOM     13  C   UNL     1       3.234   2.359  17.881  0.00  0.00    +0.000 A 
ATOM     14  N   UNL     1       4.132   3.269  17.445  0.00  0.00    +0.000 NA
ENDBRANCH   7   9
ENDBRANCH   2   4
ENDBRANCH   1   2
BRANCH   1  15
ATOM     15  C   UNL     1       8.763   9.470  18.851  0.00  0.00    +0.000 C 
BRANCH  15  16
ATOM     16  C   UNL     1       9.586  10.616  18.255  0.00  0.00    +0.000 C 
BRANCH  16  17
ATOM     17  C   UNL     1       8.728  11.822  17.839  0.00  0.00    +0.000 C 
BRANCH  17  19
ATOM     18  C   UNL     1       8.958  14.219  18.155  0.00  0.00    +0.000 C 
ATOM     19  N   UNL     1       8.719  12.930  18.814  0.00  0.00    +0.000 NA
BRANCH  19  20
ATOM     20  C   UNL     1       9.748  12.662  19.844  0.00  0.00    +0.000 C 
BRANCH  20  21
ATOM     21  C   UNL     1       9.243  12.741  21.268  0.00  0.00    +0.000 A 
ATOM     22  C   UNL     1       8.640  11.635  21.883  0.00  0.00    +0.000 A 
ATOM     23  C   UNL     1       8.171  11.725  23.195  0.00  0.00    +0.000 A 
ATOM     24  C   UNL     1       8.304  12.918  23.906  0.00  0.00    +0.000 A 
ATOM     25  C   UNL     1       8.902  14.023  23.304  0.00  0.00    +0.000 A 
ATOM     26  C   UNL     1       9.371  13.935  21.994  0.00  0.00    +0.000 A 
ENDBRANCH  20  21
ENDBRANCH  19  20
ENDBRANCH  17  19
ENDBRANCH  16  17
ENDBRANCH  15  16
ENDBRANCH   1  15
TORSDOF 9
ENDMDL
