MODEL 1
REMARK VINA RESULT:      -8.4      0.000      0.000
REMARK  Name = 
REMARK  6 active torsions:
REMARK  status: ('A' for Active; 'I' for Inactive)
REMARK    1  A    between atoms: C_1  and  C_2
REMARK    2  A    between atoms: N_4  and  C_5
REMARK    3  A    between atoms: C_8  and  O_9
REMARK    4  A    between atoms: O_9  and  C_10
REMARK    5  A    between atoms: C_10  and  C_11
REMARK    6  A    between atoms: C_18  and  N_19
REMARK                            x       y       z     vdW  Elec       q    Type
REMARK                         _______ _______ _______ _____ _____    ______ ____
ROOT
ATOM      1  C   UNL     1       5.658   6.463  17.086  0.00  0.00    +0.000 A 
ATOM      2  C   UNL     1       4.358   6.639  17.566  0.00  0.00    +0.000 A 
ATOM      3  C   UNL     1       3.424   5.610  17.549  0.00  0.00    +0.000 A 
ATOM      4  C   UNL     1       3.738   4.380  16.985  0.00  0.00    +0.000 A 
ATOM      5  C   UNL     1       5.029   4.155  16.514  0.00  0.00    +0.000 A 
ATOM      6  C   UNL     1       5.988   5.192  16.555  0.00  0.00    +0.000 A 
ENDROOT
BRANCH   1  10
ATOM      7  C   UNL     1       8.330   9.027  17.863  0.00  0.00    +0.000 C 
ATOM      8  C   UNL     1       7.656   7.688  17.959  0.00  0.00    +0.000 C 
ATOM      9  O   UNL     1       8.095   6.833  18.721  0.00  0.00    +0.000 OA
ATOM     10  N   UNL     1       6.564   7.558  17.113  0.00  0.00    +0.000 N 
ATOM     11  H   UNL     1       6.477   8.241  16.361  0.00  0.00    +0.000 HD
ENDBRANCH   1  10
BRANCH   6  12
ATOM     12  N   UNL     1       7.330   4.893  16.033  0.00  0.00    +0.000 N 
ATOM     13  O   UNL     1       7.641   5.359  14.924  0.00  0.00    +0.000 OA
ATOM     14  O   UNL     1       8.078   4.184  16.719  0.00  0.00    +0.000 OA
ENDBRANCH   6  12
BRANCH   4  15
ATOM     15  O   UNL     1       2.837   3.360  16.835  0.00  0.00    +0.000 OA
BRANCH  15  16
ATOM     16  C   UNL     1       3.046   2.263  17.735  0.00  0.00    +0.000 C 
BRANCH  16  17
ATOM     17  C   UNL     1       2.545   2.541  19.127  0.00  0.00    +0.000 A 
ATOM     18  C   UNL     1       3.347   2.403  20.262  0.00  0.00    +0.000 A 
ATOM     19  C   UNL     1       2.815   2.634  21.531  0.00  0.00    +0.000 A 
ATOM     20  C   UNL     1       1.481   3.011  21.674  0.00  0.00    +0.000 A 
ATOM     21  C   UNL     1       0.679   3.167  20.551  0.00  0.00    +0.000 A 
ATOM     22  C   UNL     1       1.203   2.936  19.282  0.00  0.00    +0.000 A 
ENDBRANCH  16  17
ENDBRANCH  15  16
ENDBRANCH   4  15
TORSDOF 5
ENDMDL
MODEL 2
REMARK VINA RESULT:      -8.4      0.144      1.258
REMARK  Name = 
REMARK  6 active torsions:
REMARK  status: ('A' for Active; 'I' for Inactive)
REMARK    1  A    between atoms: C_1  and  C_2
REMARK    2  A    between atoms: N_4  and  C_5
REMARK    3  A    between atoms: C_8  and  O_9
REMARK    4  A    between atoms: O_9  and  C_10
REMARK    5  A    between atoms: C_10  and  C_11
REMARK    6  A    between atoms: C_18  and  N_19
REMARK                            x       y       z     vdW  Elec       q    Type
REMARK                         _______ _______ _______ _____ _____    ______ ____
ROOT
ATOM      1  C   UNL     1       5.588   6.380  17.083  0.00  0.00    +0.000 A 
ATOM      2  C   UNL     1       4.303   6.545  17.606  0.00  0.00    +0.000 A 
ATOM      3  C   UNL     1       3.360   5.525  17.570  0.00  0.00    +0.000 A 
ATOM      4  C   UNL     1       3.648   4.317  16.947  0.00  0.00    +0.000 A 
ATOM      5  C   UNL     1       4.923   4.103  16.431  0.00  0.00    +0.000 A 
ATOM      6  C   UNL     1       5.893   5.129  16.490  0.00  0.00    +0.000 A 
ENDROOT
BRANCH   1  10
ATOM      7  C   UNL     1       8.287   8.900  17.909  0.00  0.00    +0.000 C 
ATOM      8  C   UNL     1       7.601   7.566  17.977  0.00  0.00    +0.000 C 
ATOM      9  O   UNL     1       8.036   6.688  18.716  0.00  0.00    +0.000 OA
ATOM     10  N   UNL     1       6.505   7.466  17.132  0.00  0.00    +0.000 N 
ATOM     11  H   UNL     1       6.420   8.167  16.397  0.00  0.00    +0.000 HD
ENDBRANCH   1  10
BRANCH   6  12
ATOM     12  N   UNL     1       7.217   4.843  15.919  0.00  0.00    +0.000 N 
ATOM     13  O   UNL     1       7.995   4.134  16.578  0.00  0.00    +0.000 OA
ATOM     14  O   UNL     1       7.494   5.333  14.816  0.00  0.00    +0.000 OA
ENDBRANCH   6  12
BRANCH   4  15
ATOM     15  O   UNL     1       2.733   3.312  16.777  0.00  0.00    +0.000 OA
BRANCH  15  16
ATOM     16  C   UNL     1       2.922   2.200  17.665  0.00  0.00    +0.000 C 
BRANCH  16  17
ATOM     17  C   UNL     1       2.435   2.475  19.062  0.00  0.00    +0.000 A 
ATOM     18  C   UNL     1       1.127   2.876  19.342  0.00  0.00    +0.000 A 
ATOM     19  C   UNL     1       0.743   3.157  20.654  0.00  0.00    +0.000 A 
ATOM     20  C   UNL     1       1.663   3.035  21.695  0.00  0.00    +0.000 A 
ATOM     21  C   UNL     1       2.962   2.622  21.429  0.00  0.00    +0.000 A 
ATOM     22  C   UNL     1       3.351   2.341  20.121  0.00  0.00    +0.000 A 
ENDBRANCH  16  17
ENDBRANCH  15  16
ENDBRANCH   4  15
TORSDOF 5
ENDMDL
MODEL 3
REMARK VINA RESULT:      -7.3      2.029      3.110
REMARK  Name = 
REMARK  6 active torsions:
REMARK  status: ('A' for Active; 'I' for Inactive)
REMARK    1  A    between atoms: C_1  and  C_2
REMARK    2  A    between atoms: N_4  and  C_5
REMARK    3  A    between atoms: C_8  and  O_9
REMARK    4  A    between atoms: O_9  and  C_10
REMARK    5  A    between atoms: C_10  and  C_11
REMARK    6  A    between atoms: C_18  and  N_19
REMARK                            x       y       z     vdW  Elec       q    Type
REMARK                         _______ _______ _______ _____ _____    ______ ____
ROOT
ATOM      1  C   UNL     1       6.043   5.971  16.454  0.00  0.00    +0.000 A 
ATOM      2  C   UNL     1       4.806   6.613  16.353  0.00  0.00    +0.000 A 
ATOM      3  C   UNL     1       3.984   6.799  17.458  0.00  0.00    +0.000 A 
ATOM      4  C   UNL     1       4.341   6.286  18.699  0.00  0.00    +0.000 A 
ATOM      5  C   UNL     1       5.574   5.656  18.847  0.00  0.00    +0.000 A 
ATOM      6  C   UNL     1       6.423   5.490  17.731  0.00  0.00    +0.000 A 
ENDROOT
BRANCH   1  10
ATOM      7  C   UNL     1       7.665   4.835  13.229  0.00  0.00    +0.000 C 
ATOM      8  C   UNL     1       6.566   4.909  14.250  0.00  0.00    +0.000 C 
ATOM      9  O   UNL     1       5.549   4.237  14.108  0.00  0.00    +0.000 OA
ATOM     10  N   UNL     1       6.832   5.794  15.284  0.00  0.00    +0.000 N 
ATOM     11  H   UNL     1       7.585   6.467  15.137  0.00  0.00    +0.000 HD
ENDBRANCH   1  10
BRANCH   6  12
ATOM     12  N   UNL     1       7.708   4.809  17.952  0.00  0.00    +0.000 N 
ATOM     13  O   UNL     1       8.158   4.101  17.036  0.00  0.00    +0.000 OA
ATOM     14  O   UNL     1       8.269   4.966  19.044  0.00  0.00    +0.000 OA
ENDBRANCH   6  12
BRANCH   4  15
ATOM     15  O   UNL     1       3.532   6.334  19.803  0.00  0.00    +0.000 OA
BRANCH  15  16
ATOM     16  C   UNL     1       2.143   6.119  19.514  0.00  0.00    +0.000 C 
BRANCH  16  17
ATOM     17  C   UNL     1       1.735   4.676  19.632  0.00  0.00    +0.000 A 
ATOM     18  C   UNL     1       1.607   4.023  20.860  0.00  0.00    +0.000 A 
ATOM     19  C   UNL     1       1.267   2.671  20.906  0.00  0.00    +0.000 A 
ATOM     20  C   UNL     1       1.047   1.963  19.726  0.00  0.00    +0.000 A 
ATOM     21  C   UNL     1       1.158   2.606  18.499  0.00  0.00    +0.000 A 
ATOM     22  C   UNL     1       1.498   3.955  18.447  0.00  0.00    +0.000 A 
ENDBRANCH  16  17
ENDBRANCH  15  16
ENDBRANCH   4  15
TORSDOF 5
ENDMDL
MODEL 4
REMARK VINA RESULT:      -7.2      2.027      3.187
REMARK  Name = 
REMARK  6 active torsions:
REMARK  status: ('A' for Active; 'I' for Inactive)
REMARK    1  A    between atoms: C_1  and  C_2
REMARK    2  A    between atoms: N_4  and  C_5
REMARK    3  A    between atoms: C_8  and  O_9
REMARK    4  A    between atoms: O_9  and  C_10
REMARK    5  A    between atoms: C_10  and  C_11
REMARK    6  A    between atoms: C_18  and  N_19
REMARK                            x       y       z     vdW  Elec       q    Type
REMARK                         _______ _______ _______ _____ _____    ______ ____
ROOT
ATOM      1  C   UNL     1       6.009   5.963  16.453  0.00  0.00    +0.000 A 
ATOM      2  C   UNL     1       4.777   6.615  16.369  0.00  0.00    +0.000 A 
ATOM      3  C   UNL     1       3.968   6.803  17.483  0.00  0.00    +0.000 A 
ATOM      4  C   UNL     1       4.335   6.283  18.718  0.00  0.00    +0.000 A 
ATOM      5  C   UNL     1       5.565   5.644  18.851  0.00  0.00    +0.000 A 
ATOM      6  C   UNL     1       6.401   5.476  17.725  0.00  0.00    +0.000 A 
ENDROOT
BRANCH   1  10
ATOM      7  C   UNL     1       7.601   4.814  13.218  0.00  0.00    +0.000 C 
ATOM      8  C   UNL     1       6.515   4.885  14.254  0.00  0.00    +0.000 C 
ATOM      9  O   UNL     1       5.505   4.199  14.133  0.00  0.00    +0.000 OA
ATOM     10  N   UNL     1       6.785   5.785  15.275  0.00  0.00    +0.000 N 
ATOM     11  H   UNL     1       7.526   6.465  15.110  0.00  0.00    +0.000 HD
ENDBRANCH   1  10
BRANCH   6  12
ATOM     12  N   UNL     1       7.682   4.784  17.930  0.00  0.00    +0.000 N 
ATOM     13  O   UNL     1       8.130   4.098  16.996  0.00  0.00    +0.000 OA
ATOM     14  O   UNL     1       8.244   4.913  19.025  0.00  0.00    +0.000 OA
ENDBRANCH   6  12
BRANCH   4  15
ATOM     15  O   UNL     1       3.539   6.334  19.831  0.00  0.00    +0.000 OA
BRANCH  15  16
ATOM     16  C   UNL     1       2.148   6.105  19.561  0.00  0.00    +0.000 C 
BRANCH  16  17
ATOM     17  C   UNL     1       1.775   4.648  19.600  0.00  0.00    +0.000 A 
ATOM     18  C   UNL     1       1.483   3.910  18.451  0.00  0.00    +0.000 A 
ATOM     19  C   UNL     1       1.102   2.571  18.552  0.00  0.00    +0.000 A 
ATOM     20  C   UNL     1       1.014   1.960  19.802  0.00  0.00    +0.000 A 
ATOM     21  C   UNL     1       1.317   2.680  20.950  0.00  0.00    +0.000 A 
ATOM     22  C   UNL     1       1.697   4.016  20.856  0.00  0.00    +0.000 A 
ENDBRANCH  16  17
ENDBRANCH  15  16
ENDBRANCH   4  15
TORSDOF 5
ENDMDL
MODEL 5
REMARK VINA RESULT:      -7.2      2.382      7.614
REMARK  Name = 
REMARK  6 active torsions:
REMARK  status: ('A' for Active; 'I' for Inactive)
REMARK    1  A    between atoms: C_1  and  C_2
REMARK    2  A    between atoms: N_4  and  C_5
REMARK    3  A    between atoms: C_8  and  O_9
REMARK    4  A    between atoms: O_9  and  C_10
REMARK    5  A    between atoms: C_10  and  C_11
REMARK    6  A    between atoms: C_18  and  N_19
REMARK                            x       y       z     vdW  Elec       q    Type
REMARK                         _______ _______ _______ _____ _____    ______ ____
ROOT
ATOM      1  C   UNL     1       6.060   4.751  17.830  0.00  0.00    +0.000 A 
ATOM      2  C   UNL     1       6.764   4.844  19.033  0.00  0.00    +0.000 A 
ATOM      3  C   UNL     1       7.580   5.931  19.323  0.00  0.00    +0.000 A 
ATOM      4  C   UNL     1       7.776   6.938  18.387  0.00  0.00    +0.000 A 
ATOM      5  C   UNL     1       7.078   6.895  17.183  0.00  0.00    +0.000 A 
ATOM      6  C   UNL     1       6.227   5.804  16.897  0.00  0.00    +0.000 A 
ENDROOT
BRANCH   1  10
ATOM      7  C   UNL     1       3.467   1.996  17.802  0.00  0.00    +0.000 C 
ATOM      8  C   UNL     1       4.001   3.363  18.123  0.00  0.00    +0.000 C 
ATOM      9  O   UNL     1       3.328   4.145  18.788  0.00  0.00    +0.000 OA
ATOM     10  N   UNL     1       5.255   3.606  17.582  0.00  0.00    +0.000 N 
ATOM     11  H   UNL     1       5.573   2.976  16.846  0.00  0.00    +0.000 HD
ENDBRANCH   1  10
BRANCH   6  12
ATOM     12  N   UNL     1       5.525   5.813  15.604  0.00  0.00    +0.000 N 
ATOM     13  O   UNL     1       5.043   6.888  15.210  0.00  0.00    +0.000 OA
ATOM     14  O   UNL     1       5.441   4.747  14.980  0.00  0.00    +0.000 OA
ENDBRANCH   6  12
BRANCH   4  15
ATOM     15  O   UNL     1       8.649   7.979  18.561  0.00  0.00    +0.000 OA
BRANCH  15  16
ATOM     16  C   UNL     1       8.237   9.195  17.919  0.00  0.00    +0.000 C 
BRANCH  16  17
ATOM     17  C   UNL     1       8.888  10.418  18.506  0.00  0.00    +0.000 A 
ATOM     18  C   UNL     1       8.957  11.638  17.830  0.00  0.00    +0.000 A 
ATOM     19  C   UNL     1       9.610  12.727  18.407  0.00  0.00    +0.000 A 
ATOM     20  C   UNL     1      10.195  12.606  19.667  0.00  0.00    +0.000 A 
ATOM     21  C   UNL     1      10.118  11.402  20.356  0.00  0.00    +0.000 A 
ATOM     22  C   UNL     1       9.469  10.311  19.784  0.00  0.00    +0.000 A 
ENDBRANCH  16  17
ENDBRANCH  15  16
ENDBRANCH   4  15
TORSDOF 5
ENDMDL
MODEL 6
REMARK VINA RESULT:      -7.2      2.423      7.602
REMARK  Name = 
REMARK  6 active torsions:
REMARK  status: ('A' for Active; 'I' for Inactive)
REMARK    1  A    between atoms: C_1  and  C_2
REMARK    2  A    between atoms: N_4  and  C_5
REMARK    3  A    between atoms: C_8  and  O_9
REMARK    4  A    between atoms: O_9  and  C_10
REMARK    5  A    between atoms: C_10  and  C_11
REMARK    6  A    between atoms: C_18  and  N_19
REMARK                            x       y       z     vdW  Elec       q    Type
REMARK                         _______ _______ _______ _____ _____    ______ ____
ROOT
ATOM      1  C   UNL     1       5.971   4.733  17.862  0.00  0.00    +0.000 A 
ATOM      2  C   UNL     1       6.629   4.792  19.093  0.00  0.00    +0.000 A 
ATOM      3  C   UNL     1       7.489   5.835  19.416  0.00  0.00    +0.000 A 
ATOM      4  C   UNL     1       7.777   6.827  18.487  0.00  0.00    +0.000 A 
ATOM      5  C   UNL     1       7.127   6.817  17.255  0.00  0.00    +0.000 A 
ATOM      6  C   UNL     1       6.232   5.772  16.935  0.00  0.00    +0.000 A 
ENDROOT
BRANCH   1  10
ATOM      7  C   UNL     1       3.420   1.938  17.885  0.00  0.00    +0.000 C 
ATOM      8  C   UNL     1       4.032   3.231  18.347  0.00  0.00    +0.000 C 
ATOM      9  O   UNL     1       3.552   3.830  19.305  0.00  0.00    +0.000 OA
ATOM     10  N   UNL     1       5.117   3.631  17.581  0.00  0.00    +0.000 N 
ATOM     11  H   UNL     1       5.237   3.181  16.675  0.00  0.00    +0.000 HD
ENDBRANCH   1  10
BRANCH   6  12
ATOM     12  N   UNL     1       5.586   5.815  15.615  0.00  0.00    +0.000 N 
ATOM     13  O   UNL     1       5.106   6.896  15.235  0.00  0.00    +0.000 OA
ATOM     14  O   UNL     1       5.543   4.769  14.954  0.00  0.00    +0.000 OA
ENDBRANCH   6  12
BRANCH   4  15
ATOM     15  O   UNL     1       8.696   7.821  18.696  0.00  0.00    +0.000 OA
BRANCH  15  16
ATOM     16  C   UNL     1       8.300   9.097  18.172  0.00  0.00    +0.000 C 
BRANCH  16  17
ATOM     17  C   UNL     1       9.097  10.238  18.743  0.00  0.00    +0.000 A 
ATOM     18  C   UNL     1       9.254  10.440  20.116  0.00  0.00    +0.000 A 
ATOM     19  C   UNL     1       9.970  11.541  20.588  0.00  0.00    +0.000 A 
ATOM     20  C   UNL     1      10.538  12.444  19.691  0.00  0.00    +0.000 A 
ATOM     21  C   UNL     1      10.402  12.244  18.323  0.00  0.00    +0.000 A 
ATOM     22  C   UNL     1       9.688  11.148  17.846  0.00  0.00    +0.000 A 
ENDBRANCH  16  17
ENDBRANCH  15  16
ENDBRANCH   4  15
TORSDOF 5
ENDMDL
MODEL 7
REMARK VINA RESULT:      -7.1      0.959      1.549
REMARK  Name = 
REMARK  6 active torsions:
REMARK  status: ('A' for Active; 'I' for Inactive)
REMARK    1  A    between atoms: C_1  and  C_2
REMARK    2  A    between atoms: N_4  and  C_5
REMARK    3  A    between atoms: C_8  and  O_9
REMARK    4  A    between atoms: O_9  and  C_10
REMARK    5  A    between atoms: C_10  and  C_11
REMARK    6  A    between atoms: C_18  and  N_19
REMARK                            x       y       z     vdW  Elec       q    Type
REMARK                         _______ _______ _______ _____ _____    ______ ____
ROOT
ATOM      1  C   UNL     1       5.625   6.267  17.883  0.00  0.00    +0.000 A 
ATOM      2  C   UNL     1       4.259   6.472  17.678  0.00  0.00    +0.000 A 
ATOM      3  C   UNL     1       3.395   5.424  17.386  0.00  0.00    +0.000 A 
ATOM      4  C   UNL     1       3.880   4.133  17.221  0.00  0.00    +0.000 A 
ATOM      5  C   UNL     1       5.232   3.880  17.436  0.00  0.00    +0.000 A 
ATOM      6  C   UNL     1       6.108   4.941  17.759  0.00  0.00    +0.000 A 
ENDROOT
BRANCH   1  10
ATOM      7  C   UNL     1       8.353   8.883  18.062  0.00  0.00    +0.000 C 
ATOM      8  C   UNL     1       7.580   7.759  17.432  0.00  0.00    +0.000 C 
ATOM      9  O   UNL     1       7.950   7.284  16.362  0.00  0.00    +0.000 OA
ATOM     10  N   UNL     1       6.463   7.382  18.161  0.00  0.00    +0.000 N 
ATOM     11  H   UNL     1       6.137   8.028  18.880  0.00  0.00    +0.000 HD
ENDBRANCH   1  10
BRANCH   6  12
ATOM     12  N   UNL     1       7.526   4.609  17.965  0.00  0.00    +0.000 N 
ATOM     13  O   UNL     1       8.155   4.121  17.011  0.00  0.00    +0.000 OA
ATOM     14  O   UNL     1       8.018   4.823  19.081  0.00  0.00    +0.000 OA
ENDBRANCH   6  12
BRANCH   4  15
ATOM     15  O   UNL     1       3.107   3.074  16.826  0.00  0.00    +0.000 OA
BRANCH  15  16
ATOM     16  C   UNL     1       3.073   1.995  17.771  0.00  0.00    +0.000 C 
BRANCH  16  17
ATOM     17  C   UNL     1       2.440   2.380  19.080  0.00  0.00    +0.000 A 
ATOM     18  C   UNL     1       1.119   2.822  19.181  0.00  0.00    +0.000 A 
ATOM     19  C   UNL     1       0.598   3.206  20.417  0.00  0.00    +0.000 A 
ATOM     20  C   UNL     1       1.393   3.147  21.561  0.00  0.00    +0.000 A 
ATOM     21  C   UNL     1       2.703   2.695  21.475  0.00  0.00    +0.000 A 
ATOM     22  C   UNL     1       3.229   2.312  20.244  0.00  0.00    +0.000 A 
ENDBRANCH  16  17
ENDBRANCH  15  16
ENDBRANCH   4  15
TORSDOF 5
ENDMDL
MODEL 8
REMARK VINA RESULT:      -7.0      3.152      6.714
REMARK  Name = 
REMARK  6 active torsions:
REMARK  status: ('A' for Active; 'I' for Inactive)
REMARK    1  A    between atoms: C_1  and  C_2
REMARK    2  A    between atoms: N_4  and  C_5
REMARK    3  A    between atoms: C_8  and  O_9
REMARK    4  A    between atoms: O_9  and  C_10
REMARK    5  A    between atoms: C_10  and  C_11
REMARK    6  A    between atoms: C_18  and  N_19
REMARK                            x       y       z     vdW  Elec       q    Type
REMARK                         _______ _______ _______ _____ _____    ______ ____
ROOT
ATOM      1  C   UNL     1       3.014   4.448  19.190  0.00  0.00    +0.000 A 
ATOM      2  C   UNL     1       3.540   5.738  19.292  0.00  0.00    +0.000 A 
ATOM      3  C   UNL     1       4.397   6.259  18.329  0.00  0.00    +0.000 A 
ATOM      4  C   UNL     1       4.813   5.480  17.257  0.00  0.00    +0.000 A 
ATOM      5  C   UNL     1       4.296   4.196  17.106  0.00  0.00    +0.000 A 
ATOM      6  C   UNL     1       3.404   3.674  18.070  0.00  0.00    +0.000 A 
ENDROOT
BRANCH   1  10
ATOM      7  C   UNL     1       1.318   2.579  22.009  0.00  0.00    +0.000 C 
ATOM      8  C   UNL     1       2.482   2.999  21.157  0.00  0.00    +0.000 C 
ATOM      9  O   UNL     1       3.590   2.507  21.346  0.00  0.00    +0.000 OA
ATOM     10  N   UNL     1       2.156   3.964  20.215  0.00  0.00    +0.000 N 
ATOM     11  H   UNL     1       1.275   4.461  20.346  0.00  0.00    +0.000 HD
ENDBRANCH   1  10
BRANCH   6  12
ATOM     12  N   UNL     1       2.901   2.308  17.858  0.00  0.00    +0.000 N 
ATOM     13  O   UNL     1       1.699   2.167  17.577  0.00  0.00    +0.000 OA
ATOM     14  O   UNL     1       3.698   1.369  17.980  0.00  0.00    +0.000 OA
ENDBRANCH   6  12
BRANCH   4  15
ATOM     15  O   UNL     1       5.738   5.888  16.334  0.00  0.00    +0.000 OA
BRANCH  15  16
ATOM     16  C   UNL     1       6.714   4.888  16.008  0.00  0.00    +0.000 C 
BRANCH  16  17
ATOM     17  C   UNL     1       6.851   4.662  14.527  0.00  0.00    +0.000 A 
ATOM     18  C   UNL     1       7.729   5.397  13.727  0.00  0.00    +0.000 A 
ATOM     19  C   UNL     1       7.783   5.173  12.351  0.00  0.00    +0.000 A 
ATOM     20  C   UNL     1       6.963   4.208  11.766  0.00  0.00    +0.000 A 
ATOM     21  C   UNL     1       6.098   3.461  12.555  0.00  0.00    +0.000 A 
ATOM     22  C   UNL     1       6.039   3.681  13.928  0.00  0.00    +0.000 A 
ENDBRANCH  16  17
ENDBRANCH  15  16
ENDBRANCH   4  15
TORSDOF 5
ENDMDL
MODEL 9
REMARK VINA RESULT:      -7.0      0.955      1.157
REMARK  Name = 
REMARK  6 active torsions:
REMARK  status: ('A' for Active; 'I' for Inactive)
REMARK    1  A    between atoms: C_1  and  C_2
REMARK    2  A    between atoms: N_4  and  C_5
REMARK    3  A    between atoms: C_8  and  O_9
REMARK    4  A    between atoms: O_9  and  C_10
REMARK    5  A    between atoms: C_10  and  C_11
REMARK    6  A    between atoms: C_18  and  N_19
REMARK                            x       y       z     vdW  Elec       q    Type
REMARK                         _______ _______ _______ _____ _____    ______ ____
ROOT
ATOM      1  C   UNL     1       5.927   5.861  18.155  0.00  0.00    +0.000 A 
ATOM      2  C   UNL     1       4.608   6.092  18.552  0.00  0.00    +0.000 A 
ATOM      3  C   UNL     1       3.566   5.262  18.157  0.00  0.00    +0.000 A 
ATOM      4  C   UNL     1       3.798   4.202  17.289  0.00  0.00    +0.000 A 
ATOM      5  C   UNL     1       5.101   3.924  16.885  0.00  0.00    +0.000 A 
ATOM      6  C   UNL     1       6.165   4.751  17.308  0.00  0.00    +0.000 A 
ENDROOT
BRANCH   1  10
ATOM      7  C   UNL     1       8.634   8.484  18.487  0.00  0.00    +0.000 C 
ATOM      8  C   UNL     1       7.451   7.819  17.843  0.00  0.00    +0.000 C 
ATOM      9  O   UNL     1       7.012   8.244  16.778  0.00  0.00    +0.000 OA
ATOM     10  N   UNL     1       6.949   6.755  18.577  0.00  0.00    +0.000 N 
ATOM     11  H   UNL     1       7.243   6.684  19.551  0.00  0.00    +0.000 HD
ENDBRANCH   1  10
BRANCH   6  12
ATOM     12  N   UNL     1       7.517   4.408  16.839  0.00  0.00    +0.000 N 
ATOM     13  O   UNL     1       8.353   4.049  17.684  0.00  0.00    +0.000 OA
ATOM     14  O   UNL     1       7.754   4.506  15.628  0.00  0.00    +0.000 OA
ENDBRANCH   6  12
BRANCH   4  15
ATOM     15  O   UNL     1       2.806   3.413  16.772  0.00  0.00    +0.000 OA
BRANCH  15  16
ATOM     16  C   UNL     1       2.573   2.210  17.518  0.00  0.00    +0.000 C 
BRANCH  16  17
ATOM     17  C   UNL     1       2.311   2.466  18.977  0.00  0.00    +0.000 A 
ATOM     18  C   UNL     1       3.264   2.230  19.970  0.00  0.00    +0.000 A 
ATOM     19  C   UNL     1       2.950   2.446  21.313  0.00  0.00    +0.000 A 
ATOM     20  C   UNL     1       1.683   2.904  21.671  0.00  0.00    +0.000 A 
ATOM     21  C   UNL     1       0.732   3.156  20.690  0.00  0.00    +0.000 A 
ATOM     22  C   UNL     1       1.039   2.941  19.349  0.00  0.00    +0.000 A 
ENDBRANCH  16  17
ENDBRANCH  15  16
ENDBRANCH   4  15
TORSDOF 5
ENDMDL
