MODEL 1
REMARK VINA RESULT:      -6.2      0.000      0.000
REMARK  Name = 
REMARK  7 active torsions:
REMARK  status: ('A' for Active; 'I' for Inactive)
REMARK    1  A    between atoms: C_1  and  C_2
REMARK    2  A    between atoms: C_2  and  C_3
REMARK    3  A    between atoms: C_3  and  C_4
REMARK    4  A    between atoms: C_3  and  N_6
REMARK    5  A    between atoms: C_4  and  C_5
REMARK    6  A    between atoms: C_8  and  C_9
REMARK    7  A    between atoms: C_9  and  C_11
REMARK                            x       y       z     vdW  Elec       q    Type
REMARK                         _______ _______ _______ _____ _____    ______ ____
ROOT
ATOM      1  N   UNL     1       5.386   4.676  18.175  0.00  0.00    +0.000 N 
ATOM      2  C   UNL     1       4.122   4.840  17.683  0.00  0.00    +0.000 A 
ATOM      3  C   UNL     1       3.294   4.045  18.453  0.00  0.00    +0.000 A 
ATOM      4  C   UNL     1       4.159   3.484  19.416  0.00  0.00    +0.000 A 
ATOM      5  N   UNL     1       5.427   3.855  19.244  0.00  0.00    +0.000 NA
ENDROOT
BRANCH   3   6
ATOM      6  C   UNL     1       1.864   3.850  18.267  0.00  0.00    +0.000 C 
ATOM      7  O   UNL     1       1.295   4.258  17.252  0.00  0.00    +0.000 OA
BRANCH   6   8
ATOM      8  C   UNL     1       1.116   3.065  19.332  0.00  0.00    +0.000 C 
ATOM      9  F   UNL     1       0.454   3.891  20.196  0.00  0.00    +0.000 F 
ATOM     10  F   UNL     1       0.169   2.234  18.812  0.00  0.00    +0.000 F 
ENDBRANCH   6   8
ENDBRANCH   3   6
BRANCH   1  11
ATOM     11  C   UNL     1       6.619   5.271  17.649  0.00  0.00    +0.000 C 
BRANCH  11  13
ATOM     12  C   UNL     1       6.720   4.759  15.126  0.00  0.00    +0.000 C 
ATOM     13  C   UNL     1       7.229   4.414  16.517  0.00  0.00    +0.000 C 
ENDBRANCH  11  13
BRANCH  11  14
ATOM     14  C   UNL     1       6.413   6.760  17.297  0.00  0.00    +0.000 C 
ATOM     15  C   UNL     1       7.591   7.670  17.621  0.00  0.00    +0.000 C 
ENDBRANCH  11  14
ENDBRANCH   1  11
TORSDOF 5
ENDMDL
MODEL 2
REMARK VINA RESULT:      -6.0      3.980      5.967
REMARK  Name = 
REMARK  7 active torsions:
REMARK  status: ('A' for Active; 'I' for Inactive)
REMARK    1  A    between atoms: C_1  and  C_2
REMARK    2  A    between atoms: C_2  and  C_3
REMARK    3  A    between atoms: C_3  and  C_4
REMARK    4  A    between atoms: C_3  and  N_6
REMARK    5  A    between atoms: C_4  and  C_5
REMARK    6  A    between atoms: C_8  and  C_9
REMARK    7  A    between atoms: C_9  and  C_11
REMARK                            x       y       z     vdW  Elec       q    Type
REMARK                         _______ _______ _______ _____ _____    ______ ____
ROOT
ATOM      1  N   UNL     1       4.653   4.485  17.046  0.00  0.00    +0.000 N 
ATOM      2  C   UNL     1       5.499   3.929  16.128  0.00  0.00    +0.000 A 
ATOM      3  C   UNL     1       5.947   4.963  15.329  0.00  0.00    +0.000 A 
ATOM      4  C   UNL     1       5.346   6.111  15.887  0.00  0.00    +0.000 A 
ATOM      5  N   UNL     1       4.554   5.824  16.920  0.00  0.00    +0.000 NA
ENDROOT
BRANCH   3   6
ATOM      6  C   UNL     1       6.827   4.846  14.175  0.00  0.00    +0.000 C 
ATOM      7  O   UNL     1       7.845   5.535  14.080  0.00  0.00    +0.000 OA
BRANCH   6   8
ATOM      8  C   UNL     1       6.482   3.796  13.131  0.00  0.00    +0.000 C 
ATOM      9  F   UNL     1       5.139   3.743  12.893  0.00  0.00    +0.000 F 
ATOM     10  F   UNL     1       7.066   4.037  11.923  0.00  0.00    +0.000 F 
ENDBRANCH   6   8
ENDBRANCH   3   6
BRANCH   1  11
ATOM     11  C   UNL     1       3.883   3.778  18.073  0.00  0.00    +0.000 C 
BRANCH  11  13
ATOM     12  C   UNL     1       4.230   2.346  20.186  0.00  0.00    +0.000 C 
ATOM     13  C   UNL     1       4.730   3.503  19.335  0.00  0.00    +0.000 C 
ENDBRANCH  11  13
BRANCH  11  14
ATOM     14  C   UNL     1       2.532   4.477  18.337  0.00  0.00    +0.000 C 
ATOM     15  C   UNL     1       1.301   3.604  18.137  0.00  0.00    +0.000 C 
ENDBRANCH  11  14
ENDBRANCH   1  11
TORSDOF 5
ENDMDL
MODEL 3
REMARK VINA RESULT:      -6.0      1.192      2.122
REMARK  Name = 
REMARK  7 active torsions:
REMARK  status: ('A' for Active; 'I' for Inactive)
REMARK    1  A    between atoms: C_1  and  C_2
REMARK    2  A    between atoms: C_2  and  C_3
REMARK    3  A    between atoms: C_3  and  C_4
REMARK    4  A    between atoms: C_3  and  N_6
REMARK    5  A    between atoms: C_4  and  C_5
REMARK    6  A    between atoms: C_8  and  C_9
REMARK    7  A    between atoms: C_9  and  C_11
REMARK                            x       y       z     vdW  Elec       q    Type
REMARK                         _______ _______ _______ _____ _____    ______ ____
ROOT
ATOM      1  N   UNL     1       4.847   4.929  18.072  0.00  0.00    +0.000 N 
ATOM      2  C   UNL     1       3.488   4.919  17.929  0.00  0.00    +0.000 A 
ATOM      3  C   UNL     1       3.006   3.976  18.817  0.00  0.00    +0.000 A 
ATOM      4  C   UNL     1       4.160   3.512  19.482  0.00  0.00    +0.000 A 
ATOM      5  N   UNL     1       5.276   4.079  19.027  0.00  0.00    +0.000 NA
ENDROOT
BRANCH   3   6
ATOM      6  C   UNL     1       1.617   3.574  18.982  0.00  0.00    +0.000 C 
ATOM      7  O   UNL     1       1.049   2.888  18.130  0.00  0.00    +0.000 OA
BRANCH   6   8
ATOM      8  C   UNL     1       0.918   3.970  20.272  0.00  0.00    +0.000 C 
ATOM      9  F   UNL     1       1.023   2.995  21.223  0.00  0.00    +0.000 F 
ATOM     10  F   UNL     1       1.441   5.096  20.836  0.00  0.00    +0.000 F 
ENDBRANCH   6   8
ENDBRANCH   3   6
BRANCH   1  11
ATOM     11  C   UNL     1       5.806   5.725  17.301  0.00  0.00    +0.000 C 
BRANCH  11  13
ATOM     12  C   UNL     1       7.864   6.883  18.332  0.00  0.00    +0.000 C 
ATOM     13  C   UNL     1       7.243   5.581  17.852  0.00  0.00    +0.000 C 
ENDBRANCH  11  13
BRANCH  11  14
ATOM     14  C   UNL     1       5.662   5.460  15.787  0.00  0.00    +0.000 C 
ATOM     15  C   UNL     1       6.100   4.076  15.328  0.00  0.00    +0.000 C 
ENDBRANCH  11  14
ENDBRANCH   1  11
TORSDOF 5
ENDMDL
MODEL 4
REMARK VINA RESULT:      -6.0      3.977      5.781
REMARK  Name = 
REMARK  7 active torsions:
REMARK  status: ('A' for Active; 'I' for Inactive)
REMARK    1  A    between atoms: C_1  and  C_2
REMARK    2  A    between atoms: C_2  and  C_3
REMARK    3  A    between atoms: C_3  and  C_4
REMARK    4  A    between atoms: C_3  and  N_6
REMARK    5  A    between atoms: C_4  and  C_5
REMARK    6  A    between atoms: C_8  and  C_9
REMARK    7  A    between atoms: C_9  and  C_11
REMARK                            x       y       z     vdW  Elec       q    Type
REMARK                         _______ _______ _______ _____ _____    ______ ____
ROOT
ATOM      1  N   UNL     1       4.549   3.907  17.948  0.00  0.00    +0.000 N 
ATOM      2  C   UNL     1       5.191   4.664  17.011  0.00  0.00    +0.000 A 
ATOM      3  C   UNL     1       6.253   5.270  17.654  0.00  0.00    +0.000 A 
ATOM      4  C   UNL     1       6.187   4.766  18.970  0.00  0.00    +0.000 A 
ATOM      5  N   UNL     1       5.151   3.948  19.154  0.00  0.00    +0.000 NA
ENDROOT
BRANCH   3   6
ATOM      6  C   UNL     1       7.192   6.218  17.071  0.00  0.00    +0.000 C 
ATOM      7  O   UNL     1       7.599   6.079  15.916  0.00  0.00    +0.000 OA
BRANCH   6   8
ATOM      8  C   UNL     1       7.592   7.419  17.912  0.00  0.00    +0.000 C 
ATOM      9  F   UNL     1       8.572   7.103  18.810  0.00  0.00    +0.000 F 
ATOM     10  F   UNL     1       8.088   8.447  17.167  0.00  0.00    +0.000 F 
ENDBRANCH   6   8
ENDBRANCH   3   6
BRANCH   1  11
ATOM     11  C   UNL     1       3.325   3.122  17.757  0.00  0.00    +0.000 C 
BRANCH  11  13
ATOM     12  C   UNL     1       1.698   1.988  19.401  0.00  0.00    +0.000 C 
ATOM     13  C   UNL     1       3.126   2.089  18.888  0.00  0.00    +0.000 C 
ENDBRANCH  11  13
BRANCH  11  14
ATOM     14  C   UNL     1       2.111   4.038  17.494  0.00  0.00    +0.000 C 
ATOM     15  C   UNL     1       2.121   5.360  18.250  0.00  0.00    +0.000 C 
ENDBRANCH  11  14
ENDBRANCH   1  11
TORSDOF 5
ENDMDL
MODEL 5
REMARK VINA RESULT:      -6.0      0.934      1.905
REMARK  Name = 
REMARK  7 active torsions:
REMARK  status: ('A' for Active; 'I' for Inactive)
REMARK    1  A    between atoms: C_1  and  C_2
REMARK    2  A    between atoms: C_2  and  C_3
REMARK    3  A    between atoms: C_3  and  C_4
REMARK    4  A    between atoms: C_3  and  N_6
REMARK    5  A    between atoms: C_4  and  C_5
REMARK    6  A    between atoms: C_8  and  C_9
REMARK    7  A    between atoms: C_9  and  C_11
REMARK                            x       y       z     vdW  Elec       q    Type
REMARK                         _______ _______ _______ _____ _____    ______ ____
ROOT
ATOM      1  N   UNL     1       5.194   4.672  17.711  0.00  0.00    +0.000 N 
ATOM      2  C   UNL     1       3.839   4.649  17.544  0.00  0.00    +0.000 A 
ATOM      3  C   UNL     1       3.317   3.997  18.646  0.00  0.00    +0.000 A 
ATOM      4  C   UNL     1       4.448   3.714  19.440  0.00  0.00    +0.000 A 
ATOM      5  N   UNL     1       5.586   4.112  18.873  0.00  0.00    +0.000 NA
ENDROOT
BRANCH   3   6
ATOM      6  C   UNL     1       1.916   3.683  18.882  0.00  0.00    +0.000 C 
ATOM      7  O   UNL     1       1.174   3.352  17.955  0.00  0.00    +0.000 OA
BRANCH   6   8
ATOM      8  C   UNL     1       1.423   3.706  20.320  0.00  0.00    +0.000 C 
ATOM      9  F   UNL     1       0.718   4.844  20.593  0.00  0.00    +0.000 F 
ATOM     10  F   UNL     1       0.586   2.670  20.611  0.00  0.00    +0.000 F 
ENDBRANCH   6   8
ENDBRANCH   3   6
BRANCH   1  11
ATOM     11  C   UNL     1       6.186   5.207  16.773  0.00  0.00    +0.000 C 
BRANCH  11  13
ATOM     12  C   UNL     1       7.506   7.282  17.540  0.00  0.00    +0.000 C 
ATOM     13  C   UNL     1       7.426   5.764  17.509  0.00  0.00    +0.000 C 
ENDBRANCH  11  13
BRANCH  11  14
ATOM     14  C   UNL     1       6.498   4.192  15.653  0.00  0.00    +0.000 C 
ATOM     15  C   UNL     1       6.845   4.805  14.302  0.00  0.00    +0.000 C 
ENDBRANCH  11  14
ENDBRANCH   1  11
TORSDOF 5
ENDMDL
MODEL 6
REMARK VINA RESULT:      -5.9      3.805      5.859
REMARK  Name = 
REMARK  7 active torsions:
REMARK  status: ('A' for Active; 'I' for Inactive)
REMARK    1  A    between atoms: C_1  and  C_2
REMARK    2  A    between atoms: C_2  and  C_3
REMARK    3  A    between atoms: C_3  and  C_4
REMARK    4  A    between atoms: C_3  and  N_6
REMARK    5  A    between atoms: C_4  and  C_5
REMARK    6  A    between atoms: C_8  and  C_9
REMARK    7  A    between atoms: C_9  and  C_11
REMARK                            x       y       z     vdW  Elec       q    Type
REMARK                         _______ _______ _______ _____ _____    ______ ____
ROOT
ATOM      1  N   UNL     1       2.821   4.806  18.898  0.00  0.00    +0.000 N 
ATOM      2  C   UNL     1       4.036   4.739  19.518  0.00  0.00    +0.000 A 
ATOM      3  C   UNL     1       4.919   5.456  18.733  0.00  0.00    +0.000 A 
ATOM      4  C   UNL     1       4.116   5.956  17.687  0.00  0.00    +0.000 A 
ATOM      5  N   UNL     1       2.848   5.556  17.778  0.00  0.00    +0.000 NA
ENDROOT
BRANCH   3   6
ATOM      6  C   UNL     1       6.347   5.619  18.964  0.00  0.00    +0.000 C 
ATOM      7  O   UNL     1       6.885   5.149  19.968  0.00  0.00    +0.000 OA
BRANCH   6   8
ATOM      8  C   UNL     1       7.158   6.324  17.889  0.00  0.00    +0.000 C 
ATOM      9  F   UNL     1       8.221   6.997  18.419  0.00  0.00    +0.000 F 
ATOM     10  F   UNL     1       7.682   5.464  16.970  0.00  0.00    +0.000 F 
ENDBRANCH   6   8
ENDBRANCH   3   6
BRANCH   1  11
ATOM     11  C   UNL     1       1.580   4.149  19.321  0.00  0.00    +0.000 C 
BRANCH  11  13
ATOM     12  C   UNL     1       2.605   2.246  17.919  0.00  0.00    +0.000 C 
ATOM     13  C   UNL     1       1.356   2.815  18.574  0.00  0.00    +0.000 C 
ENDBRANCH  11  13
BRANCH  11  14
ATOM     14  C   UNL     1       1.497   4.053  20.859  0.00  0.00    +0.000 C 
ATOM     15  C   UNL     1       1.462   2.637  21.419  0.00  0.00    +0.000 C 
ENDBRANCH  11  14
ENDBRANCH   1  11
TORSDOF 5
ENDMDL
MODEL 7
REMARK VINA RESULT:      -5.9      1.241      2.251
REMARK  Name = 
REMARK  7 active torsions:
REMARK  status: ('A' for Active; 'I' for Inactive)
REMARK    1  A    between atoms: C_1  and  C_2
REMARK    2  A    between atoms: C_2  and  C_3
REMARK    3  A    between atoms: C_3  and  C_4
REMARK    4  A    between atoms: C_3  and  N_6
REMARK    5  A    between atoms: C_4  and  C_5
REMARK    6  A    between atoms: C_8  and  C_9
REMARK    7  A    between atoms: C_9  and  C_11
REMARK                            x       y       z     vdW  Elec       q    Type
REMARK                         _______ _______ _______ _____ _____    ______ ____
ROOT
ATOM      1  N   UNL     1       5.534   4.677  17.816  0.00  0.00    +0.000 N 
ATOM      2  C   UNL     1       4.398   4.065  17.370  0.00  0.00    +0.000 A 
ATOM      3  C   UNL     1       3.871   3.378  18.447  0.00  0.00    +0.000 A 
ATOM      4  C   UNL     1       4.747   3.687  19.509  0.00  0.00    +0.000 A 
ATOM      5  N   UNL     1       5.760   4.465  19.128  0.00  0.00    +0.000 NA
ENDROOT
BRANCH   3   6
ATOM      6  C   UNL     1       2.689   2.529  18.438  0.00  0.00    +0.000 C 
ATOM      7  O   UNL     1       2.786   1.306  18.557  0.00  0.00    +0.000 OA
BRANCH   6   8
ATOM      8  C   UNL     1       1.334   3.211  18.352  0.00  0.00    +0.000 C 
ATOM      9  F   UNL     1       0.313   2.341  18.612  0.00  0.00    +0.000 F 
ATOM     10  F   UNL     1       1.192   4.228  19.248  0.00  0.00    +0.000 F 
ENDBRANCH   6   8
ENDBRANCH   3   6
BRANCH   1  11
ATOM     11  C   UNL     1       6.473   5.475  17.022  0.00  0.00    +0.000 C 
BRANCH  11  13
ATOM     12  C   UNL     1       7.625   7.710  17.583  0.00  0.00    +0.000 C 
ATOM     13  C   UNL     1       7.479   6.234  17.917  0.00  0.00    +0.000 C 
ENDBRANCH  11  13
BRANCH  11  14
ATOM     14  C   UNL     1       7.113   4.630  15.899  0.00  0.00    +0.000 C 
ATOM     15  C   UNL     1       6.525   4.847  14.511  0.00  0.00    +0.000 C 
ENDBRANCH  11  14
ENDBRANCH   1  11
TORSDOF 5
ENDMDL
MODEL 8
REMARK VINA RESULT:      -5.9      1.133      2.215
REMARK  Name = 
REMARK  7 active torsions:
REMARK  status: ('A' for Active; 'I' for Inactive)
REMARK    1  A    between atoms: C_1  and  C_2
REMARK    2  A    between atoms: C_2  and  C_3
REMARK    3  A    between atoms: C_3  and  C_4
REMARK    4  A    between atoms: C_3  and  N_6
REMARK    5  A    between atoms: C_4  and  C_5
REMARK    6  A    between atoms: C_8  and  C_9
REMARK    7  A    between atoms: C_9  and  C_11
REMARK                            x       y       z     vdW  Elec       q    Type
REMARK                         _______ _______ _______ _____ _____    ______ ____
ROOT
ATOM      1  N   UNL     1       5.425   5.042  17.940  0.00  0.00    +0.000 N 
ATOM      2  C   UNL     1       4.071   5.218  17.912  0.00  0.00    +0.000 A 
ATOM      3  C   UNL     1       3.539   4.321  18.819  0.00  0.00    +0.000 A 
ATOM      4  C   UNL     1       4.670   3.688  19.376  0.00  0.00    +0.000 A 
ATOM      5  N   UNL     1       5.812   4.114  18.839  0.00  0.00    +0.000 NA
ENDROOT
BRANCH   3   6
ATOM      6  C   UNL     1       2.126   4.103  19.093  0.00  0.00    +0.000 C 
ATOM      7  O   UNL     1       1.549   4.727  19.985  0.00  0.00    +0.000 OA
BRANCH   6   8
ATOM      8  C   UNL     1       1.376   3.134  18.193  0.00  0.00    +0.000 C 
ATOM      9  F   UNL     1       2.204   2.176  17.682  0.00  0.00    +0.000 F 
ATOM     10  F   UNL     1       0.386   2.462  18.845  0.00  0.00    +0.000 F 
ENDBRANCH   6   8
ENDBRANCH   3   6
BRANCH   1  11
ATOM     11  C   UNL     1       6.419   5.726  17.106  0.00  0.00    +0.000 C 
BRANCH  11  13
ATOM     12  C   UNL     1       7.684   7.931  17.519  0.00  0.00    +0.000 C 
ATOM     13  C   UNL     1       7.450   6.496  17.961  0.00  0.00    +0.000 C 
ENDBRANCH  11  13
BRANCH  11  14
ATOM     14  C   UNL     1       7.028   4.766  16.063  0.00  0.00    +0.000 C 
ATOM     15  C   UNL     1       6.107   4.398  14.906  0.00  0.00    +0.000 C 
ENDBRANCH  11  14
ENDBRANCH   1  11
TORSDOF 5
ENDMDL
MODEL 9
REMARK VINA RESULT:      -5.9      0.986      2.058
REMARK  Name = 
REMARK  7 active torsions:
REMARK  status: ('A' for Active; 'I' for Inactive)
REMARK    1  A    between atoms: C_1  and  C_2
REMARK    2  A    between atoms: C_2  and  C_3
REMARK    3  A    between atoms: C_3  and  C_4
REMARK    4  A    between atoms: C_3  and  N_6
REMARK    5  A    between atoms: C_4  and  C_5
REMARK    6  A    between atoms: C_8  and  C_9
REMARK    7  A    between atoms: C_9  and  C_11
REMARK                            x       y       z     vdW  Elec       q    Type
REMARK                         _______ _______ _______ _____ _____    ______ ____
ROOT
ATOM      1  N   UNL     1       5.064   5.071  17.965  0.00  0.00    +0.000 N 
ATOM      2  C   UNL     1       3.909   4.614  17.397  0.00  0.00    +0.000 A 
ATOM      3  C   UNL     1       2.997   4.464  18.425  0.00  0.00    +0.000 A 
ATOM      4  C   UNL     1       3.695   4.908  19.567  0.00  0.00    +0.000 A 
ATOM      5  N   UNL     1       4.949   5.267  19.294  0.00  0.00    +0.000 NA
ENDROOT
BRANCH   3   6
ATOM      6  C   UNL     1       1.642   3.946  18.310  0.00  0.00    +0.000 C 
ATOM      7  O   UNL     1       1.050   3.951  17.229  0.00  0.00    +0.000 OA
BRANCH   6   8
ATOM      8  C   UNL     1       1.014   3.336  19.552  0.00  0.00    +0.000 C 
ATOM      9  F   UNL     1       1.890   2.522  20.213  0.00  0.00    +0.000 F 
ATOM     10  F   UNL     1       0.617   4.271  20.461  0.00  0.00    +0.000 F 
ENDBRANCH   6   8
ENDBRANCH   3   6
BRANCH   1  11
ATOM     11  C   UNL     1       6.338   5.326  17.285  0.00  0.00    +0.000 C 
BRANCH  11  13
ATOM     12  C   UNL     1       7.932   7.075  18.303  0.00  0.00    +0.000 C 
ATOM     13  C   UNL     1       7.473   5.625  18.290  0.00  0.00    +0.000 C 
ENDBRANCH  11  13
BRANCH  11  14
ATOM     14  C   UNL     1       6.655   4.216  16.260  0.00  0.00    +0.000 C 
ATOM     15  C   UNL     1       6.755   4.681  14.813  0.00  0.00    +0.000 C 
ENDBRANCH  11  14
ENDBRANCH   1  11
TORSDOF 5
ENDMDL
