MODEL 1
REMARK VINA RESULT:      -7.5      0.000      0.000
REMARK  Name = 
REMARK  8 active torsions:
REMARK  status: ('A' for Active; 'I' for Inactive)
REMARK    1  A    between atoms: C_1  and  O_2
REMARK    2  A    between atoms: O_2  and  C_3
REMARK    3  A    between atoms: C_7  and  C_8
REMARK    4  A    between atoms: C_8  and  C_9
REMARK    5  A    between atoms: C_14  and  N_15
REMARK    6  A    between atoms: N_15  and  C_16
REMARK    7  A    between atoms: C_16  and  C_17
REMARK    8  A    between atoms: C_21  and  C_22
REMARK                            x       y       z     vdW  Elec       q    Type
REMARK                         _______ _______ _______ _____ _____    ______ ____
ROOT
ATOM      1  C   UNL     1       7.747   8.394  17.882  0.00  0.00    +0.000 C 
ATOM      2  O   UNL     1       7.142   9.314  17.331  0.00  0.00    +0.000 OA
ATOM      3  N   UNL     1       7.393   7.060  17.695  0.00  0.00    +0.000 N 
ATOM      4  C   UNL     1       6.333   6.742  16.736  0.00  0.00    +0.000 C 
ATOM      5  C   UNL     1       5.054   6.323  17.461  0.00  0.00    +0.000 C 
ATOM      6  C   UNL     1       5.311   5.171  18.455  0.00  0.00    +0.000 C 
ATOM      7  C   UNL     1       6.439   5.606  19.413  0.00  0.00    +0.000 C 
ATOM      8  C   UNL     1       7.704   5.993  18.647  0.00  0.00    +0.000 C 
ENDROOT
BRANCH   6   9
ATOM      9  N   UNL     1       5.586   3.924  17.721  0.00  0.00    +0.000 NA
ATOM     10  H   UNL     1       5.783   3.153  18.354  0.00  0.00    +0.000 HD
BRANCH   9  11
ATOM     11  C   UNL     1       4.506   3.531  16.820  0.00  0.00    +0.000 C 
BRANCH  11  12
ATOM     12  C   UNL     1       3.455   2.841  17.618  0.00  0.00    +0.000 A 
ATOM     13  C   UNL     1       3.510   1.585  18.191  0.00  0.00    +0.000 A 
ATOM     14  N   UNL     1       2.335   1.419  18.861  0.00  0.00    +0.000 N 
ATOM     15  N   UNL     1       1.510   2.470  18.765  0.00  0.00    +0.000 NA
ATOM     16  C   UNL     1       2.181   3.342  18.001  0.00  0.00    +0.000 A 
ATOM     17  C   UNL     1       1.587   4.657  17.658  0.00  0.00    +0.000 C 
ATOM     18  H   UNL     1       2.032   0.622  19.410  0.00  0.00    +0.000 HD
ENDBRANCH  11  12
ENDBRANCH   9  11
ENDBRANCH   6   9
BRANCH   1  19
ATOM     19  C   UNL     1       8.964   8.692  18.743  0.00  0.00    +0.000 C 
BRANCH  19  24
ATOM     20  C   UNL     1       9.643  11.960  20.582  0.00  0.00    +0.000 A 
ATOM     21  C   UNL     1       9.919  12.825  19.523  0.00  0.00    +0.000 A 
ATOM     22  C   UNL     1       9.889  12.366  18.205  0.00  0.00    +0.000 A 
ATOM     23  C   UNL     1       9.571  11.035  17.935  0.00  0.00    +0.000 A 
ATOM     24  C   UNL     1       9.269  10.154  18.981  0.00  0.00    +0.000 A 
ATOM     25  C   UNL     1       9.327  10.627  20.307  0.00  0.00    +0.000 A 
BRANCH  20  27
ATOM     26  C   UNL     1       9.224  13.860  21.949  0.00  0.00    +0.000 C 
ATOM     27  O   UNL     1       9.710  12.530  21.823  0.00  0.00    +0.000 OA
ENDBRANCH  20  27
ENDBRANCH  19  24
ENDBRANCH   1  19
TORSDOF 6
ENDMDL
MODEL 2
REMARK VINA RESULT:      -7.3      7.301     10.142
REMARK  Name = 
REMARK  8 active torsions:
REMARK  status: ('A' for Active; 'I' for Inactive)
REMARK    1  A    between atoms: C_1  and  O_2
REMARK    2  A    between atoms: O_2  and  C_3
REMARK    3  A    between atoms: C_7  and  C_8
REMARK    4  A    between atoms: C_8  and  C_9
REMARK    5  A    between atoms: C_14  and  N_15
REMARK    6  A    between atoms: N_15  and  C_16
REMARK    7  A    between atoms: C_16  and  C_17
REMARK    8  A    between atoms: C_21  and  C_22
REMARK                            x       y       z     vdW  Elec       q    Type
REMARK                         _______ _______ _______ _____ _____    ______ ____
ROOT
ATOM      1  C   UNL     1       1.813   7.642  20.057  0.00  0.00    +0.000 C 
ATOM      2  O   UNL     1       1.791   6.593  20.700  0.00  0.00    +0.000 OA
ATOM      3  N   UNL     1       1.501   8.870  20.634  0.00  0.00    +0.000 N 
ATOM      4  C   UNL     1       1.237   8.924  22.074  0.00  0.00    +0.000 C 
ATOM      5  C   UNL     1      -0.253   9.131  22.344  0.00  0.00    +0.000 C 
ATOM      6  C   UNL     1      -0.803  10.366  21.600  0.00  0.00    +0.000 C 
ATOM      7  C   UNL     1      -0.472  10.212  20.101  0.00  0.00    +0.000 C 
ATOM      8  C   UNL     1       1.029  10.030  19.877  0.00  0.00    +0.000 C 
ENDROOT
BRANCH   6   9
ATOM      9  N   UNL     1      -0.278  11.598  22.214  0.00  0.00    +0.000 NA
ATOM     10  H   UNL     1       0.689  11.767  21.944  0.00  0.00    +0.000 HD
BRANCH   9  11
ATOM     11  C   UNL     1      -1.069  12.785  21.903  0.00  0.00    +0.000 C 
BRANCH  11  12
ATOM     12  C   UNL     1      -2.451  12.577  22.418  0.00  0.00    +0.000 A 
ATOM     13  C   UNL     1      -2.845  12.321  23.717  0.00  0.00    +0.000 A 
ATOM     14  N   UNL     1      -4.207  12.261  23.699  0.00  0.00    +0.000 N 
ATOM     15  N   UNL     1      -4.735  12.453  22.483  0.00  0.00    +0.000 NA
ATOM     16  C   UNL     1      -3.671  12.640  21.691  0.00  0.00    +0.000 A 
ATOM     17  C   UNL     1      -3.846  12.887  20.239  0.00  0.00    +0.000 C 
ATOM     18  H   UNL     1      -4.839  12.103  24.476  0.00  0.00    +0.000 HD
ENDBRANCH  11  12
ENDBRANCH   9  11
ENDBRANCH   6   9
BRANCH   1  19
ATOM     19  C   UNL     1       2.258   7.633  18.602  0.00  0.00    +0.000 C 
BRANCH  19  24
ATOM     20  C   UNL     1       2.634   3.991  17.546  0.00  0.00    +0.000 A 
ATOM     21  C   UNL     1       3.962   3.959  17.119  0.00  0.00    +0.000 A 
ATOM     22  C   UNL     1       4.752   5.109  17.169  0.00  0.00    +0.000 A 
ATOM     23  C   UNL     1       4.219   6.302  17.656  0.00  0.00    +0.000 A 
ATOM     24  C   UNL     1       2.894   6.353  18.109  0.00  0.00    +0.000 A 
ATOM     25  C   UNL     1       2.105   5.189  18.031  0.00  0.00    +0.000 A 
BRANCH  20  27
ATOM     26  C   UNL     1       1.331   2.315  18.618  0.00  0.00    +0.000 C 
ATOM     27  O   UNL     1       1.967   2.801  17.442  0.00  0.00    +0.000 OA
ENDBRANCH  20  27
ENDBRANCH  19  24
ENDBRANCH   1  19
TORSDOF 6
ENDMDL
MODEL 3
REMARK VINA RESULT:      -7.2      5.065      7.888
REMARK  Name = 
REMARK  8 active torsions:
REMARK  status: ('A' for Active; 'I' for Inactive)
REMARK    1  A    between atoms: C_1  and  O_2
REMARK    2  A    between atoms: O_2  and  C_3
REMARK    3  A    between atoms: C_7  and  C_8
REMARK    4  A    between atoms: C_8  and  C_9
REMARK    5  A    between atoms: C_14  and  N_15
REMARK    6  A    between atoms: N_15  and  C_16
REMARK    7  A    between atoms: C_16  and  C_17
REMARK    8  A    between atoms: C_21  and  C_22
REMARK                            x       y       z     vdW  Elec       q    Type
REMARK                         _______ _______ _______ _____ _____    ______ ____
ROOT
ATOM      1  C   UNL     1       5.846   5.554  14.750  0.00  0.00    +0.000 C 
ATOM      2  O   UNL     1       5.210   6.586  14.535  0.00  0.00    +0.000 OA
ATOM      3  N   UNL     1       5.627   4.772  15.881  0.00  0.00    +0.000 N 
ATOM      4  C   UNL     1       4.535   5.138  16.787  0.00  0.00    +0.000 C 
ATOM      5  C   UNL     1       5.084   5.736  18.082  0.00  0.00    +0.000 C 
ATOM      6  C   UNL     1       6.115   4.803  18.751  0.00  0.00    +0.000 C 
ATOM      7  C   UNL     1       7.213   4.480  17.717  0.00  0.00    +0.000 C 
ATOM      8  C   UNL     1       6.622   3.863  16.450  0.00  0.00    +0.000 C 
ENDROOT
BRANCH   6   9
ATOM      9  N   UNL     1       5.437   3.620  19.306  0.00  0.00    +0.000 NA
ATOM     10  H   UNL     1       6.036   3.117  19.957  0.00  0.00    +0.000 HD
BRANCH   9  11
ATOM     11  C   UNL     1       4.175   3.932  19.971  0.00  0.00    +0.000 C 
BRANCH  11  12
ATOM     12  C   UNL     1       3.101   3.104  19.354  0.00  0.00    +0.000 A 
ATOM     13  C   UNL     1       3.241   2.050  18.472  0.00  0.00    +0.000 A 
ATOM     14  N   UNL     1       1.983   1.581  18.235  0.00  0.00    +0.000 N 
ATOM     15  N   UNL     1       1.028   2.253  18.891  0.00  0.00    +0.000 NA
ATOM     16  C   UNL     1       1.699   3.191  19.572  0.00  0.00    +0.000 A 
ATOM     17  C   UNL     1       0.977   4.157  20.437  0.00  0.00    +0.000 C 
ATOM     18  H   UNL     1       1.703   0.804  17.647  0.00  0.00    +0.000 HD
ENDBRANCH  11  12
ENDBRANCH   9  11
ENDBRANCH   6   9
BRANCH   1  19
ATOM     19  C   UNL     1       6.862   5.061  13.731  0.00  0.00    +0.000 C 
BRANCH  19  24
ATOM     20  C   UNL     1       4.596   3.013  11.452  0.00  0.00    +0.000 A 
ATOM     21  C   UNL     1       5.467   2.016  11.013  0.00  0.00    +0.000 A 
ATOM     22  C   UNL     1       6.794   1.991  11.447  0.00  0.00    +0.000 A 
ATOM     23  C   UNL     1       7.257   2.962  12.334  0.00  0.00    +0.000 A 
ATOM     24  C   UNL     1       6.395   3.960  12.805  0.00  0.00    +0.000 A 
ATOM     25  C   UNL     1       5.065   3.984  12.339  0.00  0.00    +0.000 A 
BRANCH  20  27
ATOM     26  C   UNL     1       2.992   3.815   9.890  0.00  0.00    +0.000 C 
ATOM     27  O   UNL     1       3.326   2.929  10.951  0.00  0.00    +0.000 OA
ENDBRANCH  20  27
ENDBRANCH  19  24
ENDBRANCH   1  19
TORSDOF 6
ENDMDL
MODEL 4
REMARK VINA RESULT:      -7.2      5.004      6.781
REMARK  Name = 
REMARK  8 active torsions:
REMARK  status: ('A' for Active; 'I' for Inactive)
REMARK    1  A    between atoms: C_1  and  O_2
REMARK    2  A    between atoms: O_2  and  C_3
REMARK    3  A    between atoms: C_7  and  C_8
REMARK    4  A    between atoms: C_8  and  C_9
REMARK    5  A    between atoms: C_14  and  N_15
REMARK    6  A    between atoms: N_15  and  C_16
REMARK    7  A    between atoms: C_16  and  C_17
REMARK    8  A    between atoms: C_21  and  C_22
REMARK                            x       y       z     vdW  Elec       q    Type
REMARK                         _______ _______ _______ _____ _____    ______ ____
ROOT
ATOM      1  C   UNL     1       5.070   5.015  18.751  0.00  0.00    +0.000 C 
ATOM      2  O   UNL     1       5.878   5.419  19.588  0.00  0.00    +0.000 OA
ATOM      3  N   UNL     1       5.473   4.513  17.516  0.00  0.00    +0.000 N 
ATOM      4  C   UNL     1       6.906   4.372  17.249  0.00  0.00    +0.000 C 
ATOM      5  C   UNL     1       7.381   5.437  16.262  0.00  0.00    +0.000 C 
ATOM      6  C   UNL     1       6.539   5.435  14.968  0.00  0.00    +0.000 C 
ATOM      7  C   UNL     1       5.055   5.587  15.361  0.00  0.00    +0.000 C 
ATOM      8  C   UNL     1       4.619   4.488  16.329  0.00  0.00    +0.000 C 
ENDROOT
BRANCH   6   9
ATOM      9  N   UNL     1       6.837   4.229  14.176  0.00  0.00    +0.000 NA
ATOM     10  H   UNL     1       6.167   3.486  14.360  0.00  0.00    +0.000 HD
BRANCH   9  11
ATOM     11  C   UNL     1       6.886   4.476  12.738  0.00  0.00    +0.000 C 
BRANCH  11  12
ATOM     12  C   UNL     1       6.636   3.190  12.031  0.00  0.00    +0.000 A 
ATOM     13  C   UNL     1       7.552   2.213  11.693  0.00  0.00    +0.000 A 
ATOM     14  N   UNL     1       6.841   1.207  11.110  0.00  0.00    +0.000 N 
ATOM     15  N   UNL     1       5.527   1.454  11.035  0.00  0.00    +0.000 NA
ATOM     16  C   UNL     1       5.391   2.666  11.587  0.00  0.00    +0.000 A 
ATOM     17  C   UNL     1       4.055   3.303  11.691  0.00  0.00    +0.000 C 
ATOM     18  H   UNL     1       7.183   0.322  10.750  0.00  0.00    +0.000 HD
ENDBRANCH  11  12
ENDBRANCH   9  11
ENDBRANCH   6   9
BRANCH   1  19
ATOM     19  C   UNL     1       3.585   4.988  19.079  0.00  0.00    +0.000 C 
BRANCH  19  24
ATOM     20  C   UNL     1       1.595   7.994  20.313  0.00  0.00    +0.000 A 
ATOM     21  C   UNL     1       1.623   8.827  19.194  0.00  0.00    +0.000 A 
ATOM     22  C   UNL     1       2.281   8.429  18.029  0.00  0.00    +0.000 A 
ATOM     23  C   UNL     1       2.911   7.186  17.972  0.00  0.00    +0.000 A 
ATOM     24  C   UNL     1       2.879   6.324  19.077  0.00  0.00    +0.000 A 
ATOM     25  C   UNL     1       2.230   6.751  20.252  0.00  0.00    +0.000 A 
BRANCH  20  27
ATOM     26  C   UNL     1       0.683   9.902  21.402  0.00  0.00    +0.000 C 
ATOM     27  O   UNL     1       0.923   8.500  21.392  0.00  0.00    +0.000 OA
ENDBRANCH  20  27
ENDBRANCH  19  24
ENDBRANCH   1  19
TORSDOF 6
ENDMDL
MODEL 5
REMARK VINA RESULT:      -7.1      5.209      7.058
REMARK  Name = 
REMARK  8 active torsions:
REMARK  status: ('A' for Active; 'I' for Inactive)
REMARK    1  A    between atoms: C_1  and  O_2
REMARK    2  A    between atoms: O_2  and  C_3
REMARK    3  A    between atoms: C_7  and  C_8
REMARK    4  A    between atoms: C_8  and  C_9
REMARK    5  A    between atoms: C_14  and  N_15
REMARK    6  A    between atoms: N_15  and  C_16
REMARK    7  A    between atoms: C_16  and  C_17
REMARK    8  A    between atoms: C_21  and  C_22
REMARK                            x       y       z     vdW  Elec       q    Type
REMARK                         _______ _______ _______ _____ _____    ______ ____
ROOT
ATOM      1  C   UNL     1       1.626   8.089  20.109  0.00  0.00    +0.000 C 
ATOM      2  O   UNL     1       1.291   8.917  19.262  0.00  0.00    +0.000 OA
ATOM      3  N   UNL     1       2.437   7.001  19.800  0.00  0.00    +0.000 N 
ATOM      4  C   UNL     1       2.988   6.897  18.446  0.00  0.00    +0.000 C 
ATOM      5  C   UNL     1       2.285   5.793  17.658  0.00  0.00    +0.000 C 
ATOM      6  C   UNL     1       2.317   4.445  18.410  0.00  0.00    +0.000 C 
ATOM      7  C   UNL     1       1.720   4.664  19.815  0.00  0.00    +0.000 C 
ATOM      8  C   UNL     1       2.468   5.760  20.574  0.00  0.00    +0.000 C 
ENDROOT
BRANCH   6   9
ATOM      9  N   UNL     1       3.686   3.901  18.409  0.00  0.00    +0.000 NA
ATOM     10  H   UNL     1       3.754   3.059  18.976  0.00  0.00    +0.000 HD
BRANCH   9  11
ATOM     11  C   UNL     1       4.197   3.613  17.072  0.00  0.00    +0.000 C 
BRANCH  11  12
ATOM     12  C   UNL     1       5.576   4.164  16.966  0.00  0.00    +0.000 A 
ATOM     13  C   UNL     1       6.393   4.613  17.986  0.00  0.00    +0.000 A 
ATOM     14  N   UNL     1       7.573   4.968  17.403  0.00  0.00    +0.000 N 
ATOM     15  N   UNL     1       7.588   4.792  16.075  0.00  0.00    +0.000 NA
ATOM     16  C   UNL     1       6.371   4.308  15.796  0.00  0.00    +0.000 A 
ATOM     17  C   UNL     1       5.991   3.979  14.401  0.00  0.00    +0.000 C 
ATOM     18  H   UNL     1       8.410   5.328  17.847  0.00  0.00    +0.000 HD
ENDBRANCH  11  12
ENDBRANCH   9  11
ENDBRANCH   6   9
BRANCH   1  19
ATOM     19  C   UNL     1       1.211   8.275  21.561  0.00  0.00    +0.000 C 
BRANCH  19  24
ATOM     20  C   UNL     1       0.157  11.933  21.388  0.00  0.00    +0.000 A 
ATOM     21  C   UNL     1      -0.841  11.984  22.361  0.00  0.00    +0.000 A 
ATOM     22  C   UNL     1      -1.185  10.841  23.085  0.00  0.00    +0.000 A 
ATOM     23  C   UNL     1      -0.523   9.637  22.846  0.00  0.00    +0.000 A 
ATOM     24  C   UNL     1       0.497   9.567  21.888  0.00  0.00    +0.000 A 
ATOM     25  C   UNL     1       0.815  10.724  21.150  0.00  0.00    +0.000 A 
BRANCH  20  27
ATOM     26  C   UNL     1       0.964  14.167  21.521  0.00  0.00    +0.000 C 
ATOM     27  O   UNL     1       0.396  13.118  20.746  0.00  0.00    +0.000 OA
ENDBRANCH  20  27
ENDBRANCH  19  24
ENDBRANCH   1  19
TORSDOF 6
ENDMDL
MODEL 6
REMARK VINA RESULT:      -7.1      5.137      8.086
REMARK  Name = 
REMARK  8 active torsions:
REMARK  status: ('A' for Active; 'I' for Inactive)
REMARK    1  A    between atoms: C_1  and  O_2
REMARK    2  A    between atoms: O_2  and  C_3
REMARK    3  A    between atoms: C_7  and  C_8
REMARK    4  A    between atoms: C_8  and  C_9
REMARK    5  A    between atoms: C_14  and  N_15
REMARK    6  A    between atoms: N_15  and  C_16
REMARK    7  A    between atoms: C_16  and  C_17
REMARK    8  A    between atoms: C_21  and  C_22
REMARK                            x       y       z     vdW  Elec       q    Type
REMARK                         _______ _______ _______ _____ _____    ______ ____
ROOT
ATOM      1  C   UNL     1       1.481   8.874  19.733  0.00  0.00    +0.000 C 
ATOM      2  O   UNL     1       1.355   8.779  20.954  0.00  0.00    +0.000 OA
ATOM      3  N   UNL     1       1.772   7.773  18.932  0.00  0.00    +0.000 N 
ATOM      4  C   UNL     1       1.829   6.447  19.553  0.00  0.00    +0.000 C 
ATOM      5  C   UNL     1       3.274   5.959  19.655  0.00  0.00    +0.000 C 
ATOM      6  C   UNL     1       3.989   5.998  18.288  0.00  0.00    +0.000 C 
ATOM      7  C   UNL     1       3.868   7.429  17.723  0.00  0.00    +0.000 C 
ATOM      8  C   UNL     1       2.408   7.865  17.617  0.00  0.00    +0.000 C 
ENDROOT
BRANCH   6   9
ATOM      9  N   UNL     1       3.447   4.950  17.407  0.00  0.00    +0.000 NA
ATOM     10  H   UNL     1       3.271   5.304  16.469  0.00  0.00    +0.000 HD
BRANCH   9  11
ATOM     11  C   UNL     1       4.302   3.770  17.313  0.00  0.00    +0.000 C 
BRANCH  11  12
ATOM     12  C   UNL     1       5.679   4.213  16.960  0.00  0.00    +0.000 A 
ATOM     13  C   UNL     1       6.737   4.461  17.813  0.00  0.00    +0.000 A 
ATOM     14  N   UNL     1       7.798   4.788  17.022  0.00  0.00    +0.000 N 
ATOM     15  N   UNL     1       7.511   4.779  15.713  0.00  0.00    +0.000 NA
ATOM     16  C   UNL     1       6.218   4.437  15.664  0.00  0.00    +0.000 A 
ATOM     17  C   UNL     1       5.517   4.319  14.362  0.00  0.00    +0.000 C 
ATOM     18  H   UNL     1       8.744   5.019  17.303  0.00  0.00    +0.000 HD
ENDBRANCH  11  12
ENDBRANCH   9  11
ENDBRANCH   6   9
BRANCH   1  19
ATOM     19  C   UNL     1       1.249  10.211  19.046  0.00  0.00    +0.000 C 
BRANCH  19  24
ATOM     20  C   UNL     1      -2.187  10.205  17.399  0.00  0.00    +0.000 A 
ATOM     21  C   UNL     1      -2.885  11.104  18.205  0.00  0.00    +0.000 A 
ATOM     22  C   UNL     1      -2.258  11.724  19.286  0.00  0.00    +0.000 A 
ATOM     23  C   UNL     1      -0.918  11.454  19.565  0.00  0.00    +0.000 A 
ATOM     24  C   UNL     1      -0.191  10.570  18.757  0.00  0.00    +0.000 A 
ATOM     25  C   UNL     1      -0.846   9.937  17.683  0.00  0.00    +0.000 A 
BRANCH  20  27
ATOM     26  C   UNL     1      -2.954  10.392  15.155  0.00  0.00    +0.000 C 
ATOM     27  O   UNL     1      -2.915   9.663  16.375  0.00  0.00    +0.000 OA
ENDBRANCH  20  27
ENDBRANCH  19  24
ENDBRANCH   1  19
TORSDOF 6
ENDMDL
MODEL 7
REMARK VINA RESULT:      -7.1      1.798      2.748
REMARK  Name = 
REMARK  8 active torsions:
REMARK  status: ('A' for Active; 'I' for Inactive)
REMARK    1  A    between atoms: C_1  and  O_2
REMARK    2  A    between atoms: O_2  and  C_3
REMARK    3  A    between atoms: C_7  and  C_8
REMARK    4  A    between atoms: C_8  and  C_9
REMARK    5  A    between atoms: C_14  and  N_15
REMARK    6  A    between atoms: N_15  and  C_16
REMARK    7  A    between atoms: C_16  and  C_17
REMARK    8  A    between atoms: C_21  and  C_22
REMARK                            x       y       z     vdW  Elec       q    Type
REMARK                         _______ _______ _______ _____ _____    ______ ____
ROOT
ATOM      1  C   UNL     1       7.477   7.149  18.090  0.00  0.00    +0.000 C 
ATOM      2  O   UNL     1       8.357   6.657  18.797  0.00  0.00    +0.000 OA
ATOM      3  N   UNL     1       6.191   6.618  18.035  0.00  0.00    +0.000 N 
ATOM      4  C   UNL     1       5.852   5.503  18.923  0.00  0.00    +0.000 C 
ATOM      5  C   UNL     1       5.743   4.198  18.136  0.00  0.00    +0.000 C 
ATOM      6  C   UNL     1       4.762   4.324  16.951  0.00  0.00    +0.000 C 
ATOM      7  C   UNL     1       5.205   5.521  16.086  0.00  0.00    +0.000 C 
ATOM      8  C   UNL     1       5.277   6.808  16.908  0.00  0.00    +0.000 C 
ENDROOT
BRANCH   6   9
ATOM      9  N   UNL     1       3.379   4.415  17.451  0.00  0.00    +0.000 NA
ATOM     10  H   UNL     1       2.792   4.964  16.827  0.00  0.00    +0.000 HD
BRANCH   9  11
ATOM     11  C   UNL     1       2.752   3.114  17.666  0.00  0.00    +0.000 C 
BRANCH  11  12
ATOM     12  C   UNL     1       2.200   3.080  19.049  0.00  0.00    +0.000 A 
ATOM     13  C   UNL     1       0.930   3.427  19.466  0.00  0.00    +0.000 A 
ATOM     14  N   UNL     1       0.886   3.178  20.806  0.00  0.00    +0.000 N 
ATOM     15  N   UNL     1       2.036   2.699  21.299  0.00  0.00    +0.000 NA
ATOM     16  C   UNL     1       2.849   2.642  20.236  0.00  0.00    +0.000 A 
ATOM     17  C   UNL     1       4.242   2.155  20.377  0.00  0.00    +0.000 C 
ATOM     18  H   UNL     1       0.107   3.301  21.443  0.00  0.00    +0.000 HD
ENDBRANCH  11  12
ENDBRANCH   9  11
ENDBRANCH   6   9
BRANCH   1  19
ATOM     19  C   UNL     1       7.758   8.414  17.295  0.00  0.00    +0.000 C 
BRANCH  19  24
ATOM     20  C   UNL     1       8.898  11.936  18.200  0.00  0.00    +0.000 A 
ATOM     21  C   UNL     1       9.500  11.725  19.440  0.00  0.00    +0.000 A 
ATOM     22  C   UNL     1       9.548  10.447  19.999  0.00  0.00    +0.000 A 
ATOM     23  C   UNL     1       8.998   9.364  19.313  0.00  0.00    +0.000 A 
ATOM     24  C   UNL     1       8.407   9.548  18.056  0.00  0.00    +0.000 A 
ATOM     25  C   UNL     1       8.347  10.849  17.518  0.00  0.00    +0.000 A 
BRANCH  20  27
ATOM     26  C   UNL     1      10.176  13.885  17.727  0.00  0.00    +0.000 C 
ATOM     27  O   UNL     1       8.913  13.233  17.765  0.00  0.00    +0.000 OA
ENDBRANCH  20  27
ENDBRANCH  19  24
ENDBRANCH   1  19
TORSDOF 6
ENDMDL
MODEL 8
REMARK VINA RESULT:      -7.1      7.161      9.673
REMARK  Name = 
REMARK  8 active torsions:
REMARK  status: ('A' for Active; 'I' for Inactive)
REMARK    1  A    between atoms: C_1  and  O_2
REMARK    2  A    between atoms: O_2  and  C_3
REMARK    3  A    between atoms: C_7  and  C_8
REMARK    4  A    between atoms: C_8  and  C_9
REMARK    5  A    between atoms: C_14  and  N_15
REMARK    6  A    between atoms: N_15  and  C_16
REMARK    7  A    between atoms: C_16  and  C_17
REMARK    8  A    between atoms: C_21  and  C_22
REMARK                            x       y       z     vdW  Elec       q    Type
REMARK                         _______ _______ _______ _____ _____    ______ ____
ROOT
ATOM      1  C   UNL     1       2.087   8.327  18.886  0.00  0.00    +0.000 C 
ATOM      2  O   UNL     1       2.772   8.612  17.903  0.00  0.00    +0.000 OA
ATOM      3  N   UNL     1       0.969   9.072  19.250  0.00  0.00    +0.000 N 
ATOM      4  C   UNL     1       0.540  10.168  18.378  0.00  0.00    +0.000 C 
ATOM      5  C   UNL     1       0.864  11.521  19.008  0.00  0.00    +0.000 C 
ATOM      6  C   UNL     1       0.283  11.643  20.433  0.00  0.00    +0.000 C 
ATOM      7  C   UNL     1       0.791  10.447  21.263  0.00  0.00    +0.000 C 
ATOM      8  C   UNL     1       0.424   9.116  20.607  0.00  0.00    +0.000 C 
ENDROOT
BRANCH   6   9
ATOM      9  N   UNL     1      -1.185  11.758  20.369  0.00  0.00    +0.000 NA
ATOM     10  H   UNL     1      -1.641  10.967  20.818  0.00  0.00    +0.000 HD
BRANCH   9  11
ATOM     11  C   UNL     1      -1.697  12.993  20.954  0.00  0.00    +0.000 C 
BRANCH  11  12
ATOM     12  C   UNL     1      -2.712  12.640  21.985  0.00  0.00    +0.000 A 
ATOM     13  C   UNL     1      -2.497  12.122  23.247  0.00  0.00    +0.000 A 
ATOM     14  N   UNL     1      -3.724  12.019  23.832  0.00  0.00    +0.000 N 
ATOM     15  N   UNL     1      -4.728  12.426  23.044  0.00  0.00    +0.000 NA
ATOM     16  C   UNL     1      -4.123  12.801  21.910  0.00  0.00    +0.000 A 
ATOM     17  C   UNL     1      -4.914  13.320  20.768  0.00  0.00    +0.000 C 
ATOM     18  H   UNL     1      -3.951  11.691  24.765  0.00  0.00    +0.000 HD
ENDBRANCH  11  12
ENDBRANCH   9  11
ENDBRANCH   6   9
BRANCH   1  19
ATOM     19  C   UNL     1       2.411   7.086  19.704  0.00  0.00    +0.000 C 
BRANCH  19  24
ATOM     20  C   UNL     1       4.951   4.518  18.491  0.00  0.00    +0.000 A 
ATOM     21  C   UNL     1       4.170   3.729  17.646  0.00  0.00    +0.000 A 
ATOM     22  C   UNL     1       2.817   4.016  17.456  0.00  0.00    +0.000 A 
ATOM     23  C   UNL     1       2.236   5.105  18.106  0.00  0.00    +0.000 A 
ATOM     24  C   UNL     1       3.006   5.923  18.942  0.00  0.00    +0.000 A 
ATOM     25  C   UNL     1       4.364   5.606  19.141  0.00  0.00    +0.000 A 
BRANCH  20  27
ATOM     26  C   UNL     1       7.209   4.854  17.825  0.00  0.00    +0.000 C 
ATOM     27  O   UNL     1       6.259   4.130  18.595  0.00  0.00    +0.000 OA
ENDBRANCH  20  27
ENDBRANCH  19  24
ENDBRANCH   1  19
TORSDOF 6
ENDMDL
MODEL 9
REMARK VINA RESULT:      -7.0      7.040      9.781
REMARK  Name = 
REMARK  8 active torsions:
REMARK  status: ('A' for Active; 'I' for Inactive)
REMARK    1  A    between atoms: C_1  and  O_2
REMARK    2  A    between atoms: O_2  and  C_3
REMARK    3  A    between atoms: C_7  and  C_8
REMARK    4  A    between atoms: C_8  and  C_9
REMARK    5  A    between atoms: C_14  and  N_15
REMARK    6  A    between atoms: N_15  and  C_16
REMARK    7  A    between atoms: C_16  and  C_17
REMARK    8  A    between atoms: C_21  and  C_22
REMARK                            x       y       z     vdW  Elec       q    Type
REMARK                         _______ _______ _______ _____ _____    ______ ____
ROOT
ATOM      1  C   UNL     1       1.943   7.576  19.716  0.00  0.00    +0.000 C 
ATOM      2  O   UNL     1       1.921   6.605  20.473  0.00  0.00    +0.000 OA
ATOM      3  N   UNL     1       1.588   8.853  20.142  0.00  0.00    +0.000 N 
ATOM      4  C   UNL     1       1.276   9.061  21.558  0.00  0.00    +0.000 C 
ATOM      5  C   UNL     1      -0.225   9.263  21.758  0.00  0.00    +0.000 C 
ATOM      6  C   UNL     1      -0.775  10.394  20.863  0.00  0.00    +0.000 C 
ATOM      7  C   UNL     1      -0.392  10.081  19.402  0.00  0.00    +0.000 C 
ATOM      8  C   UNL     1       1.118   9.910  19.246  0.00  0.00    +0.000 C 
ENDROOT
BRANCH   6   9
ATOM      9  N   UNL     1      -0.295  11.698  21.351  0.00  0.00    +0.000 NA
ATOM     10  H   UNL     1       0.598  11.948  20.931  0.00  0.00    +0.000 HD
BRANCH   9  11
ATOM     11  C   UNL     1      -1.242  12.787  21.127  0.00  0.00    +0.000 C 
BRANCH  11  12
ATOM     12  C   UNL     1      -2.441  12.549  21.979  0.00  0.00    +0.000 A 
ATOM     13  C   UNL     1      -2.479  12.204  23.316  0.00  0.00    +0.000 A 
ATOM     14  N   UNL     1      -3.797  12.152  23.659  0.00  0.00    +0.000 N 
ATOM     15  N   UNL     1      -4.626  12.431  22.644  0.00  0.00    +0.000 NA
ATOM     16  C   UNL     1      -3.809  12.668  21.611  0.00  0.00    +0.000 A 
ATOM     17  C   UNL     1      -4.359  13.017  20.278  0.00  0.00    +0.000 C 
ATOM     18  H   UNL     1      -4.203  11.943  24.565  0.00  0.00    +0.000 HD
ENDBRANCH  11  12
ENDBRANCH   9  11
ENDBRANCH   6   9
BRANCH   1  19
ATOM     19  C   UNL     1       2.435   7.415  18.286  0.00  0.00    +0.000 C 
BRANCH  19  24
ATOM     20  C   UNL     1       4.712   4.550  17.223  0.00  0.00    +0.000 A 
ATOM     21  C   UNL     1       3.828   3.471  17.232  0.00  0.00    +0.000 A 
ATOM     22  C   UNL     1       2.488   3.654  17.578  0.00  0.00    +0.000 A 
ATOM     23  C   UNL     1       2.019   4.925  17.911  0.00  0.00    +0.000 A 
ATOM     24  C   UNL     1       2.885   6.027  17.889  0.00  0.00    +0.000 A 
ATOM     25  C   UNL     1       4.239   5.820  17.559  0.00  0.00    +0.000 A 
BRANCH  20  27
ATOM     26  C   UNL     1       7.038   4.875  17.603  0.00  0.00    +0.000 C 
ATOM     27  O   UNL     1       5.997   4.239  16.871  0.00  0.00    +0.000 OA
ENDBRANCH  20  27
ENDBRANCH  19  24
ENDBRANCH   1  19
TORSDOF 6
ENDMDL
