MODEL 1
REMARK VINA RESULT:      -7.6      0.000      0.000
REMARK  Name = 
REMARK  7 active torsions:
REMARK  status: ('A' for Active; 'I' for Inactive)
REMARK    1  A    between atoms: C_2  and  C_3
REMARK    2  A    between atoms: C_3  and  O_4
REMARK    3  A    between atoms: O_4  and  C_5
REMARK    4  A    between atoms: C_5  and  C_7
REMARK    5  A    between atoms: C_8  and  C_9
REMARK    6  A    between atoms: N_16  and  C_17
REMARK    7  A    between atoms: C_17  and  C_18
REMARK                            x       y       z     vdW  Elec       q    Type
REMARK                         _______ _______ _______ _____ _____    ______ ____
ROOT
ATOM      1  O   UNL     1       6.648   7.402  16.575  0.00  0.00    +0.000 OA
ENDROOT
BRANCH   1   2
ATOM      2  C   UNL     1       7.502   7.428  17.621  0.00  0.00    +0.000 C 
ATOM      3  O   UNL     1       7.830   6.465  18.299  0.00  0.00    +0.000 OA
BRANCH   2   4
ATOM      4  C   UNL     1       7.986   8.811  17.817  0.00  0.00    +0.000 C 
ATOM      5  C   UNL     1       8.825   9.077  18.830  0.00  0.00    +0.000 C 
BRANCH   5   6
ATOM      6  C   UNL     1       9.401  10.398  19.133  0.00  0.00    +0.000 A 
ATOM      7  C   UNL     1       9.458  10.920  20.433  0.00  0.00    +0.000 A 
ATOM      8  C   UNL     1      10.045  12.165  20.679  0.00  0.00    +0.000 A 
ATOM      9  C   UNL     1      10.593  12.901  19.630  0.00  0.00    +0.000 A 
ATOM     10  C   UNL     1      10.556  12.383  18.338  0.00  0.00    +0.000 A 
ATOM     11 BR   UNL     1      11.310  13.372  16.913  0.00  0.00    +0.000 Br
ATOM     12  C   UNL     1       9.971  11.139  18.087  0.00  0.00    +0.000 A 
ENDBRANCH   5   6
ENDBRANCH   2   4
ENDBRANCH   1   2
BRANCH   1  13
ATOM     13  C   UNL     1       5.781   6.267  16.548  0.00  0.00    +0.000 C 
BRANCH  13  15
ATOM     14  O   UNL     1       3.678   7.131  17.370  0.00  0.00    +0.000 OA
ATOM     15  C   UNL     1       4.623   6.368  17.547  0.00  0.00    +0.000 C 
ATOM     16  N   UNL     1       4.736   5.539  18.640  0.00  0.00    +0.000 N 
ATOM     17  H   UNL     1       5.460   4.825  18.633  0.00  0.00    +0.000 HD
BRANCH  16  18
ATOM     18  C   UNL     1       3.722   5.461  19.668  0.00  0.00    +0.000 C 
BRANCH  18  19
ATOM     19  C   UNL     1       2.882   4.248  19.421  0.00  0.00    +0.000 A 
ATOM     20  C   UNL     1       1.550   4.192  19.051  0.00  0.00    +0.000 A 
ATOM     21  C   UNL     1       1.080   2.855  18.902  0.00  0.00    +0.000 A 
ATOM     22  C   UNL     1       2.069   1.932  19.155  0.00  0.00    +0.000 A 
ATOM     23  S   UNL     1       3.553   2.676  19.566  0.00  0.00    +0.000 S 
ENDBRANCH  18  19
ENDBRANCH  16  18
ENDBRANCH  13  15
ENDBRANCH   1  13
TORSDOF 7
ENDMDL
MODEL 2
REMARK VINA RESULT:      -7.4      1.503      1.849
REMARK  Name = 
REMARK  7 active torsions:
REMARK  status: ('A' for Active; 'I' for Inactive)
REMARK    1  A    between atoms: C_2  and  C_3
REMARK    2  A    between atoms: C_3  and  O_4
REMARK    3  A    between atoms: O_4  and  C_5
REMARK    4  A    between atoms: C_5  and  C_7
REMARK    5  A    between atoms: C_8  and  C_9
REMARK    6  A    between atoms: N_16  and  C_17
REMARK    7  A    between atoms: C_17  and  C_18
REMARK                            x       y       z     vdW  Elec       q    Type
REMARK                         _______ _______ _______ _____ _____    ______ ____
ROOT
ATOM      1  O   UNL     1       7.775   6.056  16.876  0.00  0.00    +0.000 OA
ENDROOT
BRANCH   1   2
ATOM      2  C   UNL     1       7.132   7.097  17.449  0.00  0.00    +0.000 C 
ATOM      3  O   UNL     1       5.928   7.302  17.409  0.00  0.00    +0.000 OA
BRANCH   2   4
ATOM      4  C   UNL     1       8.119   7.953  18.141  0.00  0.00    +0.000 C 
ATOM      5  C   UNL     1       8.126   9.274  17.903  0.00  0.00    +0.000 C 
BRANCH   5   6
ATOM      6  C   UNL     1       9.034  10.247  18.532  0.00  0.00    +0.000 A 
ATOM      7  C   UNL     1       9.220  10.323  19.919  0.00  0.00    +0.000 A 
ATOM      8  C   UNL     1      10.119  11.241  20.472  0.00  0.00    +0.000 A 
ATOM      9  C   UNL     1      10.854  12.087  19.643  0.00  0.00    +0.000 A 
ATOM     10  C   UNL     1      10.689  12.006  18.263  0.00  0.00    +0.000 A 
ATOM     11 BR   UNL     1      11.694  13.143  17.134  0.00  0.00    +0.000 Br
ATOM     12  C   UNL     1       9.791  11.091  17.706  0.00  0.00    +0.000 A 
ENDBRANCH   5   6
ENDBRANCH   2   4
ENDBRANCH   1   2
BRANCH   1  13
ATOM     13  C   UNL     1       7.455   4.782  17.440  0.00  0.00    +0.000 C 
BRANCH  13  15
ATOM     14  O   UNL     1       6.152   3.806  15.652  0.00  0.00    +0.000 OA
ATOM     15  C   UNL     1       6.199   4.151  16.830  0.00  0.00    +0.000 C 
ATOM     16  N   UNL     1       5.148   4.007  17.706  0.00  0.00    +0.000 N 
ATOM     17  H   UNL     1       5.317   4.164  18.697  0.00  0.00    +0.000 HD
BRANCH  16  18
ATOM     18  C   UNL     1       3.895   3.393  17.328  0.00  0.00    +0.000 C 
BRANCH  18  19
ATOM     19  C   UNL     1       2.905   3.602  18.431  0.00  0.00    +0.000 A 
ATOM     20  C   UNL     1       2.570   4.785  19.065  0.00  0.00    +0.000 A 
ATOM     21  C   UNL     1       1.580   4.603  20.073  0.00  0.00    +0.000 A 
ATOM     22  C   UNL     1       1.183   3.288  20.172  0.00  0.00    +0.000 A 
ATOM     23  S   UNL     1       2.000   2.285  19.054  0.00  0.00    +0.000 S 
ENDBRANCH  18  19
ENDBRANCH  16  18
ENDBRANCH  13  15
ENDBRANCH   1  13
TORSDOF 7
ENDMDL
MODEL 3
REMARK VINA RESULT:      -7.4      1.476      1.823
REMARK  Name = 
REMARK  7 active torsions:
REMARK  status: ('A' for Active; 'I' for Inactive)
REMARK    1  A    between atoms: C_2  and  C_3
REMARK    2  A    between atoms: C_3  and  O_4
REMARK    3  A    between atoms: O_4  and  C_5
REMARK    4  A    between atoms: C_5  and  C_7
REMARK    5  A    between atoms: C_8  and  C_9
REMARK    6  A    between atoms: N_16  and  C_17
REMARK    7  A    between atoms: C_17  and  C_18
REMARK                            x       y       z     vdW  Elec       q    Type
REMARK                         _______ _______ _______ _____ _____    ______ ____
ROOT
ATOM      1  O   UNL     1       6.502   6.833  18.201  0.00  0.00    +0.000 OA
ENDROOT
BRANCH   1   2
ATOM      2  C   UNL     1       7.386   7.295  17.289  0.00  0.00    +0.000 C 
ATOM      3  O   UNL     1       7.799   6.678  16.319  0.00  0.00    +0.000 OA
BRANCH   2   4
ATOM      4  C   UNL     1       7.772   8.676  17.648  0.00  0.00    +0.000 C 
ATOM      5  C   UNL     1       8.751   8.873  18.547  0.00  0.00    +0.000 C 
BRANCH   5   6
ATOM      6  C   UNL     1       9.252  10.186  18.985  0.00  0.00    +0.000 A 
ATOM      7  C   UNL     1       9.252  10.587  20.328  0.00  0.00    +0.000 A 
ATOM      8  C   UNL     1       9.769  11.831  20.703  0.00  0.00    +0.000 A 
ATOM      9  C   UNL     1      10.304  12.686  19.742  0.00  0.00    +0.000 A 
ATOM     10  C   UNL     1      10.325  12.288  18.407  0.00  0.00    +0.000 A 
ATOM     11 BR   UNL     1      11.062  13.440  17.100  0.00  0.00    +0.000 Br
ATOM     12  C   UNL     1       9.809  11.047  18.027  0.00  0.00    +0.000 A 
ENDBRANCH   5   6
ENDBRANCH   2   4
ENDBRANCH   1   2
BRANCH   1  13
ATOM     13  C   UNL     1       5.376   6.155  17.640  0.00  0.00    +0.000 C 
BRANCH  13  15
ATOM     14  O   UNL     1       6.060   4.197  18.881  0.00  0.00    +0.000 OA
ATOM     15  C   UNL     1       5.229   4.714  18.139  0.00  0.00    +0.000 C 
ATOM     16  N   UNL     1       4.103   4.064  17.691  0.00  0.00    +0.000 N 
ATOM     17  H   UNL     1       3.386   4.608  17.216  0.00  0.00    +0.000 HD
BRANCH  16  18
ATOM     18  C   UNL     1       3.769   2.714  18.089  0.00  0.00    +0.000 C 
BRANCH  18  19
ATOM     19  C   UNL     1       2.944   2.772  19.336  0.00  0.00    +0.000 A 
ATOM     20  C   UNL     1       3.358   2.593  20.643  0.00  0.00    +0.000 A 
ATOM     21  C   UNL     1       2.290   2.723  21.577  0.00  0.00    +0.000 A 
ATOM     22  C   UNL     1       1.095   3.006  20.955  0.00  0.00    +0.000 A 
ATOM     23  S   UNL     1       1.265   3.115  19.256  0.00  0.00    +0.000 S 
ENDBRANCH  18  19
ENDBRANCH  16  18
ENDBRANCH  13  15
ENDBRANCH   1  13
TORSDOF 7
ENDMDL
MODEL 4
REMARK VINA RESULT:      -7.4      4.506      9.319
REMARK  Name = 
REMARK  7 active torsions:
REMARK  status: ('A' for Active; 'I' for Inactive)
REMARK    1  A    between atoms: C_2  and  C_3
REMARK    2  A    between atoms: C_3  and  O_4
REMARK    3  A    between atoms: O_4  and  C_5
REMARK    4  A    between atoms: C_5  and  C_7
REMARK    5  A    between atoms: C_8  and  C_9
REMARK    6  A    between atoms: N_16  and  C_17
REMARK    7  A    between atoms: C_17  and  C_18
REMARK                            x       y       z     vdW  Elec       q    Type
REMARK                         _______ _______ _______ _____ _____    ______ ____
ROOT
ATOM      1  O   UNL     1       7.568   6.284  16.281  0.00  0.00    +0.000 OA
ENDROOT
BRANCH   1   2
ATOM      2  C   UNL     1       7.241   5.084  16.808  0.00  0.00    +0.000 C 
ATOM      3  O   UNL     1       8.017   4.167  17.033  0.00  0.00    +0.000 OA
BRANCH   2   4
ATOM      4  C   UNL     1       5.788   5.054  17.078  0.00  0.00    +0.000 C 
ATOM      5  C   UNL     1       5.290   4.116  17.900  0.00  0.00    +0.000 C 
BRANCH   5   6
ATOM      6  C   UNL     1       3.873   3.979  18.274  0.00  0.00    +0.000 A 
ATOM      7  C   UNL     1       2.825   4.236  17.380  0.00  0.00    +0.000 A 
ATOM      8  C   UNL     1       1.493   4.060  17.769  0.00  0.00    +0.000 A 
ATOM      9  C   UNL     1       1.191   3.611  19.053  0.00  0.00    +0.000 A 
ATOM     10  C   UNL     1       2.227   3.336  19.942  0.00  0.00    +0.000 A 
ATOM     11 BR   UNL     1       1.823   2.716  21.683  0.00  0.00    +0.000 Br
ATOM     12  C   UNL     1       3.559   3.512  19.560  0.00  0.00    +0.000 A 
ENDBRANCH   5   6
ENDBRANCH   2   4
ENDBRANCH   1   2
BRANCH   1  13
ATOM     13  C   UNL     1       7.046   7.405  16.998  0.00  0.00    +0.000 C 
BRANCH  13  15
ATOM     14  O   UNL     1       8.472   7.168  18.935  0.00  0.00    +0.000 OA
ATOM     15  C   UNL     1       7.992   7.917  18.089  0.00  0.00    +0.000 C 
ATOM     16  N   UNL     1       8.252   9.267  18.034  0.00  0.00    +0.000 N 
ATOM     17  H   UNL     1       7.951   9.786  17.213  0.00  0.00    +0.000 HD
BRANCH  16  18
ATOM     18  C   UNL     1       9.156   9.926  18.951  0.00  0.00    +0.000 C 
BRANCH  18  19
ATOM     19  C   UNL     1       9.572  11.235  18.357  0.00  0.00    +0.000 A 
ATOM     20  C   UNL     1       8.766  12.275  17.930  0.00  0.00    +0.000 A 
ATOM     21  C   UNL     1       9.517  13.373  17.419  0.00  0.00    +0.000 A 
ATOM     22  C   UNL     1      10.872  13.141  17.478  0.00  0.00    +0.000 A 
ATOM     23  S   UNL     1      11.233  11.610  18.149  0.00  0.00    +0.000 S 
ENDBRANCH  18  19
ENDBRANCH  16  18
ENDBRANCH  13  15
ENDBRANCH   1  13
TORSDOF 7
ENDMDL
MODEL 5
REMARK VINA RESULT:      -7.2      1.424      1.570
REMARK  Name = 
REMARK  7 active torsions:
REMARK  status: ('A' for Active; 'I' for Inactive)
REMARK    1  A    between atoms: C_2  and  C_3
REMARK    2  A    between atoms: C_3  and  O_4
REMARK    3  A    between atoms: O_4  and  C_5
REMARK    4  A    between atoms: C_5  and  C_7
REMARK    5  A    between atoms: C_8  and  C_9
REMARK    6  A    between atoms: N_16  and  C_17
REMARK    7  A    between atoms: C_17  and  C_18
REMARK                            x       y       z     vdW  Elec       q    Type
REMARK                         _______ _______ _______ _____ _____    ______ ____
ROOT
ATOM      1  O   UNL     1       7.265   7.483  16.951  0.00  0.00    +0.000 OA
ENDROOT
BRANCH   1   2
ATOM      2  C   UNL     1       8.014   7.750  18.044  0.00  0.00    +0.000 C 
ATOM      3  O   UNL     1       8.329   6.945  18.908  0.00  0.00    +0.000 OA
BRANCH   2   4
ATOM      4  C   UNL     1       8.401   9.176  18.028  0.00  0.00    +0.000 C 
ATOM      5  C   UNL     1       9.150   9.666  19.029  0.00  0.00    +0.000 C 
BRANCH   5   6
ATOM      6  C   UNL     1       9.624  11.056  19.135  0.00  0.00    +0.000 A 
ATOM      7  C   UNL     1       9.268  11.900  20.196  0.00  0.00    +0.000 A 
ATOM      8  C   UNL     1       9.769  13.203  20.274  0.00  0.00    +0.000 A 
ATOM      9  C   UNL     1      10.644  13.676  19.298  0.00  0.00    +0.000 A 
ATOM     10  C   UNL     1      11.018  12.839  18.250  0.00  0.00    +0.000 A 
ATOM     11 BR   UNL     1      12.215  13.473  16.929  0.00  0.00    +0.000 Br
ATOM     12  C   UNL     1      10.519  11.537  18.167  0.00  0.00    +0.000 A 
ENDBRANCH   5   6
ENDBRANCH   2   4
ENDBRANCH   1   2
BRANCH   1  13
ATOM     13  C   UNL     1       5.967   6.960  17.238  0.00  0.00    +0.000 C 
BRANCH  13  15
ATOM     14  O   UNL     1       6.844   4.719  17.005  0.00  0.00    +0.000 OA
ATOM     15  C   UNL     1       5.858   5.451  16.996  0.00  0.00    +0.000 C 
ATOM     16  N   UNL     1       4.578   4.998  16.774  0.00  0.00    +0.000 N 
ATOM     17  H   UNL     1       3.802   5.634  16.943  0.00  0.00    +0.000 HD
BRANCH  16  18
ATOM     18  C   UNL     1       4.269   3.600  16.569  0.00  0.00    +0.000 C 
BRANCH  18  19
ATOM     19  C   UNL     1       3.160   3.213  17.498  0.00  0.00    +0.000 A 
ATOM     20  C   UNL     1       1.972   3.880  17.735  0.00  0.00    +0.000 A 
ATOM     21  C   UNL     1       1.150   3.211  18.687  0.00  0.00    +0.000 A 
ATOM     22  C   UNL     1       1.733   2.050  19.142  0.00  0.00    +0.000 A 
ATOM     23  S   UNL     1       3.258   1.771  18.421  0.00  0.00    +0.000 S 
ENDBRANCH  18  19
ENDBRANCH  16  18
ENDBRANCH  13  15
ENDBRANCH   1  13
TORSDOF 7
ENDMDL
MODEL 6
REMARK VINA RESULT:      -7.2      1.460      1.765
REMARK  Name = 
REMARK  7 active torsions:
REMARK  status: ('A' for Active; 'I' for Inactive)
REMARK    1  A    between atoms: C_2  and  C_3
REMARK    2  A    between atoms: C_3  and  O_4
REMARK    3  A    between atoms: O_4  and  C_5
REMARK    4  A    between atoms: C_5  and  C_7
REMARK    5  A    between atoms: C_8  and  C_9
REMARK    6  A    between atoms: N_16  and  C_17
REMARK    7  A    between atoms: C_17  and  C_18
REMARK                            x       y       z     vdW  Elec       q    Type
REMARK                         _______ _______ _______ _____ _____    ______ ____
ROOT
ATOM      1  O   UNL     1       6.639   6.510  17.253  0.00  0.00    +0.000 OA
ENDROOT
BRANCH   1   2
ATOM      2  C   UNL     1       7.580   6.981  18.100  0.00  0.00    +0.000 C 
ATOM      3  O   UNL     1       8.087   6.359  19.022  0.00  0.00    +0.000 OA
BRANCH   2   4
ATOM      4  C   UNL     1       7.908   8.374  17.731  0.00  0.00    +0.000 C 
ATOM      5  C   UNL     1       8.610   9.134  18.588  0.00  0.00    +0.000 C 
BRANCH   5   6
ATOM      6  C   UNL     1       9.024  10.526  18.347  0.00  0.00    +0.000 A 
ATOM      7  C   UNL     1       8.213  11.452  17.675  0.00  0.00    +0.000 A 
ATOM      8  C   UNL     1       8.634  12.774  17.498  0.00  0.00    +0.000 A 
ATOM      9  C   UNL     1       9.864  13.192  18.001  0.00  0.00    +0.000 A 
ATOM     10  C   UNL     1      10.668  12.284  18.685  0.00  0.00    +0.000 A 
ATOM     11 BR   UNL     1      12.333  12.849  19.381  0.00  0.00    +0.000 Br
ATOM     12  C   UNL     1      10.253  10.961  18.864  0.00  0.00    +0.000 A 
ENDBRANCH   5   6
ENDBRANCH   2   4
ENDBRANCH   1   2
BRANCH   1  13
ATOM     13  C   UNL     1       5.297   6.835  17.622  0.00  0.00    +0.000 C 
BRANCH  13  15
ATOM     14  O   UNL     1       4.551   4.796  16.558  0.00  0.00    +0.000 OA
ATOM     15  C   UNL     1       4.305   5.699  17.354  0.00  0.00    +0.000 C 
ATOM     16  N   UNL     1       3.136   5.777  18.075  0.00  0.00    +0.000 N 
ATOM     17  H   UNL     1       3.076   6.458  18.828  0.00  0.00    +0.000 HD
BRANCH  16  18
ATOM     18  C   UNL     1       2.098   4.773  17.992  0.00  0.00    +0.000 C 
BRANCH  18  19
ATOM     19  C   UNL     1       2.058   4.017  19.282  0.00  0.00    +0.000 A 
ATOM     20  C   UNL     1       1.001   3.889  20.165  0.00  0.00    +0.000 A 
ATOM     21  C   UNL     1       1.328   3.085  21.296  0.00  0.00    +0.000 A 
ATOM     22  C   UNL     1       2.621   2.618  21.237  0.00  0.00    +0.000 A 
ATOM     23  S   UNL     1       3.431   3.145  19.826  0.00  0.00    +0.000 S 
ENDBRANCH  18  19
ENDBRANCH  16  18
ENDBRANCH  13  15
ENDBRANCH   1  13
TORSDOF 7
ENDMDL
MODEL 7
REMARK VINA RESULT:      -7.2      1.411      1.572
REMARK  Name = 
REMARK  7 active torsions:
REMARK  status: ('A' for Active; 'I' for Inactive)
REMARK    1  A    between atoms: C_2  and  C_3
REMARK    2  A    between atoms: C_3  and  O_4
REMARK    3  A    between atoms: O_4  and  C_5
REMARK    4  A    between atoms: C_5  and  C_7
REMARK    5  A    between atoms: C_8  and  C_9
REMARK    6  A    between atoms: N_16  and  C_17
REMARK    7  A    between atoms: C_17  and  C_18
REMARK                            x       y       z     vdW  Elec       q    Type
REMARK                         _______ _______ _______ _____ _____    ______ ____
ROOT
ATOM      1  O   UNL     1       6.406   6.577  18.042  0.00  0.00    +0.000 OA
ENDROOT
BRANCH   1   2
ATOM      2  C   UNL     1       7.462   7.117  17.395  0.00  0.00    +0.000 C 
ATOM      3  O   UNL     1       7.830   6.830  16.265  0.00  0.00    +0.000 OA
BRANCH   2   4
ATOM      4  C   UNL     1       8.104   8.121  18.269  0.00  0.00    +0.000 C 
ATOM      5  C   UNL     1       8.369   9.345  17.783  0.00  0.00    +0.000 C 
BRANCH   5   6
ATOM      6  C   UNL     1       8.984  10.446  18.541  0.00  0.00    +0.000 A 
ATOM      7  C   UNL     1       9.603  10.258  19.785  0.00  0.00    +0.000 A 
ATOM      8  C   UNL     1      10.204  11.328  20.454  0.00  0.00    +0.000 A 
ATOM      9  C   UNL     1      10.207  12.599  19.884  0.00  0.00    +0.000 A 
ATOM     10  C   UNL     1       9.611  12.792  18.640  0.00  0.00    +0.000 A 
ATOM     11 BR   UNL     1       9.622  14.513  17.855  0.00  0.00    +0.000 Br
ATOM     12  C   UNL     1       9.008  11.726  17.967  0.00  0.00    +0.000 A 
ENDBRANCH   5   6
ENDBRANCH   2   4
ENDBRANCH   1   2
BRANCH   1  13
ATOM     13  C   UNL     1       5.150   6.777  17.392  0.00  0.00    +0.000 C 
BRANCH  13  15
ATOM     14  O   UNL     1       4.774   4.500  16.671  0.00  0.00    +0.000 OA
ATOM     15  C   UNL     1       4.332   5.489  17.251  0.00  0.00    +0.000 C 
ATOM     16  N   UNL     1       3.082   5.538  17.822  0.00  0.00    +0.000 N 
ATOM     17  H   UNL     1       2.853   6.328  18.421  0.00  0.00    +0.000 HD
BRANCH  16  18
ATOM     18  C   UNL     1       2.181   4.406  17.830  0.00  0.00    +0.000 C 
BRANCH  18  19
ATOM     19  C   UNL     1       2.205   3.784  19.191  0.00  0.00    +0.000 A 
ATOM     20  C   UNL     1       1.241   3.855  20.180  0.00  0.00    +0.000 A 
ATOM     21  C   UNL     1       1.607   3.131  21.352  0.00  0.00    +0.000 A 
ATOM     22  C   UNL     1       2.835   2.523  21.218  0.00  0.00    +0.000 A 
ATOM     23  S   UNL     1       3.538   2.824  19.688  0.00  0.00    +0.000 S 
ENDBRANCH  18  19
ENDBRANCH  16  18
ENDBRANCH  13  15
ENDBRANCH   1  13
TORSDOF 7
ENDMDL
MODEL 8
REMARK VINA RESULT:      -7.2      4.860      7.131
REMARK  Name = 
REMARK  7 active torsions:
REMARK  status: ('A' for Active; 'I' for Inactive)
REMARK    1  A    between atoms: C_2  and  C_3
REMARK    2  A    between atoms: C_3  and  O_4
REMARK    3  A    between atoms: O_4  and  C_5
REMARK    4  A    between atoms: C_5  and  C_7
REMARK    5  A    between atoms: C_8  and  C_9
REMARK    6  A    between atoms: N_16  and  C_17
REMARK    7  A    between atoms: C_17  and  C_18
REMARK                            x       y       z     vdW  Elec       q    Type
REMARK                         _______ _______ _______ _____ _____    ______ ____
ROOT
ATOM      1  O   UNL     1       2.795   2.610  19.759  0.00  0.00    +0.000 OA
ENDROOT
BRANCH   1   2
ATOM      2  C   UNL     1       3.666   3.611  20.015  0.00  0.00    +0.000 C 
ATOM      3  O   UNL     1       4.879   3.495  20.109  0.00  0.00    +0.000 OA
BRANCH   2   4
ATOM      4  C   UNL     1       2.918   4.878  20.158  0.00  0.00    +0.000 C 
ATOM      5  C   UNL     1       3.101   5.855  19.256  0.00  0.00    +0.000 C 
BRANCH   5   6
ATOM      6  C   UNL     1       2.413   7.157  19.261  0.00  0.00    +0.000 A 
ATOM      7  C   UNL     1       2.287   7.952  18.113  0.00  0.00    +0.000 A 
ATOM      8  C   UNL     1       1.596   9.167  18.157  0.00  0.00    +0.000 A 
ATOM      9  C   UNL     1       1.011   9.598  19.345  0.00  0.00    +0.000 A 
ATOM     10  C   UNL     1       1.116   8.806  20.486  0.00  0.00    +0.000 A 
ATOM     11 BR   UNL     1       0.313   9.381  22.099  0.00  0.00    +0.000 Br
ATOM     12  C   UNL     1       1.806   7.592  20.448  0.00  0.00    +0.000 A 
ENDBRANCH   5   6
ENDBRANCH   2   4
ENDBRANCH   1   2
BRANCH   1  13
ATOM     13  C   UNL     1       3.076   1.872  18.568  0.00  0.00    +0.000 C 
BRANCH  13  15
ATOM     14  O   UNL     1       2.499   3.288  16.696  0.00  0.00    +0.000 OA
ATOM     15  C   UNL     1       3.388   2.766  17.364  0.00  0.00    +0.000 C 
ATOM     16  N   UNL     1       4.729   2.930  17.104  0.00  0.00    +0.000 N 
ATOM     17  H   UNL     1       5.400   2.602  17.795  0.00  0.00    +0.000 HD
BRANCH  16  18
ATOM     18  C   UNL     1       5.220   3.773  16.037  0.00  0.00    +0.000 C 
BRANCH  18  19
ATOM     19  C   UNL     1       5.881   4.973  16.639  0.00  0.00    +0.000 A 
ATOM     20  C   UNL     1       5.501   6.299  16.538  0.00  0.00    +0.000 A 
ATOM     21  C   UNL     1       6.373   7.174  17.249  0.00  0.00    +0.000 A 
ATOM     22  C   UNL     1       7.387   6.487  17.879  0.00  0.00    +0.000 A 
ATOM     23  S   UNL     1       7.283   4.801  17.613  0.00  0.00    +0.000 S 
ENDBRANCH  18  19
ENDBRANCH  16  18
ENDBRANCH  13  15
ENDBRANCH   1  13
TORSDOF 7
ENDMDL
MODEL 9
REMARK VINA RESULT:      -7.1      1.107      1.219
REMARK  Name = 
REMARK  7 active torsions:
REMARK  status: ('A' for Active; 'I' for Inactive)
REMARK    1  A    between atoms: C_2  and  C_3
REMARK    2  A    between atoms: C_3  and  O_4
REMARK    3  A    between atoms: O_4  and  C_5
REMARK    4  A    between atoms: C_5  and  C_7
REMARK    5  A    between atoms: C_8  and  C_9
REMARK    6  A    between atoms: N_16  and  C_17
REMARK    7  A    between atoms: C_17  and  C_18
REMARK                            x       y       z     vdW  Elec       q    Type
REMARK                         _______ _______ _______ _____ _____    ______ ____
ROOT
ATOM      1  O   UNL     1       6.123   7.434  17.795  0.00  0.00    +0.000 OA
ENDROOT
BRANCH   1   2
ATOM      2  C   UNL     1       7.367   7.472  17.269  0.00  0.00    +0.000 C 
ATOM      3  O   UNL     1       7.916   6.562  16.667  0.00  0.00    +0.000 OA
BRANCH   2   4
ATOM      4  C   UNL     1       7.963   8.800  17.532  0.00  0.00    +0.000 C 
ATOM      5  C   UNL     1       8.590   9.020  18.699  0.00  0.00    +0.000 C 
BRANCH   5   6
ATOM      6  C   UNL     1       9.243  10.280  19.088  0.00  0.00    +0.000 A 
ATOM      7  C   UNL     1       9.370  10.687  20.424  0.00  0.00    +0.000 A 
ATOM      8  C   UNL     1      10.028  11.877  20.750  0.00  0.00    +0.000 A 
ATOM      9  C   UNL     1      10.580  12.670  19.746  0.00  0.00    +0.000 A 
ATOM     10  C   UNL     1      10.475  12.265  18.418  0.00  0.00    +0.000 A 
ATOM     11 BR   UNL     1      11.234  13.332  17.053  0.00  0.00    +0.000 Br
ATOM     12  C   UNL     1       9.818  11.078  18.087  0.00  0.00    +0.000 A 
ENDBRANCH   5   6
ENDBRANCH   2   4
ENDBRANCH   1   2
BRANCH   1  13
ATOM     13  C   UNL     1       5.162   6.748  16.991  0.00  0.00    +0.000 C 
BRANCH  13  15
ATOM     14  O   UNL     1       3.232   7.558  18.200  0.00  0.00    +0.000 OA
ATOM     15  C   UNL     1       3.798   6.604  17.671  0.00  0.00    +0.000 C 
ATOM     16  N   UNL     1       3.271   5.334  17.637  0.00  0.00    +0.000 N 
ATOM     17  H   UNL     1       3.719   4.639  17.044  0.00  0.00    +0.000 HD
BRANCH  16  18
ATOM     18  C   UNL     1       1.973   5.011  18.188  0.00  0.00    +0.000 C 
BRANCH  18  19
ATOM     19  C   UNL     1       2.167   4.205  19.433  0.00  0.00    +0.000 A 
ATOM     20  C   UNL     1       1.398   4.208  20.583  0.00  0.00    +0.000 A 
ATOM     21  C   UNL     1       1.885   3.303  21.569  0.00  0.00    +0.000 A 
ATOM     22  C   UNL     1       3.007   2.631  21.140  0.00  0.00    +0.000 A 
ATOM     23  S   UNL     1       3.465   3.089  19.557  0.00  0.00    +0.000 S 
ENDBRANCH  18  19
ENDBRANCH  16  18
ENDBRANCH  13  15
ENDBRANCH   1  13
TORSDOF 7
ENDMDL
