MODEL 1
REMARK VINA RESULT:      -6.9      0.000      0.000
REMARK  Name = 
REMARK  7 active torsions:
REMARK  status: ('A' for Active; 'I' for Inactive)
REMARK    1  A    between atoms: C_1  and  C_2
REMARK    2  A    between atoms: C_2  and  C_3
REMARK    3  A    between atoms: C_2  and  N_9
REMARK    4  A    between atoms: C_3  and  N_4
REMARK    5  A    between atoms: N_9  and  C_10
REMARK    6  A    between atoms: C_10  and  C_11
REMARK    7  A    between atoms: C_14  and  C_15
REMARK                            x       y       z     vdW  Elec       q    Type
REMARK                         _______ _______ _______ _____ _____    ______ ____
ROOT
ATOM      1  C   UNL     1       7.356   4.594  17.390  0.00  0.00    +0.000 C 
ENDROOT
BRANCH   1   2
ATOM      2  C   UNL     1       7.109   4.693  15.919  0.00  0.00    +0.000 A 
ATOM      3  N   UNL     1       7.634   5.661  15.157  0.00  0.00    +0.000 NA
ATOM      4  O   UNL     1       7.204   5.320  13.872  0.00  0.00    +0.000 OA
ATOM      5  C   UNL     1       6.450   4.180  13.992  0.00  0.00    +0.000 A 
ATOM      6  N   UNL     1       6.350   3.769  15.241  0.00  0.00    +0.000 NA
BRANCH   5   7
ATOM      7  C   UNL     1       5.854   3.501  12.883  0.00  0.00    +0.000 A 
ATOM      8  C   UNL     1       4.615   3.734  12.307  0.00  0.00    +0.000 A 
ATOM      9  C   UNL     1       4.453   2.797  11.261  0.00  0.00    +0.000 A 
ATOM     10  C   UNL     1       5.603   2.045  11.247  0.00  0.00    +0.000 A 
ATOM     11  O   UNL     1       6.457   2.463  12.216  0.00  0.00    +0.000 OA
ENDBRANCH   5   7
ENDBRANCH   1   2
BRANCH   1  12
ATOM     12  N   UNL     1       6.119   4.156  18.060  0.00  0.00    +0.000 NA
ATOM     13  H   UNL     1       5.454   3.891  17.328  0.00  0.00    +0.000 HD
BRANCH  12  15
ATOM     14  C   UNL     1       5.657   6.518  18.205  0.00  0.00    +0.000 C 
ATOM     15  C   UNL     1       5.512   5.176  18.938  0.00  0.00    +0.000 C 
BRANCH  15  16
ATOM     16  C   UNL     1       4.031   4.867  19.252  0.00  0.00    +0.000 C 
BRANCH  16  17
ATOM     17  N   UNL     1       3.562   3.589  18.770  0.00  0.00    +0.000 N 
ATOM     18  C   UNL     1       2.661   3.359  17.779  0.00  0.00    +0.000 A 
ATOM     19  N   UNL     1       2.558   2.068  17.571  0.00  0.00    +0.000 NA
ATOM     20  C   UNL     1       3.446   1.542  18.466  0.00  0.00    +0.000 A 
ATOM     21  N   UNL     1       4.089   2.436  19.224  0.00  0.00    +0.000 NA
ENDBRANCH  16  17
ENDBRANCH  15  16
ENDBRANCH  12  15
ENDBRANCH   1  12
TORSDOF 6
ENDMDL
MODEL 2
REMARK VINA RESULT:      -6.9      1.579      1.769
REMARK  Name = 
REMARK  7 active torsions:
REMARK  status: ('A' for Active; 'I' for Inactive)
REMARK    1  A    between atoms: C_1  and  C_2
REMARK    2  A    between atoms: C_2  and  C_3
REMARK    3  A    between atoms: C_2  and  N_9
REMARK    4  A    between atoms: C_3  and  N_4
REMARK    5  A    between atoms: N_9  and  C_10
REMARK    6  A    between atoms: C_10  and  C_11
REMARK    7  A    between atoms: C_14  and  C_15
REMARK                            x       y       z     vdW  Elec       q    Type
REMARK                         _______ _______ _______ _____ _____    ______ ____
ROOT
ATOM      1  C   UNL     1       6.590   5.285  17.575  0.00  0.00    +0.000 C 
ENDROOT
BRANCH   1   2
ATOM      2  C   UNL     1       6.694   5.129  16.093  0.00  0.00    +0.000 A 
ATOM      3  N   UNL     1       7.610   5.771  15.356  0.00  0.00    +0.000 NA
ATOM      4  O   UNL     1       7.384   5.278  14.069  0.00  0.00    +0.000 OA
ATOM      5  C   UNL     1       6.341   4.391  14.158  0.00  0.00    +0.000 A 
ATOM      6  N   UNL     1       5.873   4.283  15.386  0.00  0.00    +0.000 NA
BRANCH   5   7
ATOM      7  C   UNL     1       5.829   3.651  13.046  0.00  0.00    +0.000 A 
ATOM      8  C   UNL     1       6.491   2.713  12.270  0.00  0.00    +0.000 A 
ATOM      9  C   UNL     1       5.587   2.276  11.274  0.00  0.00    +0.000 A 
ATOM     10  C   UNL     1       4.419   2.963  11.498  0.00  0.00    +0.000 A 
ATOM     11  O   UNL     1       4.550   3.791  12.565  0.00  0.00    +0.000 OA
ENDBRANCH   5   7
ENDBRANCH   1   2
BRANCH   1  12
ATOM     12  N   UNL     1       6.166   4.004  18.167  0.00  0.00    +0.000 NA
ATOM     13  H   UNL     1       5.921   3.377  17.395  0.00  0.00    +0.000 HD
BRANCH  12  15
ATOM     14  C   UNL     1       4.311   5.431  18.749  0.00  0.00    +0.000 C 
ATOM     15  C   UNL     1       5.025   4.116  19.098  0.00  0.00    +0.000 C 
BRANCH  15  16
ATOM     16  C   UNL     1       4.063   2.912  18.988  0.00  0.00    +0.000 C 
BRANCH  16  17
ATOM     17  N   UNL     1       2.897   2.987  19.836  0.00  0.00    +0.000 N 
ATOM     18  C   UNL     1       1.603   3.143  19.450  0.00  0.00    +0.000 A 
ATOM     19  N   UNL     1       0.821   3.077  20.502  0.00  0.00    +0.000 NA
ATOM     20  C   UNL     1       1.701   2.860  21.524  0.00  0.00    +0.000 A 
ATOM     21  N   UNL     1       2.987   2.794  21.166  0.00  0.00    +0.000 NA
ENDBRANCH  16  17
ENDBRANCH  15  16
ENDBRANCH  12  15
ENDBRANCH   1  12
TORSDOF 6
ENDMDL
MODEL 3
REMARK VINA RESULT:      -6.9      1.965      3.503
REMARK  Name = 
REMARK  7 active torsions:
REMARK  status: ('A' for Active; 'I' for Inactive)
REMARK    1  A    between atoms: C_1  and  C_2
REMARK    2  A    between atoms: C_2  and  C_3
REMARK    3  A    between atoms: C_2  and  N_9
REMARK    4  A    between atoms: C_3  and  N_4
REMARK    5  A    between atoms: N_9  and  C_10
REMARK    6  A    between atoms: C_10  and  C_11
REMARK    7  A    between atoms: C_14  and  C_15
REMARK                            x       y       z     vdW  Elec       q    Type
REMARK                         _______ _______ _______ _____ _____    ______ ____
ROOT
ATOM      1  C   UNL     1       5.284   4.282  19.203  0.00  0.00    +0.000 C 
ENDROOT
BRANCH   1   2
ATOM      2  C   UNL     1       6.225   4.442  18.053  0.00  0.00    +0.000 A 
ATOM      3  N   UNL     1       7.554   4.517  18.205  0.00  0.00    +0.000 NA
ATOM      4  O   UNL     1       8.019   4.587  16.889  0.00  0.00    +0.000 OA
ATOM      5  C   UNL     1       6.917   4.557  16.073  0.00  0.00    +0.000 A 
ATOM      6  N   UNL     1       5.788   4.487  16.750  0.00  0.00    +0.000 NA
BRANCH   5   7
ATOM      7  C   UNL     1       6.985   4.581  14.644  0.00  0.00    +0.000 A 
ATOM      8  C   UNL     1       6.257   3.821  13.743  0.00  0.00    +0.000 A 
ATOM      9  C   UNL     1       6.691   4.175  12.445  0.00  0.00    +0.000 A 
ATOM     10  C   UNL     1       7.656   5.138  12.619  0.00  0.00    +0.000 A 
ATOM     11  O   UNL     1       7.838   5.395  13.939  0.00  0.00    +0.000 OA
ENDBRANCH   5   7
ENDBRANCH   1   2
BRANCH   1  12
ATOM     12  N   UNL     1       4.481   3.063  19.005  0.00  0.00    +0.000 NA
ATOM     13  H   UNL     1       5.054   2.404  18.469  0.00  0.00    +0.000 HD
BRANCH  12  15
ATOM     14  C   UNL     1       2.713   1.907  17.842  0.00  0.00    +0.000 C 
ATOM     15  C   UNL     1       3.200   3.288  18.306  0.00  0.00    +0.000 C 
BRANCH  15  16
ATOM     16  C   UNL     1       2.154   3.973  19.214  0.00  0.00    +0.000 C 
BRANCH  16  17
ATOM     17  N   UNL     1       2.166   5.416  19.171  0.00  0.00    +0.000 N 
ATOM     18  C   UNL     1       2.093   6.275  20.223  0.00  0.00    +0.000 A 
ATOM     19  N   UNL     1       2.221   7.507  19.791  0.00  0.00    +0.000 NA
ATOM     20  C   UNL     1       2.388   7.345  18.445  0.00  0.00    +0.000 A 
ATOM     21  N   UNL     1       2.363   6.079  18.016  0.00  0.00    +0.000 NA
ENDBRANCH  16  17
ENDBRANCH  15  16
ENDBRANCH  12  15
ENDBRANCH   1  12
TORSDOF 6
ENDMDL
MODEL 4
REMARK VINA RESULT:      -6.7      1.547      1.883
REMARK  Name = 
REMARK  7 active torsions:
REMARK  status: ('A' for Active; 'I' for Inactive)
REMARK    1  A    between atoms: C_1  and  C_2
REMARK    2  A    between atoms: C_2  and  C_3
REMARK    3  A    between atoms: C_2  and  N_9
REMARK    4  A    between atoms: C_3  and  N_4
REMARK    5  A    between atoms: N_9  and  C_10
REMARK    6  A    between atoms: C_10  and  C_11
REMARK    7  A    between atoms: C_14  and  C_15
REMARK                            x       y       z     vdW  Elec       q    Type
REMARK                         _______ _______ _______ _____ _____    ______ ____
ROOT
ATOM      1  C   UNL     1       5.142   6.895  17.418  0.00  0.00    +0.000 C 
ENDROOT
BRANCH   1   2
ATOM      2  C   UNL     1       5.911   6.202  16.341  0.00  0.00    +0.000 A 
ATOM      3  N   UNL     1       7.249   6.149  16.321  0.00  0.00    +0.000 NA
ATOM      4  O   UNL     1       7.518   5.359  15.200  0.00  0.00    +0.000 OA
ATOM      5  C   UNL     1       6.308   5.023  14.649  0.00  0.00    +0.000 A 
ATOM      6  N   UNL     1       5.291   5.537  15.310  0.00  0.00    +0.000 NA
BRANCH   5   7
ATOM      7  C   UNL     1       6.165   4.190  13.493  0.00  0.00    +0.000 A 
ATOM      8  C   UNL     1       7.157   3.754  12.630  0.00  0.00    +0.000 A 
ATOM      9  C   UNL     1       6.531   2.981  11.625  0.00  0.00    +0.000 A 
ATOM     10  C   UNL     1       5.192   2.978  11.931  0.00  0.00    +0.000 A 
ATOM     11  O   UNL     1       4.959   3.699  13.057  0.00  0.00    +0.000 OA
ENDBRANCH   5   7
ENDBRANCH   1   2
BRANCH   1  12
ATOM     12  N   UNL     1       4.614   5.891  18.358  0.00  0.00    +0.000 NA
ATOM     13  H   UNL     1       4.699   4.975  17.906  0.00  0.00    +0.000 HD
BRANCH  12  15
ATOM     14  C   UNL     1       2.787   7.447  18.118  0.00  0.00    +0.000 C 
ATOM     15  C   UNL     1       3.211   6.117  18.761  0.00  0.00    +0.000 C 
BRANCH  15  16
ATOM     16  C   UNL     1       2.284   4.963  18.320  0.00  0.00    +0.000 C 
BRANCH  16  17
ATOM     17  N   UNL     1       2.821   3.639  18.531  0.00  0.00    +0.000 N 
ATOM     18  C   UNL     1       2.738   2.570  17.695  0.00  0.00    +0.000 A 
ATOM     19  N   UNL     1       3.422   1.569  18.196  0.00  0.00    +0.000 NA
ATOM     20  C   UNL     1       3.928   2.091  19.352  0.00  0.00    +0.000 A 
ATOM     21  N   UNL     1       3.589   3.359  19.602  0.00  0.00    +0.000 NA
ENDBRANCH  16  17
ENDBRANCH  15  16
ENDBRANCH  12  15
ENDBRANCH   1  12
TORSDOF 6
ENDMDL
MODEL 5
REMARK VINA RESULT:      -6.7      1.506      2.108
REMARK  Name = 
REMARK  7 active torsions:
REMARK  status: ('A' for Active; 'I' for Inactive)
REMARK    1  A    between atoms: C_1  and  C_2
REMARK    2  A    between atoms: C_2  and  C_3
REMARK    3  A    between atoms: C_2  and  N_9
REMARK    4  A    between atoms: C_3  and  N_4
REMARK    5  A    between atoms: N_9  and  C_10
REMARK    6  A    between atoms: C_10  and  C_11
REMARK    7  A    between atoms: C_14  and  C_15
REMARK                            x       y       z     vdW  Elec       q    Type
REMARK                         _______ _______ _______ _____ _____    ______ ____
ROOT
ATOM      1  C   UNL     1       5.645   6.422  18.378  0.00  0.00    +0.000 C 
ENDROOT
BRANCH   1   2
ATOM      2  C   UNL     1       6.427   5.731  17.308  0.00  0.00    +0.000 A 
ATOM      3  N   UNL     1       7.521   5.001  17.562  0.00  0.00    +0.000 NA
ATOM      4  O   UNL     1       7.867   4.501  16.304  0.00  0.00    +0.000 OA
ATOM      5  C   UNL     1       6.947   4.991  15.412  0.00  0.00    +0.000 A 
ATOM      6  N   UNL     1       6.051   5.770  15.986  0.00  0.00    +0.000 NA
BRANCH   5   7
ATOM      7  C   UNL     1       6.948   4.678  14.016  0.00  0.00    +0.000 A 
ATOM      8  C   UNL     1       6.244   3.676  13.367  0.00  0.00    +0.000 A 
ATOM      9  C   UNL     1       6.588   3.738  11.998  0.00  0.00    +0.000 A 
ATOM     10  C   UNL     1       7.477   4.778  11.879  0.00  0.00    +0.000 A 
ATOM     11  O   UNL     1       7.698   5.356  13.087  0.00  0.00    +0.000 OA
ENDBRANCH   5   7
ENDBRANCH   1   2
BRANCH   1  12
ATOM     12  N   UNL     1       4.783   5.440  19.057  0.00  0.00    +0.000 NA
ATOM     13  H   UNL     1       4.642   4.659  18.411  0.00  0.00    +0.000 HD
BRANCH  12  15
ATOM     14  C   UNL     1       2.942   6.802  18.301  0.00  0.00    +0.000 C 
ATOM     15  C   UNL     1       3.473   5.976  19.482  0.00  0.00    +0.000 C 
BRANCH  15  16
ATOM     16  C   UNL     1       2.483   4.855  19.870  0.00  0.00    +0.000 C 
BRANCH  16  17
ATOM     17  N   UNL     1       2.660   3.614  19.153  0.00  0.00    +0.000 N 
ATOM     18  C   UNL     1       2.070   3.243  17.985  0.00  0.00    +0.000 A 
ATOM     19  N   UNL     1       2.548   2.082  17.604  0.00  0.00    +0.000 NA
ATOM     20  C   UNL     1       3.455   1.788  18.581  0.00  0.00    +0.000 A 
ATOM     21  N   UNL     1       3.562   2.698  19.554  0.00  0.00    +0.000 NA
ENDBRANCH  16  17
ENDBRANCH  15  16
ENDBRANCH  12  15
ENDBRANCH   1  12
TORSDOF 6
ENDMDL
MODEL 6
REMARK VINA RESULT:      -6.6      1.220      1.509
REMARK  Name = 
REMARK  7 active torsions:
REMARK  status: ('A' for Active; 'I' for Inactive)
REMARK    1  A    between atoms: C_1  and  C_2
REMARK    2  A    between atoms: C_2  and  C_3
REMARK    3  A    between atoms: C_2  and  N_9
REMARK    4  A    between atoms: C_3  and  N_4
REMARK    5  A    between atoms: N_9  and  C_10
REMARK    6  A    between atoms: C_10  and  C_11
REMARK    7  A    between atoms: C_14  and  C_15
REMARK                            x       y       z     vdW  Elec       q    Type
REMARK                         _______ _______ _______ _____ _____    ______ ____
ROOT
ATOM      1  C   UNL     1       7.265   4.600  17.526  0.00  0.00    +0.000 C 
ENDROOT
BRANCH   1   2
ATOM      2  C   UNL     1       7.057   4.716  16.051  0.00  0.00    +0.000 A 
ATOM      3  N   UNL     1       7.591   5.699  15.315  0.00  0.00    +0.000 NA
ATOM      4  O   UNL     1       7.199   5.371  14.015  0.00  0.00    +0.000 OA
ATOM      5  C   UNL     1       6.455   4.222  14.100  0.00  0.00    +0.000 A 
ATOM      6  N   UNL     1       6.326   3.793  15.340  0.00  0.00    +0.000 NA
BRANCH   5   7
ATOM      7  C   UNL     1       5.895   3.551  12.967  0.00  0.00    +0.000 A 
ATOM      8  C   UNL     1       4.658   3.760  12.378  0.00  0.00    +0.000 A 
ATOM      9  C   UNL     1       4.540   2.844  11.308  0.00  0.00    +0.000 A 
ATOM     10  C   UNL     1       5.713   2.129  11.293  0.00  0.00    +0.000 A 
ATOM     11  O   UNL     1       6.540   2.549  12.284  0.00  0.00    +0.000 OA
ENDBRANCH   5   7
ENDBRANCH   1   2
BRANCH   1  12
ATOM     12  N   UNL     1       6.118   3.895  18.123  0.00  0.00    +0.000 NA
ATOM     13  H   UNL     1       5.660   3.369  17.373  0.00  0.00    +0.000 HD
BRANCH  12  15
ATOM     14  C   UNL     1       5.432   6.202  18.273  0.00  0.00    +0.000 C 
ATOM     15  C   UNL     1       5.136   4.782  18.779  0.00  0.00    +0.000 C 
BRANCH  15  16
ATOM     16  C   UNL     1       3.680   4.371  18.468  0.00  0.00    +0.000 C 
BRANCH  16  17
ATOM     17  N   UNL     1       2.938   3.865  19.599  0.00  0.00    +0.000 N 
ATOM     18  C   UNL     1       2.609   2.572  19.861  0.00  0.00    +0.000 A 
ATOM     19  N   UNL     1       2.009   2.500  21.025  0.00  0.00    +0.000 NA
ATOM     20  C   UNL     1       2.009   3.797  21.450  0.00  0.00    +0.000 A 
ATOM     21  N   UNL     1       2.569   4.673  20.611  0.00  0.00    +0.000 NA
ENDBRANCH  16  17
ENDBRANCH  15  16
ENDBRANCH  12  15
ENDBRANCH   1  12
TORSDOF 6
ENDMDL
MODEL 7
REMARK VINA RESULT:      -6.6      2.060      2.606
REMARK  Name = 
REMARK  7 active torsions:
REMARK  status: ('A' for Active; 'I' for Inactive)
REMARK    1  A    between atoms: C_1  and  C_2
REMARK    2  A    between atoms: C_2  and  C_3
REMARK    3  A    between atoms: C_2  and  N_9
REMARK    4  A    between atoms: C_3  and  N_4
REMARK    5  A    between atoms: N_9  and  C_10
REMARK    6  A    between atoms: C_10  and  C_11
REMARK    7  A    between atoms: C_14  and  C_15
REMARK                            x       y       z     vdW  Elec       q    Type
REMARK                         _______ _______ _______ _____ _____    ______ ____
ROOT
ATOM      1  C   UNL     1       5.745   5.813  18.791  0.00  0.00    +0.000 C 
ENDROOT
BRANCH   1   2
ATOM      2  C   UNL     1       6.510   5.291  17.618  0.00  0.00    +0.000 A 
ATOM      3  N   UNL     1       7.739   4.768  17.725  0.00  0.00    +0.000 NA
ATOM      4  O   UNL     1       8.023   4.358  16.420  0.00  0.00    +0.000 OA
ATOM      5  C   UNL     1       6.934   4.685  15.652  0.00  0.00    +0.000 A 
ATOM      6  N   UNL     1       5.985   5.280  16.348  0.00  0.00    +0.000 NA
BRANCH   5   7
ATOM      7  C   UNL     1       6.832   4.397  14.254  0.00  0.00    +0.000 A 
ATOM      8  C   UNL     1       7.587   4.922  13.218  0.00  0.00    +0.000 A 
ATOM      9  C   UNL     1       7.102   4.361  12.015  0.00  0.00    +0.000 A 
ATOM     10  C   UNL     1       6.081   3.516  12.378  0.00  0.00    +0.000 A 
ATOM     11  O   UNL     1       5.912   3.525  13.725  0.00  0.00    +0.000 OA
ENDBRANCH   5   7
ENDBRANCH   1   2
BRANCH   1  12
ATOM     12  N   UNL     1       4.398   5.216  18.794  0.00  0.00    +0.000 NA
ATOM     13  H   UNL     1       4.268   4.752  17.890  0.00  0.00    +0.000 HD
BRANCH  12  15
ATOM     14  C   UNL     1       3.405   7.213  17.876  0.00  0.00    +0.000 C 
ATOM     15  C   UNL     1       3.307   6.187  19.015  0.00  0.00    +0.000 C 
BRANCH  15  16
ATOM     16  C   UNL     1       1.920   5.509  19.038  0.00  0.00    +0.000 C 
BRANCH  16  17
ATOM     17  N   UNL     1       1.787   4.430  19.989  0.00  0.00    +0.000 N 
ATOM     18  C   UNL     1       1.220   3.212  19.782  0.00  0.00    +0.000 A 
ATOM     19  N   UNL     1       1.368   2.473  20.856  0.00  0.00    +0.000 NA
ATOM     20  C   UNL     1       2.059   3.294  21.701  0.00  0.00    +0.000 A 
ATOM     21  N   UNL     1       2.342   4.506  21.213  0.00  0.00    +0.000 NA
ENDBRANCH  16  17
ENDBRANCH  15  16
ENDBRANCH  12  15
ENDBRANCH   1  12
TORSDOF 6
ENDMDL
MODEL 8
REMARK VINA RESULT:      -6.6      1.939      2.386
REMARK  Name = 
REMARK  7 active torsions:
REMARK  status: ('A' for Active; 'I' for Inactive)
REMARK    1  A    between atoms: C_1  and  C_2
REMARK    2  A    between atoms: C_2  and  C_3
REMARK    3  A    between atoms: C_2  and  N_9
REMARK    4  A    between atoms: C_3  and  N_4
REMARK    5  A    between atoms: N_9  and  C_10
REMARK    6  A    between atoms: C_10  and  C_11
REMARK    7  A    between atoms: C_14  and  C_15
REMARK                            x       y       z     vdW  Elec       q    Type
REMARK                         _______ _______ _______ _____ _____    ______ ____
ROOT
ATOM      1  C   UNL     1       5.509   4.473  18.792  0.00  0.00    +0.000 C 
ENDROOT
BRANCH   1   2
ATOM      2  C   UNL     1       6.280   4.513  17.513  0.00  0.00    +0.000 A 
ATOM      3  N   UNL     1       7.610   4.665  17.468  0.00  0.00    +0.000 NA
ATOM      4  O   UNL     1       7.894   4.572  16.103  0.00  0.00    +0.000 OA
ATOM      5  C   UNL     1       6.698   4.383  15.459  0.00  0.00    +0.000 A 
ATOM      6  N   UNL     1       5.674   4.359  16.288  0.00  0.00    +0.000 NA
BRANCH   5   7
ATOM      7  C   UNL     1       6.577   4.212  14.043  0.00  0.00    +0.000 A 
ATOM      8  C   UNL     1       5.620   3.488  13.350  0.00  0.00    +0.000 A 
ATOM      9  C   UNL     1       5.928   3.590  11.974  0.00  0.00    +0.000 A 
ATOM     10  C   UNL     1       7.051   4.377  11.896  0.00  0.00    +0.000 A 
ATOM     11  O   UNL     1       7.449   4.763  13.135  0.00  0.00    +0.000 OA
ENDBRANCH   5   7
ENDBRANCH   1   2
BRANCH   1  12
ATOM     12  N   UNL     1       4.917   5.799  19.041  0.00  0.00    +0.000 NA
ATOM     13  H   UNL     1       5.323   6.157  19.910  0.00  0.00    +0.000 HD
BRANCH  12  15
ATOM     14  C   UNL     1       2.934   6.836  18.141  0.00  0.00    +0.000 C 
ATOM     15  C   UNL     1       3.443   5.794  19.148  0.00  0.00    +0.000 C 
BRANCH  15  16
ATOM     16  C   UNL     1       2.843   4.399  18.860  0.00  0.00    +0.000 C 
BRANCH  16  17
ATOM     17  N   UNL     1       2.371   3.690  20.026  0.00  0.00    +0.000 N 
ATOM     18  C   UNL     1       1.101   3.651  20.511  0.00  0.00    +0.000 A 
ATOM     19  N   UNL     1       1.049   2.831  21.534  0.00  0.00    +0.000 NA
ATOM     20  C   UNL     1       2.333   2.374  21.626  0.00  0.00    +0.000 A 
ATOM     21  N   UNL     1       3.182   2.870  20.721  0.00  0.00    +0.000 NA
ENDBRANCH  16  17
ENDBRANCH  15  16
ENDBRANCH  12  15
ENDBRANCH   1  12
TORSDOF 6
ENDMDL
MODEL 9
REMARK VINA RESULT:      -6.6      1.786      2.197
REMARK  Name = 
REMARK  7 active torsions:
REMARK  status: ('A' for Active; 'I' for Inactive)
REMARK    1  A    between atoms: C_1  and  C_2
REMARK    2  A    between atoms: C_2  and  C_3
REMARK    3  A    between atoms: C_2  and  N_9
REMARK    4  A    between atoms: C_3  and  N_4
REMARK    5  A    between atoms: N_9  and  C_10
REMARK    6  A    between atoms: C_10  and  C_11
REMARK    7  A    between atoms: C_14  and  C_15
REMARK                            x       y       z     vdW  Elec       q    Type
REMARK                         _______ _______ _______ _____ _____    ______ ____
ROOT
ATOM      1  C   UNL     1       5.602   5.856  18.518  0.00  0.00    +0.000 C 
ENDROOT
BRANCH   1   2
ATOM      2  C   UNL     1       6.296   5.328  17.305  0.00  0.00    +0.000 A 
ATOM      3  N   UNL     1       7.587   4.969  17.303  0.00  0.00    +0.000 NA
ATOM      4  O   UNL     1       7.778   4.481  16.008  0.00  0.00    +0.000 OA
ATOM      5  C   UNL     1       6.579   4.606  15.353  0.00  0.00    +0.000 A 
ATOM      6  N   UNL     1       5.642   5.141  16.110  0.00  0.00    +0.000 NA
BRANCH   5   7
ATOM      7  C   UNL     1       6.363   4.184  14.002  0.00  0.00    +0.000 A 
ATOM      8  C   UNL     1       5.206   3.664  13.446  0.00  0.00    +0.000 A 
ATOM      9  C   UNL     1       5.484   3.370  12.092  0.00  0.00    +0.000 A 
ATOM     10  C   UNL     1       6.793   3.732  11.889  0.00  0.00    +0.000 A 
ATOM     11  O   UNL     1       7.333   4.229  13.031  0.00  0.00    +0.000 OA
ENDBRANCH   5   7
ENDBRANCH   1   2
BRANCH   1  12
ATOM     12  N   UNL     1       4.179   5.477  18.465  0.00  0.00    +0.000 NA
ATOM     13  H   UNL     1       3.916   5.416  17.477  0.00  0.00    +0.000 HD
BRANCH  12  15
ATOM     14  C   UNL     1       2.714   7.354  18.085  0.00  0.00    +0.000 C 
ATOM     15  C   UNL     1       3.276   6.414  19.163  0.00  0.00    +0.000 C 
BRANCH  15  16
ATOM     16  C   UNL     1       2.141   5.681  19.912  0.00  0.00    +0.000 C 
BRANCH  16  17
ATOM     17  N   UNL     1       1.964   4.297  19.540  0.00  0.00    +0.000 N 
ATOM     18  C   UNL     1       2.092   3.204  20.338  0.00  0.00    +0.000 A 
ATOM     19  N   UNL     1       1.767   2.127  19.661  0.00  0.00    +0.000 NA
ATOM     20  C   UNL     1       1.427   2.627  18.437  0.00  0.00    +0.000 A 
ATOM     21  N   UNL     1       1.529   3.953  18.312  0.00  0.00    +0.000 NA
ENDBRANCH  16  17
ENDBRANCH  15  16
ENDBRANCH  12  15
ENDBRANCH   1  12
TORSDOF 6
ENDMDL
