MODEL 1
REMARK VINA RESULT:      -8.5      0.000      0.000
REMARK  Name = 
REMARK  9 active torsions:
REMARK  status: ('A' for Active; 'I' for Inactive)
REMARK    1  A    between atoms: C_1  and  O_2
REMARK    2  A    between atoms: O_2  and  C_3
REMARK    3  A    between atoms: C_8  and  O_9
REMARK    4  A    between atoms: O_9  and  C_10
REMARK    5  A    between atoms: C_13  and  S_14
REMARK    6  A    between atoms: S_14  and  N_17
REMARK    7  A    between atoms: C_24  and  N_25
REMARK    8  A    between atoms: N_25  and  C_26
REMARK    9  A    between atoms: C_26  and  C_27
REMARK                            x       y       z     vdW  Elec       q    Type
REMARK                         _______ _______ _______ _____ _____    ______ ____
ROOT
ATOM      1  C   UNL     1       2.903   6.386  18.800  0.00  0.00    +0.000 A 
ATOM      2  C   UNL     1       2.707   7.644  18.167  0.00  0.00    +0.000 A 
ATOM      3  C   UNL     1       2.000   8.648  18.797  0.00  0.00    +0.000 A 
ATOM      4  C   UNL     1       1.453   8.401  20.050  0.00  0.00    +0.000 A 
ATOM      5  C   UNL     1       1.788   7.215  20.734  0.00  0.00    +0.000 A 
ATOM      6  C   UNL     1       2.581   6.226  20.167  0.00  0.00    +0.000 A 
ENDROOT
BRANCH   4   7
ATOM      7  S   UNL     1       0.407   9.634  20.784  0.00  0.00    +0.000 S 
ATOM      8  O   UNL     1      -0.853   9.036  21.065  0.00  0.00    +0.000 OA
ATOM      9  O   UNL     1       1.194  10.248  21.862  0.00  0.00    +0.000 OA
BRANCH   7  10
ATOM     10  N   UNL     1       0.199  10.822  19.575  0.00  0.00    +0.000 NA
ATOM     11  C   UNL     1      -1.197  11.076  19.140  0.00  0.00    +0.000 C 
ATOM     12  C   UNL     1      -1.277  12.064  17.986  0.00  0.00    +0.000 C 
ATOM     13  C   UNL     1      -0.490  13.328  18.287  0.00  0.00    +0.000 C 
ATOM     14  C   UNL     1       0.967  12.971  18.533  0.00  0.00    +0.000 C 
ATOM     15  C   UNL     1       1.127  11.981  19.682  0.00  0.00    +0.000 C 
ENDBRANCH   7  10
ENDBRANCH   4   7
BRANCH   6  16
ATOM     16  N   UNL     1       2.910   5.086  20.952  0.00  0.00    +0.000 N 
ATOM     17  H   UNL     1       3.468   5.263  21.765  0.00  0.00    +0.000 HD
BRANCH  16  18
ATOM     18  C   UNL     1       1.867   4.071  21.158  0.00  0.00    +0.000 C 
BRANCH  18  19
ATOM     19  C   UNL     1       1.422   3.318  19.903  0.00  0.00    +0.000 C 
ATOM     20  O   UNL     1       0.305   3.427  19.385  0.00  0.00    +0.000 OA
ATOM     21  N   UNL     1       2.469   2.611  19.306  0.00  0.00    +0.000 N 
ATOM     22  C   UNL     1       2.385   2.021  17.987  0.00  0.00    +0.000 C 
ATOM     23  C   UNL     1       3.823   1.627  17.672  0.00  0.00    +0.000 C 
ATOM     24  N   UNL     1       4.420   1.514  18.969  0.00  0.00    +0.000 N 
ATOM     25  C   UNL     1       3.689   2.230  19.908  0.00  0.00    +0.000 C 
ATOM     26  O   UNL     1       4.093   2.452  21.029  0.00  0.00    +0.000 OA
ATOM     27  H   UNL     1       5.378   1.266  19.174  0.00  0.00    +0.000 HD
ENDBRANCH  18  19
ENDBRANCH  16  18
ENDBRANCH   6  16
BRANCH   1  28
ATOM     28  O   UNL     1       3.427   5.464  17.943  0.00  0.00    +0.000 OA
BRANCH  28  34
ATOM     29  C   UNL     1       5.448   4.874  16.556  0.00  0.00    +0.000 A 
ATOM     30  C   UNL     1       6.801   4.561  16.678  0.00  0.00    +0.000 A 
ATOM     31  C   UNL     1       7.495   4.723  17.848  0.00  0.00    +0.000 A 
ATOM     32  C   UNL     1       6.847   5.297  18.929  0.00  0.00    +0.000 A 
ATOM     33  C   UNL     1       5.515   5.631  18.863  0.00  0.00    +0.000 A 
ATOM     34  C   UNL     1       4.778   5.362  17.699  0.00  0.00    +0.000 A 
BRANCH  29  36
ATOM     35  C   UNL     1       5.632   4.191  14.282  0.00  0.00    +0.000 C 
ATOM     36  O   UNL     1       4.802   4.493  15.410  0.00  0.00    +0.000 OA
ENDBRANCH  29  36
ENDBRANCH  28  34
ENDBRANCH   1  28
TORSDOF 8
ENDMDL
MODEL 2
REMARK VINA RESULT:      -8.4      1.102      1.376
REMARK  Name = 
REMARK  9 active torsions:
REMARK  status: ('A' for Active; 'I' for Inactive)
REMARK    1  A    between atoms: C_1  and  O_2
REMARK    2  A    between atoms: O_2  and  C_3
REMARK    3  A    between atoms: C_8  and  O_9
REMARK    4  A    between atoms: O_9  and  C_10
REMARK    5  A    between atoms: C_13  and  S_14
REMARK    6  A    between atoms: S_14  and  N_17
REMARK    7  A    between atoms: C_24  and  N_25
REMARK    8  A    between atoms: N_25  and  C_26
REMARK    9  A    between atoms: C_26  and  C_27
REMARK                            x       y       z     vdW  Elec       q    Type
REMARK                         _______ _______ _______ _____ _____    ______ ____
ROOT
ATOM      1  C   UNL     1       3.084   6.443  18.450  0.00  0.00    +0.000 A 
ATOM      2  C   UNL     1       3.032   7.605  17.631  0.00  0.00    +0.000 A 
ATOM      3  C   UNL     1       2.285   8.701  18.010  0.00  0.00    +0.000 A 
ATOM      4  C   UNL     1       1.555   8.642  19.191  0.00  0.00    +0.000 A 
ATOM      5  C   UNL     1       1.740   7.557  20.070  0.00  0.00    +0.000 A 
ATOM      6  C   UNL     1       2.564   6.482  19.764  0.00  0.00    +0.000 A 
ENDROOT
BRANCH   4   7
ATOM      7  S   UNL     1       0.467   9.988  19.592  0.00  0.00    +0.000 S 
ATOM      8  O   UNL     1      -0.491  10.109  18.546  0.00  0.00    +0.000 OA
ATOM      9  O   UNL     1       0.030   9.762  20.976  0.00  0.00    +0.000 OA
BRANCH   7  10
ATOM     10  N   UNL     1       1.458  11.379  19.599  0.00  0.00    +0.000 NA
ATOM     11  C   UNL     1       1.731  11.996  18.277  0.00  0.00    +0.000 C 
ATOM     12  C   UNL     1       2.709  13.157  18.367  0.00  0.00    +0.000 C 
ATOM     13  C   UNL     1       2.286  14.154  19.433  0.00  0.00    +0.000 C 
ATOM     14  C   UNL     1       2.220  13.455  20.781  0.00  0.00    +0.000 C 
ATOM     15  C   UNL     1       1.254  12.276  20.769  0.00  0.00    +0.000 C 
ENDBRANCH   7  10
ENDBRANCH   4   7
BRANCH   6  16
ATOM     16  N   UNL     1       2.731   5.455  20.735  0.00  0.00    +0.000 N 
ATOM     17  H   UNL     1       3.107   5.746  21.616  0.00  0.00    +0.000 HD
BRANCH  16  18
ATOM     18  C   UNL     1       1.676   4.439  20.846  0.00  0.00    +0.000 C 
BRANCH  18  19
ATOM     19  C   UNL     1       1.420   3.612  19.584  0.00  0.00    +0.000 C 
ATOM     20  O   UNL     1       0.432   3.743  18.855  0.00  0.00    +0.000 OA
ATOM     21  N   UNL     1       2.505   2.798  19.251  0.00  0.00    +0.000 N 
ATOM     22  C   UNL     1       2.628   2.107  17.986  0.00  0.00    +0.000 C 
ATOM     23  C   UNL     1       4.067   1.604  17.982  0.00  0.00    +0.000 C 
ATOM     24  N   UNL     1       4.400   1.564  19.375  0.00  0.00    +0.000 N 
ATOM     25  C   UNL     1       3.560   2.396  20.103  0.00  0.00    +0.000 C 
ATOM     26  O   UNL     1       3.761   2.686  21.262  0.00  0.00    +0.000 OA
ATOM     27  H   UNL     1       5.281   1.278  19.778  0.00  0.00    +0.000 HD
ENDBRANCH  18  19
ENDBRANCH  16  18
ENDBRANCH   6  16
BRANCH   1  28
ATOM     28  O   UNL     1       3.686   5.400  17.811  0.00  0.00    +0.000 OA
BRANCH  28  34
ATOM     29  C   UNL     1       5.780   4.996  16.467  0.00  0.00    +0.000 A 
ATOM     30  C   UNL     1       7.127   4.669  16.618  0.00  0.00    +0.000 A 
ATOM     31  C   UNL     1       7.757   4.674  17.834  0.00  0.00    +0.000 A 
ATOM     32  C   UNL     1       7.050   5.100  18.946  0.00  0.00    +0.000 A 
ATOM     33  C   UNL     1       5.722   5.441  18.854  0.00  0.00    +0.000 A 
ATOM     34  C   UNL     1       5.049   5.329  17.627  0.00  0.00    +0.000 A 
BRANCH  29  36
ATOM     35  C   UNL     1       5.991   4.067  14.284  0.00  0.00    +0.000 C 
ATOM     36  O   UNL     1       5.198   4.770  15.248  0.00  0.00    +0.000 OA
ENDBRANCH  29  36
ENDBRANCH  28  34
ENDBRANCH   1  28
TORSDOF 8
ENDMDL
MODEL 3
REMARK VINA RESULT:      -8.4      1.360      1.731
REMARK  Name = 
REMARK  9 active torsions:
REMARK  status: ('A' for Active; 'I' for Inactive)
REMARK    1  A    between atoms: C_1  and  O_2
REMARK    2  A    between atoms: O_2  and  C_3
REMARK    3  A    between atoms: C_8  and  O_9
REMARK    4  A    between atoms: O_9  and  C_10
REMARK    5  A    between atoms: C_13  and  S_14
REMARK    6  A    between atoms: S_14  and  N_17
REMARK    7  A    between atoms: C_24  and  N_25
REMARK    8  A    between atoms: N_25  and  C_26
REMARK    9  A    between atoms: C_26  and  C_27
REMARK                            x       y       z     vdW  Elec       q    Type
REMARK                         _______ _______ _______ _____ _____    ______ ____
ROOT
ATOM      1  C   UNL     1       2.698   7.002  18.514  0.00  0.00    +0.000 A 
ATOM      2  C   UNL     1       2.845   8.234  17.819  0.00  0.00    +0.000 A 
ATOM      3  C   UNL     1       2.190   9.369  18.250  0.00  0.00    +0.000 A 
ATOM      4  C   UNL     1       1.357   9.284  19.359  0.00  0.00    +0.000 A 
ATOM      5  C   UNL     1       1.345   8.107  20.132  0.00  0.00    +0.000 A 
ATOM      6  C   UNL     1       2.072   6.977  19.782  0.00  0.00    +0.000 A 
ENDROOT
BRANCH   4   7
ATOM      7  S   UNL     1       0.390  10.703  19.812  0.00  0.00    +0.000 S 
ATOM      8  O   UNL     1       0.087  10.609  21.199  0.00  0.00    +0.000 OA
ATOM      9  O   UNL     1       1.108  11.872  19.286  0.00  0.00    +0.000 OA
BRANCH   7  10
ATOM     10  N   UNL     1      -1.059  10.561  18.918  0.00  0.00    +0.000 NA
ATOM     11  C   UNL     1      -2.045  11.658  19.090  0.00  0.00    +0.000 C 
ATOM     12  C   UNL     1      -3.346  11.392  18.347  0.00  0.00    +0.000 C 
ATOM     13  C   UNL     1      -3.088  11.022  16.897  0.00  0.00    +0.000 C 
ATOM     14  C   UNL     1      -2.221   9.774  16.839  0.00  0.00    +0.000 C 
ATOM     15  C   UNL     1      -0.894   9.966  17.564  0.00  0.00    +0.000 C 
ENDBRANCH   7  10
ENDBRANCH   4   7
BRANCH   6  16
ATOM     16  N   UNL     1       2.041   5.851  20.651  0.00  0.00    +0.000 N 
ATOM     17  H   UNL     1       2.154   6.050  21.626  0.00  0.00    +0.000 HD
BRANCH  16  18
ATOM     18  C   UNL     1       1.057   4.796  20.370  0.00  0.00    +0.000 C 
BRANCH  18  19
ATOM     19  C   UNL     1       1.462   3.784  19.297  0.00  0.00    +0.000 C 
ATOM     20  O   UNL     1       0.975   3.740  18.162  0.00  0.00    +0.000 OA
ATOM     21  N   UNL     1       2.560   3.010  19.681  0.00  0.00    +0.000 N 
ATOM     22  C   UNL     1       3.295   2.158  18.770  0.00  0.00    +0.000 C 
ATOM     23  C   UNL     1       4.536   1.764  19.562  0.00  0.00    +0.000 C 
ATOM     24  N   UNL     1       4.124   1.943  20.922  0.00  0.00    +0.000 N 
ATOM     25  C   UNL     1       3.040   2.808  20.995  0.00  0.00    +0.000 C 
ATOM     26  O   UNL     1       2.635   3.271  22.038  0.00  0.00    +0.000 OA
ATOM     27  H   UNL     1       4.681   1.780  21.749  0.00  0.00    +0.000 HD
ENDBRANCH  18  19
ENDBRANCH  16  18
ENDBRANCH   6  16
BRANCH   1  28
ATOM     28  O   UNL     1       3.238   5.960  17.819  0.00  0.00    +0.000 OA
BRANCH  28  34
ATOM     29  C   UNL     1       5.392   5.351  16.659  0.00  0.00    +0.000 A 
ATOM     30  C   UNL     1       6.670   4.859  16.920  0.00  0.00    +0.000 A 
ATOM     31  C   UNL     1       7.175   4.748  18.189  0.00  0.00    +0.000 A 
ATOM     32  C   UNL     1       6.418   5.219  19.248  0.00  0.00    +0.000 A 
ATOM     33  C   UNL     1       5.154   5.722  19.048  0.00  0.00    +0.000 A 
ATOM     34  C   UNL     1       4.595   5.732  17.760  0.00  0.00    +0.000 A 
BRANCH  29  36
ATOM     35  C   UNL     1       5.754   4.566  14.440  0.00  0.00    +0.000 C 
ATOM     36  O   UNL     1       4.909   5.238  15.383  0.00  0.00    +0.000 OA
ENDBRANCH  29  36
ENDBRANCH  28  34
ENDBRANCH   1  28
TORSDOF 8
ENDMDL
MODEL 4
REMARK VINA RESULT:      -8.3      1.701      2.222
REMARK  Name = 
REMARK  9 active torsions:
REMARK  status: ('A' for Active; 'I' for Inactive)
REMARK    1  A    between atoms: C_1  and  O_2
REMARK    2  A    between atoms: O_2  and  C_3
REMARK    3  A    between atoms: C_8  and  O_9
REMARK    4  A    between atoms: O_9  and  C_10
REMARK    5  A    between atoms: C_13  and  S_14
REMARK    6  A    between atoms: S_14  and  N_17
REMARK    7  A    between atoms: C_24  and  N_25
REMARK    8  A    between atoms: N_25  and  C_26
REMARK    9  A    between atoms: C_26  and  C_27
REMARK                            x       y       z     vdW  Elec       q    Type
REMARK                         _______ _______ _______ _____ _____    ______ ____
ROOT
ATOM      1  C   UNL     1       2.997   6.639  18.468  0.00  0.00    +0.000 A 
ATOM      2  C   UNL     1       3.224   7.776  17.644  0.00  0.00    +0.000 A 
ATOM      3  C   UNL     1       2.510   8.940  17.836  0.00  0.00    +0.000 A 
ATOM      4  C   UNL     1       1.538   8.977  18.828  0.00  0.00    +0.000 A 
ATOM      5  C   UNL     1       1.432   7.907  19.739  0.00  0.00    +0.000 A 
ATOM      6  C   UNL     1       2.208   6.760  19.635  0.00  0.00    +0.000 A 
ENDROOT
BRANCH   4   7
ATOM      7  S   UNL     1       0.508  10.418  18.963  0.00  0.00    +0.000 S 
ATOM      8  O   UNL     1       1.259  11.543  18.522  0.00  0.00    +0.000 OA
ATOM      9  O   UNL     1      -0.764  10.073  18.314  0.00  0.00    +0.000 OA
BRANCH   7  10
ATOM     10  N   UNL     1       0.189  10.586  20.633  0.00  0.00    +0.000 NA
ATOM     11  C   UNL     1      -0.475  11.846  21.049  0.00  0.00    +0.000 C 
ATOM     12  C   UNL     1      -0.617  11.958  22.560  0.00  0.00    +0.000 C 
ATOM     13  C   UNL     1      -1.249  10.709  23.149  0.00  0.00    +0.000 C 
ATOM     14  C   UNL     1      -0.386   9.502  22.820  0.00  0.00    +0.000 C 
ATOM     15  C   UNL     1      -0.200   9.323  21.318  0.00  0.00    +0.000 C 
ENDBRANCH   7  10
ENDBRANCH   4   7
BRANCH   6  16
ATOM     16  N   UNL     1       2.071   5.754  20.631  0.00  0.00    +0.000 N 
ATOM     17  H   UNL     1       2.104   6.072  21.580  0.00  0.00    +0.000 HD
BRANCH  16  18
ATOM     18  C   UNL     1       1.086   4.688  20.397  0.00  0.00    +0.000 C 
BRANCH  18  19
ATOM     19  C   UNL     1       1.470   3.655  19.336  0.00  0.00    +0.000 C 
ATOM     20  O   UNL     1       0.965   3.592  18.211  0.00  0.00    +0.000 OA
ATOM     21  N   UNL     1       2.572   2.885  19.716  0.00  0.00    +0.000 N 
ATOM     22  C   UNL     1       3.290   2.014  18.810  0.00  0.00    +0.000 C 
ATOM     23  C   UNL     1       4.543   1.631  19.589  0.00  0.00    +0.000 C 
ATOM     24  N   UNL     1       4.153   1.837  20.952  0.00  0.00    +0.000 N 
ATOM     25  C   UNL     1       3.073   2.707  21.026  0.00  0.00    +0.000 C 
ATOM     26  O   UNL     1       2.686   3.191  22.067  0.00  0.00    +0.000 OA
ATOM     27  H   UNL     1       4.724   1.688  21.773  0.00  0.00    +0.000 HD
ENDBRANCH  18  19
ENDBRANCH  16  18
ENDBRANCH   6  16
BRANCH   1  28
ATOM     28  O   UNL     1       3.632   5.532  17.989  0.00  0.00    +0.000 OA
BRANCH  28  34
ATOM     29  C   UNL     1       5.748   5.224  16.654  0.00  0.00    +0.000 A 
ATOM     30  C   UNL     1       7.092   4.885  16.804  0.00  0.00    +0.000 A 
ATOM     31  C   UNL     1       7.703   4.802  18.028  0.00  0.00    +0.000 A 
ATOM     32  C   UNL     1       6.978   5.148  19.155  0.00  0.00    +0.000 A 
ATOM     33  C   UNL     1       5.651   5.496  19.066  0.00  0.00    +0.000 A 
ATOM     34  C   UNL     1       4.998   5.473  17.823  0.00  0.00    +0.000 A 
BRANCH  29  36
ATOM     35  C   UNL     1       5.872   4.227  14.496  0.00  0.00    +0.000 C 
ATOM     36  O   UNL     1       5.186   5.087  15.413  0.00  0.00    +0.000 OA
ENDBRANCH  29  36
ENDBRANCH  28  34
ENDBRANCH   1  28
TORSDOF 8
ENDMDL
MODEL 5
REMARK VINA RESULT:      -8.3      2.188      4.373
REMARK  Name = 
REMARK  9 active torsions:
REMARK  status: ('A' for Active; 'I' for Inactive)
REMARK    1  A    between atoms: C_1  and  O_2
REMARK    2  A    between atoms: O_2  and  C_3
REMARK    3  A    between atoms: C_8  and  O_9
REMARK    4  A    between atoms: O_9  and  C_10
REMARK    5  A    between atoms: C_13  and  S_14
REMARK    6  A    between atoms: S_14  and  N_17
REMARK    7  A    between atoms: C_24  and  N_25
REMARK    8  A    between atoms: N_25  and  C_26
REMARK    9  A    between atoms: C_26  and  C_27
REMARK                            x       y       z     vdW  Elec       q    Type
REMARK                         _______ _______ _______ _____ _____    ______ ____
ROOT
ATOM      1  C   UNL     1       2.505   6.637  19.771  0.00  0.00    +0.000 A 
ATOM      2  C   UNL     1       1.674   7.154  20.803  0.00  0.00    +0.000 A 
ATOM      3  C   UNL     1       1.115   8.410  20.695  0.00  0.00    +0.000 A 
ATOM      4  C   UNL     1       1.400   9.179  19.573  0.00  0.00    +0.000 A 
ATOM      5  C   UNL     1       2.088   8.600  18.489  0.00  0.00    +0.000 A 
ATOM      6  C   UNL     1       2.579   7.301  18.525  0.00  0.00    +0.000 A 
ENDROOT
BRANCH   4   7
ATOM      7  S   UNL     1       0.814  10.854  19.514  0.00  0.00    +0.000 S 
ATOM      8  O   UNL     1       0.811  11.370  20.841  0.00  0.00    +0.000 OA
ATOM      9  O   UNL     1       1.591  11.522  18.461  0.00  0.00    +0.000 OA
BRANCH   7  10
ATOM     10  N   UNL     1      -0.797  10.747  18.959  0.00  0.00    +0.000 NA
ATOM     11  C   UNL     1      -1.650  11.939  19.188  0.00  0.00    +0.000 C 
ATOM     12  C   UNL     1      -3.094  11.713  18.764  0.00  0.00    +0.000 C 
ATOM     13  C   UNL     1      -3.174  11.164  17.349  0.00  0.00    +0.000 C 
ATOM     14  C   UNL     1      -2.422   9.845  17.274  0.00  0.00    +0.000 C 
ATOM     15  C   UNL     1      -0.962   9.994  17.685  0.00  0.00    +0.000 C 
ENDBRANCH   7  10
ENDBRANCH   4   7
BRANCH   6  16
ATOM     16  N   UNL     1       3.214   6.782  17.363  0.00  0.00    +0.000 N 
ATOM     17  H   UNL     1       3.193   7.372  16.554  0.00  0.00    +0.000 HD
BRANCH  16  18
ATOM     18  C   UNL     1       4.484   6.064  17.540  0.00  0.00    +0.000 C 
BRANCH  18  19
ATOM     19  C   UNL     1       4.646   4.790  16.707  0.00  0.00    +0.000 C 
ATOM     20  O   UNL     1       3.848   3.848  16.715  0.00  0.00    +0.000 OA
ATOM     21  N   UNL     1       5.714   4.873  15.810  0.00  0.00    +0.000 N 
ATOM     22  C   UNL     1       5.936   3.921  14.742  0.00  0.00    +0.000 C 
ATOM     23  C   UNL     1       7.014   4.577  13.888  0.00  0.00    +0.000 C 
ATOM     24  N   UNL     1       7.648   5.480  14.802  0.00  0.00    +0.000 N 
ATOM     25  C   UNL     1       6.805   5.769  15.867  0.00  0.00    +0.000 C 
ATOM     26  O   UNL     1       7.030   6.653  16.665  0.00  0.00    +0.000 OA
ATOM     27  H   UNL     1       8.420   6.100  14.601  0.00  0.00    +0.000 HD
ENDBRANCH  18  19
ENDBRANCH  16  18
ENDBRANCH   6  16
BRANCH   1  28
ATOM     28  O   UNL     1       3.133   5.488  20.153  0.00  0.00    +0.000 OA
BRANCH  28  34
ATOM     29  C   UNL     1       3.259   2.994  19.806  0.00  0.00    +0.000 A 
ATOM     30  C   UNL     1       2.553   1.936  19.237  0.00  0.00    +0.000 A 
ATOM     31  C   UNL     1       1.259   2.057  18.803  0.00  0.00    +0.000 A 
ATOM     32  C   UNL     1       0.600   3.256  19.012  0.00  0.00    +0.000 A 
ATOM     33  C   UNL     1       1.245   4.332  19.575  0.00  0.00    +0.000 A 
ATOM     34  C   UNL     1       2.603   4.239  19.918  0.00  0.00    +0.000 A 
BRANCH  29  36
ATOM     35  C   UNL     1       5.002   1.575  20.592  0.00  0.00    +0.000 C 
ATOM     36  O   UNL     1       4.601   2.827  20.024  0.00  0.00    +0.000 OA
ENDBRANCH  29  36
ENDBRANCH  28  34
ENDBRANCH   1  28
TORSDOF 8
ENDMDL
MODEL 6
REMARK VINA RESULT:      -8.2      2.275      4.622
REMARK  Name = 
REMARK  9 active torsions:
REMARK  status: ('A' for Active; 'I' for Inactive)
REMARK    1  A    between atoms: C_1  and  O_2
REMARK    2  A    between atoms: O_2  and  C_3
REMARK    3  A    between atoms: C_8  and  O_9
REMARK    4  A    between atoms: O_9  and  C_10
REMARK    5  A    between atoms: C_13  and  S_14
REMARK    6  A    between atoms: S_14  and  N_17
REMARK    7  A    between atoms: C_24  and  N_25
REMARK    8  A    between atoms: N_25  and  C_26
REMARK    9  A    between atoms: C_26  and  C_27
REMARK                            x       y       z     vdW  Elec       q    Type
REMARK                         _______ _______ _______ _____ _____    ______ ____
ROOT
ATOM      1  C   UNL     1       2.307   6.343  20.055  0.00  0.00    +0.000 A 
ATOM      2  C   UNL     1       1.565   7.102  21.003  0.00  0.00    +0.000 A 
ATOM      3  C   UNL     1       1.158   8.387  20.713  0.00  0.00    +0.000 A 
ATOM      4  C   UNL     1       1.510   8.945  19.490  0.00  0.00    +0.000 A 
ATOM      5  C   UNL     1       2.101   8.135  18.501  0.00  0.00    +0.000 A 
ATOM      6  C   UNL     1       2.433   6.806  18.725  0.00  0.00    +0.000 A 
ENDROOT
BRANCH   4   7
ATOM      7  S   UNL     1       1.128  10.653  19.188  0.00  0.00    +0.000 S 
ATOM      8  O   UNL     1       1.357  11.378  20.390  0.00  0.00    +0.000 OA
ATOM      9  O   UNL     1       1.836  11.018  17.954  0.00  0.00    +0.000 OA
BRANCH   7  10
ATOM     10  N   UNL     1      -0.543  10.682  18.834  0.00  0.00    +0.000 NA
ATOM     11  C   UNL     1      -1.249  11.957  19.115  0.00  0.00    +0.000 C 
ATOM     12  C   UNL     1      -2.749  11.856  18.877  0.00  0.00    +0.000 C 
ATOM     13  C   UNL     1      -3.052  11.276  17.506  0.00  0.00    +0.000 C 
ATOM     14  C   UNL     1      -2.439   9.890  17.396  0.00  0.00    +0.000 C 
ATOM     15  C   UNL     1      -0.931   9.912  17.622  0.00  0.00    +0.000 C 
ENDBRANCH   7  10
ENDBRANCH   4   7
BRANCH   6  16
ATOM     16  N   UNL     1       2.978   6.050  17.650  0.00  0.00    +0.000 N 
ATOM     17  H   UNL     1       2.702   6.338  16.731  0.00  0.00    +0.000 HD
BRANCH  16  18
ATOM     18  C   UNL     1       4.386   5.640  17.745  0.00  0.00    +0.000 C 
BRANCH  18  19
ATOM     19  C   UNL     1       5.380   6.502  16.964  0.00  0.00    +0.000 C 
ATOM     20  O   UNL     1       5.134   7.038  15.879  0.00  0.00    +0.000 OA
ATOM     21  N   UNL     1       6.550   6.753  17.686  0.00  0.00    +0.000 N 
ATOM     22  C   UNL     1       7.539   7.732  17.290  0.00  0.00    +0.000 C 
ATOM     23  C   UNL     1       8.451   7.841  18.506  0.00  0.00    +0.000 C 
ATOM     24  N   UNL     1       8.242   6.596  19.181  0.00  0.00    +0.000 N 
ATOM     25  C   UNL     1       7.034   6.028  18.799  0.00  0.00    +0.000 C 
ATOM     26  O   UNL     1       6.540   5.080  19.370  0.00  0.00    +0.000 OA
ATOM     27  H   UNL     1       8.680   6.294  20.041  0.00  0.00    +0.000 HD
ENDBRANCH  18  19
ENDBRANCH  16  18
ENDBRANCH   6  16
BRANCH   1  28
ATOM     28  O   UNL     1       2.801   5.195  20.600  0.00  0.00    +0.000 OA
BRANCH  28  34
ATOM     29  C   UNL     1       3.182   2.812  19.870  0.00  0.00    +0.000 A 
ATOM     30  C   UNL     1       2.574   1.779  19.158  0.00  0.00    +0.000 A 
ATOM     31  C   UNL     1       1.260   1.820  18.772  0.00  0.00    +0.000 A 
ATOM     32  C   UNL     1       0.483   2.893  19.175  0.00  0.00    +0.000 A 
ATOM     33  C   UNL     1       1.028   3.936  19.885  0.00  0.00    +0.000 A 
ATOM     34  C   UNL     1       2.400   3.944  20.184  0.00  0.00    +0.000 A 
BRANCH  29  36
ATOM     35  C   UNL     1       5.072   1.554  20.588  0.00  0.00    +0.000 C 
ATOM     36  O   UNL     1       4.540   2.764  20.036  0.00  0.00    +0.000 OA
ENDBRANCH  29  36
ENDBRANCH  28  34
ENDBRANCH   1  28
TORSDOF 8
ENDMDL
MODEL 7
REMARK VINA RESULT:      -8.1      2.242      4.214
REMARK  Name = 
REMARK  9 active torsions:
REMARK  status: ('A' for Active; 'I' for Inactive)
REMARK    1  A    between atoms: C_1  and  O_2
REMARK    2  A    between atoms: O_2  and  C_3
REMARK    3  A    between atoms: C_8  and  O_9
REMARK    4  A    between atoms: O_9  and  C_10
REMARK    5  A    between atoms: C_13  and  S_14
REMARK    6  A    between atoms: S_14  and  N_17
REMARK    7  A    between atoms: C_24  and  N_25
REMARK    8  A    between atoms: N_25  and  C_26
REMARK    9  A    between atoms: C_26  and  C_27
REMARK                            x       y       z     vdW  Elec       q    Type
REMARK                         _______ _______ _______ _____ _____    ______ ____
ROOT
ATOM      1  C   UNL     1       2.193   7.181  19.926  0.00  0.00    +0.000 A 
ATOM      2  C   UNL     1       1.299   7.637  20.934  0.00  0.00    +0.000 A 
ATOM      3  C   UNL     1       0.646   8.845  20.804  0.00  0.00    +0.000 A 
ATOM      4  C   UNL     1       0.899   9.629  19.684  0.00  0.00    +0.000 A 
ATOM      5  C   UNL     1       1.656   9.100  18.621  0.00  0.00    +0.000 A 
ATOM      6  C   UNL     1       2.245   7.843  18.678  0.00  0.00    +0.000 A 
ENDROOT
BRANCH   4   7
ATOM      7  S   UNL     1       0.186  11.253  19.600  0.00  0.00    +0.000 S 
ATOM      8  O   UNL     1      -0.503  11.371  18.361  0.00  0.00    +0.000 OA
ATOM      9  O   UNL     1      -0.527  11.453  20.868  0.00  0.00    +0.000 OA
BRANCH   7  10
ATOM     10  N   UNL     1       1.515  12.326  19.597  0.00  0.00    +0.000 NA
ATOM     11  C   UNL     1       1.878  12.917  18.285  0.00  0.00    +0.000 C 
ATOM     12  C   UNL     1       3.137  13.768  18.357  0.00  0.00    +0.000 C 
ATOM     13  C   UNL     1       3.052  14.784  19.484  0.00  0.00    +0.000 C 
ATOM     14  C   UNL     1       2.868  14.058  20.807  0.00  0.00    +0.000 C 
ATOM     15  C   UNL     1       1.620  13.182  20.810  0.00  0.00    +0.000 C 
ENDBRANCH   7  10
ENDBRANCH   4   7
BRANCH   6  16
ATOM     16  N   UNL     1       2.948   7.369  17.535  0.00  0.00    +0.000 N 
ATOM     17  H   UNL     1       2.549   7.608  16.649  0.00  0.00    +0.000 HD
BRANCH  16  18
ATOM     18  C   UNL     1       4.416   7.428  17.561  0.00  0.00    +0.000 C 
BRANCH  18  19
ATOM     19  C   UNL     1       5.130   6.598  16.493  0.00  0.00    +0.000 C 
ATOM     20  O   UNL     1       5.024   6.789  15.277  0.00  0.00    +0.000 OA
ATOM     21  N   UNL     1       6.046   5.696  17.042  0.00  0.00    +0.000 N 
ATOM     22  C   UNL     1       7.023   4.972  16.257  0.00  0.00    +0.000 C 
ATOM     23  C   UNL     1       7.949   4.361  17.303  0.00  0.00    +0.000 C 
ATOM     24  N   UNL     1       7.131   4.324  18.478  0.00  0.00    +0.000 N 
ATOM     25  C   UNL     1       6.086   5.233  18.377  0.00  0.00    +0.000 C 
ATOM     26  O   UNL     1       5.377   5.530  19.313  0.00  0.00    +0.000 OA
ATOM     27  H   UNL     1       7.399   3.980  19.390  0.00  0.00    +0.000 HD
ENDBRANCH  18  19
ENDBRANCH  16  18
ENDBRANCH   6  16
BRANCH   1  28
ATOM     28  O   UNL     1       2.898   6.087  20.331  0.00  0.00    +0.000 OA
BRANCH  28  34
ATOM     29  C   UNL     1       2.168   4.106  18.953  0.00  0.00    +0.000 A 
ATOM     30  C   UNL     1       1.403   2.944  19.034  0.00  0.00    +0.000 A 
ATOM     31  C   UNL     1       0.927   2.453  20.221  0.00  0.00    +0.000 A 
ATOM     32  C   UNL     1       1.289   3.091  21.395  0.00  0.00    +0.000 A 
ATOM     33  C   UNL     1       2.047   4.237  21.375  0.00  0.00    +0.000 A 
ATOM     34  C   UNL     1       2.441   4.800  20.151  0.00  0.00    +0.000 A 
BRANCH  29  36
ATOM     35  C   UNL     1       2.881   3.689  16.720  0.00  0.00    +0.000 C 
ATOM     36  O   UNL     1       2.427   4.619  17.710  0.00  0.00    +0.000 OA
ENDBRANCH  29  36
ENDBRANCH  28  34
ENDBRANCH   1  28
TORSDOF 8
ENDMDL
MODEL 8
REMARK VINA RESULT:      -8.0      0.754      1.618
REMARK  Name = 
REMARK  9 active torsions:
REMARK  status: ('A' for Active; 'I' for Inactive)
REMARK    1  A    between atoms: C_1  and  O_2
REMARK    2  A    between atoms: O_2  and  C_3
REMARK    3  A    between atoms: C_8  and  O_9
REMARK    4  A    between atoms: O_9  and  C_10
REMARK    5  A    between atoms: C_13  and  S_14
REMARK    6  A    between atoms: S_14  and  N_17
REMARK    7  A    between atoms: C_24  and  N_25
REMARK    8  A    between atoms: N_25  and  C_26
REMARK    9  A    between atoms: C_26  and  C_27
REMARK                            x       y       z     vdW  Elec       q    Type
REMARK                         _______ _______ _______ _____ _____    ______ ____
ROOT
ATOM      1  C   UNL     1       2.872   6.184  18.739  0.00  0.00    +0.000 A 
ATOM      2  C   UNL     1       2.601   7.406  18.064  0.00  0.00    +0.000 A 
ATOM      3  C   UNL     1       1.975   8.448  18.715  0.00  0.00    +0.000 A 
ATOM      4  C   UNL     1       1.582   8.275  20.037  0.00  0.00    +0.000 A 
ATOM      5  C   UNL     1       1.996   7.128  20.742  0.00  0.00    +0.000 A 
ATOM      6  C   UNL     1       2.716   6.103  20.141  0.00  0.00    +0.000 A 
ENDROOT
BRANCH   4   7
ATOM      7  S   UNL     1       0.630   9.554  20.820  0.00  0.00    +0.000 S 
ATOM      8  O   UNL     1      -0.617   8.997  21.221  0.00  0.00    +0.000 OA
ATOM      9  O   UNL     1       1.519  10.175  21.812  0.00  0.00    +0.000 OA
BRANCH   7  10
ATOM     10  N   UNL     1       0.351  10.716  19.600  0.00  0.00    +0.000 NA
ATOM     11  C   UNL     1      -1.056  10.872  19.154  0.00  0.00    +0.000 C 
ATOM     12  C   UNL     1      -1.194  11.843  17.991  0.00  0.00    +0.000 C 
ATOM     13  C   UNL     1      -0.494  13.159  18.285  0.00  0.00    +0.000 C 
ATOM     14  C   UNL     1       0.981  12.902  18.544  0.00  0.00    +0.000 C 
ATOM     15  C   UNL     1       1.199  11.935  19.702  0.00  0.00    +0.000 C 
ENDBRANCH   7  10
ENDBRANCH   4   7
BRANCH   6  16
ATOM     16  N   UNL     1       3.138   5.007  20.945  0.00  0.00    +0.000 N 
ATOM     17  H   UNL     1       3.780   5.228  21.680  0.00  0.00    +0.000 HD
BRANCH  16  18
ATOM     18  C   UNL     1       2.131   4.003  21.316  0.00  0.00    +0.000 C 
BRANCH  18  19
ATOM     19  C   UNL     1       1.537   3.202  20.156  0.00  0.00    +0.000 C 
ATOM     20  O   UNL     1       0.361   3.278  19.788  0.00  0.00    +0.000 OA
ATOM     21  N   UNL     1       2.508   2.489  19.448  0.00  0.00    +0.000 N 
ATOM     22  C   UNL     1       2.262   1.854  18.171  0.00  0.00    +0.000 C 
ATOM     23  C   UNL     1       3.653   1.469  17.681  0.00  0.00    +0.000 C 
ATOM     24  N   UNL     1       4.418   1.408  18.891  0.00  0.00    +0.000 N 
ATOM     25  C   UNL     1       3.805   2.145  19.895  0.00  0.00    +0.000 C 
ATOM     26  O   UNL     1       4.349   2.410  20.945  0.00  0.00    +0.000 OA
ATOM     27  H   UNL     1       5.399   1.180  18.975  0.00  0.00    +0.000 HD
ENDBRANCH  18  19
ENDBRANCH  16  18
ENDBRANCH   6  16
BRANCH   1  28
ATOM     28  O   UNL     1       3.290   5.212  17.879  0.00  0.00    +0.000 OA
BRANCH  28  34
ATOM     29  C   UNL     1       5.806   5.271  18.040  0.00  0.00    +0.000 A 
ATOM     30  C   UNL     1       6.941   5.541  17.277  0.00  0.00    +0.000 A 
ATOM     31  C   UNL     1       6.899   5.698  15.917  0.00  0.00    +0.000 A 
ATOM     32  C   UNL     1       5.694   5.500  15.263  0.00  0.00    +0.000 A 
ATOM     33  C   UNL     1       4.544   5.224  15.964  0.00  0.00    +0.000 A 
ATOM     34  C   UNL     1       4.569   5.173  17.367  0.00  0.00    +0.000 A 
BRANCH  29  36
ATOM     35  C   UNL     1       7.237   5.546  19.923  0.00  0.00    +0.000 C 
ATOM     36  O   UNL     1       5.920   5.328  19.403  0.00  0.00    +0.000 OA
ENDBRANCH  29  36
ENDBRANCH  28  34
ENDBRANCH   1  28
TORSDOF 8
ENDMDL
MODEL 9
REMARK VINA RESULT:      -8.0      2.351      6.808
REMARK  Name = 
REMARK  9 active torsions:
REMARK  status: ('A' for Active; 'I' for Inactive)
REMARK    1  A    between atoms: C_1  and  O_2
REMARK    2  A    between atoms: O_2  and  C_3
REMARK    3  A    between atoms: C_8  and  O_9
REMARK    4  A    between atoms: O_9  and  C_10
REMARK    5  A    between atoms: C_13  and  S_14
REMARK    6  A    between atoms: S_14  and  N_17
REMARK    7  A    between atoms: C_24  and  N_25
REMARK    8  A    between atoms: N_25  and  C_26
REMARK    9  A    between atoms: C_26  and  C_27
REMARK                            x       y       z     vdW  Elec       q    Type
REMARK                         _______ _______ _______ _____ _____    ______ ____
ROOT
ATOM      1  C   UNL     1       2.327   7.409  18.635  0.00  0.00    +0.000 A 
ATOM      2  C   UNL     1       3.131   7.673  17.492  0.00  0.00    +0.000 A 
ATOM      3  C   UNL     1       4.364   7.074  17.343  0.00  0.00    +0.000 A 
ATOM      4  C   UNL     1       4.826   6.228  18.344  0.00  0.00    +0.000 A 
ATOM      5  C   UNL     1       3.960   5.848  19.388  0.00  0.00    +0.000 A 
ATOM      6  C   UNL     1       2.674   6.356  19.513  0.00  0.00    +0.000 A 
ENDROOT
BRANCH   4   7
ATOM      7  S   UNL     1       6.479   5.590  18.229  0.00  0.00    +0.000 S 
ATOM      8  O   UNL     1       7.380   6.691  18.210  0.00  0.00    +0.000 OA
ATOM      9  O   UNL     1       6.592   4.556  19.267  0.00  0.00    +0.000 OA
BRANCH   7  10
ATOM     10  N   UNL     1       6.547   4.793  16.719  0.00  0.00    +0.000 NA
ATOM     11  C   UNL     1       5.405   3.903  16.396  0.00  0.00    +0.000 C 
ATOM     12  C   UNL     1       5.604   3.151  15.088  0.00  0.00    +0.000 C 
ATOM     13  C   UNL     1       5.982   4.097  13.961  0.00  0.00    +0.000 C 
ATOM     14  C   UNL     1       7.270   4.820  14.318  0.00  0.00    +0.000 C 
ATOM     15  C   UNL     1       7.146   5.600  15.622  0.00  0.00    +0.000 C 
ENDBRANCH   7  10
ENDBRANCH   4   7
BRANCH   6  16
ATOM     16  N   UNL     1       1.851   5.875  20.570  0.00  0.00    +0.000 N 
ATOM     17  H   UNL     1       1.468   6.573  21.176  0.00  0.00    +0.000 HD
BRANCH  16  18
ATOM     18  C   UNL     1       0.923   4.776  20.268  0.00  0.00    +0.000 C 
BRANCH  18  19
ATOM     19  C   UNL     1       1.422   3.751  19.248  0.00  0.00    +0.000 C 
ATOM     20  O   UNL     1       1.042   3.696  18.074  0.00  0.00    +0.000 OA
ATOM     21  N   UNL     1       2.476   2.978  19.741  0.00  0.00    +0.000 N 
ATOM     22  C   UNL     1       3.290   2.114  18.912  0.00  0.00    +0.000 C 
ATOM     23  C   UNL     1       4.450   1.725  19.820  0.00  0.00    +0.000 C 
ATOM     24  N   UNL     1       3.914   1.922  21.134  0.00  0.00    +0.000 N 
ATOM     25  C   UNL     1       2.832   2.790  21.096  0.00  0.00    +0.000 C 
ATOM     26  O   UNL     1       2.333   3.266  22.092  0.00  0.00    +0.000 OA
ATOM     27  H   UNL     1       4.392   1.766  22.011  0.00  0.00    +0.000 HD
ENDBRANCH  18  19
ENDBRANCH  16  18
ENDBRANCH   6  16
BRANCH   1  28
ATOM     28  O   UNL     1       1.258   8.252  18.709  0.00  0.00    +0.000 OA
BRANCH  28  34
ATOM     29  C   UNL     1       1.066   9.679  20.778  0.00  0.00    +0.000 A 
ATOM     30  C   UNL     1       0.832  10.994  21.178  0.00  0.00    +0.000 A 
ATOM     31  C   UNL     1       0.833  12.045  20.300  0.00  0.00    +0.000 A 
ATOM     32  C   UNL     1       1.159  11.804  18.977  0.00  0.00    +0.000 A 
ATOM     33  C   UNL     1       1.406  10.528  18.528  0.00  0.00    +0.000 A 
ATOM     34  C   UNL     1       1.296   9.439  19.406  0.00  0.00    +0.000 A 
BRANCH  29  36
ATOM     35  C   UNL     1      -0.481   8.575  22.212  0.00  0.00    +0.000 C 
ATOM     36  O   UNL     1       0.849   8.682  21.692  0.00  0.00    +0.000 OA
ENDBRANCH  29  36
ENDBRANCH  28  34
ENDBRANCH   1  28
TORSDOF 8
ENDMDL
