MODEL 1
REMARK VINA RESULT:      -6.5      0.000      0.000
REMARK  Name = 
REMARK  7 active torsions:
REMARK  status: ('A' for Active; 'I' for Inactive)
REMARK    1  A    between atoms: N_1  and  C_2
REMARK    2  A    between atoms: C_2  and  C_3
REMARK    3  A    between atoms: C_3  and  C_4
REMARK    4  A    between atoms: C_4  and  C_5
REMARK    5  A    between atoms: C_5  and  C_6
REMARK    6  A    between atoms: C_9  and  S_10
REMARK    7  A    between atoms: S_10  and  N_11
REMARK                            x       y       z     vdW  Elec       q    Type
REMARK                         _______ _______ _______ _____ _____    ______ ____
ROOT
ATOM      1  C   UNL     1       2.851   4.567  17.569  0.00  0.00    +0.000 A 
ATOM      2  C   UNL     1       3.382   5.852  17.762  0.00  0.00    +0.000 A 
ATOM      3  C   UNL     1       4.704   6.130  17.421  0.00  0.00    +0.000 A 
ATOM      4  C   UNL     1       5.505   5.110  16.906  0.00  0.00    +0.000 A 
ATOM      5  C   UNL     1       4.989   3.832  16.688  0.00  0.00    +0.000 A 
ATOM      6  C   UNL     1       3.664   3.561  17.026  0.00  0.00    +0.000 A 
ENDROOT
BRANCH   4   7
ATOM      7  S   UNL     1       7.210   5.423  16.583  0.00  0.00    +0.000 S 
ATOM      8  O   UNL     1       7.499   6.820  16.803  0.00  0.00    +0.000 OA
ATOM      9  O   UNL     1       8.013   4.364  17.153  0.00  0.00    +0.000 OA
BRANCH   7  10
ATOM     10  N   UNL     1       7.250   5.193  14.921  0.00  0.00    +0.000 NA
ATOM     11  H   UNL     1       7.945   5.801  14.494  0.00  0.00    +0.000 HD
ATOM     12  H   UNL     1       7.348   4.203  14.699  0.00  0.00    +0.000 HD
ENDBRANCH   7  10
ENDBRANCH   4   7
BRANCH   1  13
ATOM     13  C   UNL     1       1.418   4.264  17.936  0.00  0.00    +0.000 C 
BRANCH  13  14
ATOM     14  C   UNL     1       1.271   3.129  18.955  0.00  0.00    +0.000 C 
BRANCH  14  15
ATOM     15  C   UNL     1       0.902   3.625  20.357  0.00  0.00    +0.000 C 
BRANCH  15  16
ATOM     16  C   UNL     1       2.157   3.924  21.170  0.00  0.00    +0.000 C 
BRANCH  16  17
ATOM     17  N   UNL     1       2.413   5.361  21.196  0.00  0.00    +0.000 NA
ATOM     18  H   UNL     1       2.731   5.667  20.278  0.00  0.00    +0.000 HD
ATOM     19  H   UNL     1       3.170   5.566  21.847  0.00  0.00    +0.000 HD
ENDBRANCH  16  17
ENDBRANCH  15  16
ENDBRANCH  14  15
ENDBRANCH  13  14
ENDBRANCH   1  13
TORSDOF 7
ENDMDL
MODEL 2
REMARK VINA RESULT:      -6.5      1.863      2.344
REMARK  Name = 
REMARK  7 active torsions:
REMARK  status: ('A' for Active; 'I' for Inactive)
REMARK    1  A    between atoms: N_1  and  C_2
REMARK    2  A    between atoms: C_2  and  C_3
REMARK    3  A    between atoms: C_3  and  C_4
REMARK    4  A    between atoms: C_4  and  C_5
REMARK    5  A    between atoms: C_5  and  C_6
REMARK    6  A    between atoms: C_9  and  S_10
REMARK    7  A    between atoms: S_10  and  N_11
REMARK                            x       y       z     vdW  Elec       q    Type
REMARK                         _______ _______ _______ _____ _____    ______ ____
ROOT
ATOM      1  C   UNL     1       3.099   4.614  18.069  0.00  0.00    +0.000 A 
ATOM      2  C   UNL     1       3.958   3.681  18.671  0.00  0.00    +0.000 A 
ATOM      3  C   UNL     1       5.309   3.974  18.849  0.00  0.00    +0.000 A 
ATOM      4  C   UNL     1       5.807   5.197  18.400  0.00  0.00    +0.000 A 
ATOM      5  C   UNL     1       4.966   6.146  17.817  0.00  0.00    +0.000 A 
ATOM      6  C   UNL     1       3.614   5.849  17.646  0.00  0.00    +0.000 A 
ENDROOT
BRANCH   4   7
ATOM      7  S   UNL     1       7.536   5.526  18.515  0.00  0.00    +0.000 S 
ATOM      8  O   UNL     1       8.280   4.412  17.977  0.00  0.00    +0.000 OA
ATOM      9  O   UNL     1       7.795   6.895  18.127  0.00  0.00    +0.000 OA
BRANCH   7  10
ATOM     10  N   UNL     1       7.744   5.468  20.180  0.00  0.00    +0.000 NA
ATOM     11  H   UNL     1       8.022   6.380  20.535  0.00  0.00    +0.000 HD
ATOM     12  H   UNL     1       6.925   5.061  20.629  0.00  0.00    +0.000 HD
ENDBRANCH   7  10
ENDBRANCH   4   7
BRANCH   1  13
ATOM     13  C   UNL     1       1.635   4.300  17.876  0.00  0.00    +0.000 C 
BRANCH  13  14
ATOM     14  C   UNL     1       1.129   3.156  18.761  0.00  0.00    +0.000 C 
BRANCH  14  15
ATOM     15  C   UNL     1       0.753   3.613  20.175  0.00  0.00    +0.000 C 
BRANCH  15  16
ATOM     16  C   UNL     1       1.299   2.641  21.217  0.00  0.00    +0.000 C 
BRANCH  16  17
ATOM     17  N   UNL     1       2.258   3.317  22.086  0.00  0.00    +0.000 NA
ATOM     18  H   UNL     1       2.156   4.325  21.985  0.00  0.00    +0.000 HD
ATOM     19  H   UNL     1       3.208   3.092  21.794  0.00  0.00    +0.000 HD
ENDBRANCH  16  17
ENDBRANCH  15  16
ENDBRANCH  14  15
ENDBRANCH  13  14
ENDBRANCH   1  13
TORSDOF 7
ENDMDL
MODEL 3
REMARK VINA RESULT:      -6.5      1.230      1.796
REMARK  Name = 
REMARK  7 active torsions:
REMARK  status: ('A' for Active; 'I' for Inactive)
REMARK    1  A    between atoms: N_1  and  C_2
REMARK    2  A    between atoms: C_2  and  C_3
REMARK    3  A    between atoms: C_3  and  C_4
REMARK    4  A    between atoms: C_4  and  C_5
REMARK    5  A    between atoms: C_5  and  C_6
REMARK    6  A    between atoms: C_9  and  S_10
REMARK    7  A    between atoms: S_10  and  N_11
REMARK                            x       y       z     vdW  Elec       q    Type
REMARK                         _______ _______ _______ _____ _____    ______ ____
ROOT
ATOM      1  C   UNL     1       2.886   4.528  17.666  0.00  0.00    +0.000 A 
ATOM      2  C   UNL     1       3.753   3.633  17.020  0.00  0.00    +0.000 A 
ATOM      3  C   UNL     1       5.104   3.941  16.867  0.00  0.00    +0.000 A 
ATOM      4  C   UNL     1       5.584   5.161  17.342  0.00  0.00    +0.000 A 
ATOM      5  C   UNL     1       4.742   6.055  18.006  0.00  0.00    +0.000 A 
ATOM      6  C   UNL     1       3.392   5.739  18.160  0.00  0.00    +0.000 A 
ENDROOT
BRANCH   4   7
ATOM      7  S   UNL     1       7.264   5.609  17.049  0.00  0.00    +0.000 S 
ATOM      8  O   UNL     1       7.492   5.735  15.629  0.00  0.00    +0.000 OA
ATOM      9  O   UNL     1       7.667   6.625  17.995  0.00  0.00    +0.000 OA
BRANCH   7  10
ATOM     10  N   UNL     1       8.040   4.197  17.523  0.00  0.00    +0.000 NA
ATOM     11  H   UNL     1       7.481   3.700  18.213  0.00  0.00    +0.000 HD
ATOM     12  H   UNL     1       8.311   3.647  16.710  0.00  0.00    +0.000 HD
ENDBRANCH   7  10
ENDBRANCH   4   7
BRANCH   1  13
ATOM     13  C   UNL     1       1.423   4.196  17.834  0.00  0.00    +0.000 C 
BRANCH  13  14
ATOM     14  C   UNL     1       1.163   3.022  18.783  0.00  0.00    +0.000 C 
BRANCH  14  15
ATOM     15  C   UNL     1       0.727   3.466  20.183  0.00  0.00    +0.000 C 
BRANCH  15  16
ATOM     16  C   UNL     1       1.940   3.823  21.037  0.00  0.00    +0.000 C 
BRANCH  16  17
ATOM     17  N   UNL     1       2.038   2.920  22.180  0.00  0.00    +0.000 NA
ATOM     18  H   UNL     1       3.016   2.698  22.355  0.00  0.00    +0.000 HD
ATOM     19  H   UNL     1       1.576   2.038  21.964  0.00  0.00    +0.000 HD
ENDBRANCH  16  17
ENDBRANCH  15  16
ENDBRANCH  14  15
ENDBRANCH  13  14
ENDBRANCH   1  13
TORSDOF 7
ENDMDL
MODEL 4
REMARK VINA RESULT:      -6.4      1.365      1.756
REMARK  Name = 
REMARK  7 active torsions:
REMARK  status: ('A' for Active; 'I' for Inactive)
REMARK    1  A    between atoms: N_1  and  C_2
REMARK    2  A    between atoms: C_2  and  C_3
REMARK    3  A    between atoms: C_3  and  C_4
REMARK    4  A    between atoms: C_4  and  C_5
REMARK    5  A    between atoms: C_5  and  C_6
REMARK    6  A    between atoms: C_9  and  S_10
REMARK    7  A    between atoms: S_10  and  N_11
REMARK                            x       y       z     vdW  Elec       q    Type
REMARK                         _______ _______ _______ _____ _____    ______ ____
ROOT
ATOM      1  C   UNL     1       3.015   4.455  18.254  0.00  0.00    +0.000 A 
ATOM      2  C   UNL     1       3.715   4.014  17.120  0.00  0.00    +0.000 A 
ATOM      3  C   UNL     1       5.084   4.244  16.999  0.00  0.00    +0.000 A 
ATOM      4  C   UNL     1       5.751   4.939  18.008  0.00  0.00    +0.000 A 
ATOM      5  C   UNL     1       5.077   5.368  19.153  0.00  0.00    +0.000 A 
ATOM      6  C   UNL     1       3.708   5.131  19.270  0.00  0.00    +0.000 A 
ENDROOT
BRANCH   4   7
ATOM      7  S   UNL     1       7.458   5.336  17.808  0.00  0.00    +0.000 S 
ATOM      8  O   UNL     1       7.825   6.382  18.733  0.00  0.00    +0.000 OA
ATOM      9  O   UNL     1       8.225   4.119  17.666  0.00  0.00    +0.000 OA
BRANCH   7  10
ATOM     10  N   UNL     1       7.426   6.047  16.287  0.00  0.00    +0.000 NA
ATOM     11  H   UNL     1       8.358   6.053  15.879  0.00  0.00    +0.000 HD
ATOM     12  H   UNL     1       6.704   5.620  15.708  0.00  0.00    +0.000 HD
ENDBRANCH   7  10
ENDBRANCH   4   7
BRANCH   1  13
ATOM     13  C   UNL     1       1.532   4.207  18.388  0.00  0.00    +0.000 C 
BRANCH  13  14
ATOM     14  C   UNL     1       1.171   2.732  18.598  0.00  0.00    +0.000 C 
BRANCH  14  15
ATOM     15  C   UNL     1       1.783   2.140  19.871  0.00  0.00    +0.000 C 
BRANCH  15  16
ATOM     16  C   UNL     1       1.293   2.894  21.104  0.00  0.00    +0.000 C 
BRANCH  16  17
ATOM     17  N   UNL     1       2.349   2.961  22.110  0.00  0.00    +0.000 NA
ATOM     18  H   UNL     1       1.954   3.264  22.998  0.00  0.00    +0.000 HD
ATOM     19  H   UNL     1       3.036   3.665  21.844  0.00  0.00    +0.000 HD
ENDBRANCH  16  17
ENDBRANCH  15  16
ENDBRANCH  14  15
ENDBRANCH  13  14
ENDBRANCH   1  13
TORSDOF 7
ENDMDL
MODEL 5
REMARK VINA RESULT:      -6.4      1.212      1.880
REMARK  Name = 
REMARK  7 active torsions:
REMARK  status: ('A' for Active; 'I' for Inactive)
REMARK    1  A    between atoms: N_1  and  C_2
REMARK    2  A    between atoms: C_2  and  C_3
REMARK    3  A    between atoms: C_3  and  C_4
REMARK    4  A    between atoms: C_4  and  C_5
REMARK    5  A    between atoms: C_5  and  C_6
REMARK    6  A    between atoms: C_9  and  S_10
REMARK    7  A    between atoms: S_10  and  N_11
REMARK                            x       y       z     vdW  Elec       q    Type
REMARK                         _______ _______ _______ _____ _____    ______ ____
ROOT
ATOM      1  C   UNL     1       2.863   4.632  17.725  0.00  0.00    +0.000 A 
ATOM      2  C   UNL     1       3.588   3.553  17.196  0.00  0.00    +0.000 A 
ATOM      3  C   UNL     1       4.889   3.734  16.731  0.00  0.00    +0.000 A 
ATOM      4  C   UNL     1       5.458   5.008  16.773  0.00  0.00    +0.000 A 
ATOM      5  C   UNL     1       4.760   6.089  17.314  0.00  0.00    +0.000 A 
ATOM      6  C   UNL     1       3.460   5.900  17.782  0.00  0.00    +0.000 A 
ENDROOT
BRANCH   4   7
ATOM      7  S   UNL     1       7.058   5.269  16.079  0.00  0.00    +0.000 S 
ATOM      8  O   UNL     1       8.010   4.385  16.706  0.00  0.00    +0.000 OA
ATOM      9  O   UNL     1       6.947   5.402  14.643  0.00  0.00    +0.000 OA
BRANCH   7  10
ATOM     10  N   UNL     1       7.392   6.807  16.663  0.00  0.00    +0.000 NA
ATOM     11  H   UNL     1       7.814   6.753  17.587  0.00  0.00    +0.000 HD
ATOM     12  H   UNL     1       7.923   7.343  15.977  0.00  0.00    +0.000 HD
ENDBRANCH   7  10
ENDBRANCH   4   7
BRANCH   1  13
ATOM     13  C   UNL     1       1.454   4.437  18.231  0.00  0.00    +0.000 C 
BRANCH  13  14
ATOM     14  C   UNL     1       1.272   3.171  19.075  0.00  0.00    +0.000 C 
BRANCH  14  15
ATOM     15  C   UNL     1       0.835   3.467  20.513  0.00  0.00    +0.000 C 
BRANCH  15  16
ATOM     16  C   UNL     1       2.044   3.785  21.389  0.00  0.00    +0.000 C 
BRANCH  16  17
ATOM     17  N   UNL     1       2.593   2.559  21.958  0.00  0.00    +0.000 NA
ATOM     18  H   UNL     1       2.532   2.598  22.974  0.00  0.00    +0.000 HD
ATOM     19  H   UNL     1       3.584   2.485  21.732  0.00  0.00    +0.000 HD
ENDBRANCH  16  17
ENDBRANCH  15  16
ENDBRANCH  14  15
ENDBRANCH  13  14
ENDBRANCH   1  13
TORSDOF 7
ENDMDL
MODEL 6
REMARK VINA RESULT:      -6.4      1.283      1.509
REMARK  Name = 
REMARK  7 active torsions:
REMARK  status: ('A' for Active; 'I' for Inactive)
REMARK    1  A    between atoms: N_1  and  C_2
REMARK    2  A    between atoms: C_2  and  C_3
REMARK    3  A    between atoms: C_3  and  C_4
REMARK    4  A    between atoms: C_4  and  C_5
REMARK    5  A    between atoms: C_5  and  C_6
REMARK    6  A    between atoms: C_9  and  S_10
REMARK    7  A    between atoms: S_10  and  N_11
REMARK                            x       y       z     vdW  Elec       q    Type
REMARK                         _______ _______ _______ _____ _____    ______ ____
ROOT
ATOM      1  C   UNL     1       2.845   4.608  17.589  0.00  0.00    +0.000 A 
ATOM      2  C   UNL     1       3.385   5.869  17.887  0.00  0.00    +0.000 A 
ATOM      3  C   UNL     1       4.727   6.143  17.627  0.00  0.00    +0.000 A 
ATOM      4  C   UNL     1       5.536   5.143  17.089  0.00  0.00    +0.000 A 
ATOM      5  C   UNL     1       5.013   3.889  16.768  0.00  0.00    +0.000 A 
ATOM      6  C   UNL     1       3.668   3.622  17.025  0.00  0.00    +0.000 A 
ENDROOT
BRANCH   4   7
ATOM      7  S   UNL     1       7.260   5.444  16.868  0.00  0.00    +0.000 S 
ATOM      8  O   UNL     1       8.021   4.378  17.475  0.00  0.00    +0.000 OA
ATOM      9  O   UNL     1       7.502   5.903  15.518  0.00  0.00    +0.000 OA
BRANCH   7  10
ATOM     10  N   UNL     1       7.461   6.785  17.858  0.00  0.00    +0.000 NA
ATOM     11  H   UNL     1       6.741   6.808  18.576  0.00  0.00    +0.000 HD
ATOM     12  H   UNL     1       8.418   6.833  18.205  0.00  0.00    +0.000 HD
ENDBRANCH   7  10
ENDBRANCH   4   7
BRANCH   1  13
ATOM     13  C   UNL     1       1.391   4.309  17.868  0.00  0.00    +0.000 C 
BRANCH  13  14
ATOM     14  C   UNL     1       1.178   3.271  18.976  0.00  0.00    +0.000 C 
BRANCH  14  15
ATOM     15  C   UNL     1       1.317   3.858  20.383  0.00  0.00    +0.000 C 
BRANCH  15  16
ATOM     16  C   UNL     1       1.315   2.750  21.432  0.00  0.00    +0.000 C 
BRANCH  16  17
ATOM     17  N   UNL     1       2.645   2.604  22.017  0.00  0.00    +0.000 NA
ATOM     18  H   UNL     1       2.576   2.093  22.895  0.00  0.00    +0.000 HD
ATOM     19  H   UNL     1       3.024   3.521  22.247  0.00  0.00    +0.000 HD
ENDBRANCH  16  17
ENDBRANCH  15  16
ENDBRANCH  14  15
ENDBRANCH  13  14
ENDBRANCH   1  13
TORSDOF 7
ENDMDL
MODEL 7
REMARK VINA RESULT:      -6.4      0.685      1.428
REMARK  Name = 
REMARK  7 active torsions:
REMARK  status: ('A' for Active; 'I' for Inactive)
REMARK    1  A    between atoms: N_1  and  C_2
REMARK    2  A    between atoms: C_2  and  C_3
REMARK    3  A    between atoms: C_3  and  C_4
REMARK    4  A    between atoms: C_4  and  C_5
REMARK    5  A    between atoms: C_5  and  C_6
REMARK    6  A    between atoms: C_9  and  S_10
REMARK    7  A    between atoms: S_10  and  N_11
REMARK                            x       y       z     vdW  Elec       q    Type
REMARK                         _______ _______ _______ _____ _____    ______ ____
ROOT
ATOM      1  C   UNL     1       2.903   4.671  17.622  0.00  0.00    +0.000 A 
ATOM      2  C   UNL     1       3.702   3.637  17.112  0.00  0.00    +0.000 A 
ATOM      3  C   UNL     1       5.044   3.862  16.810  0.00  0.00    +0.000 A 
ATOM      4  C   UNL     1       5.581   5.136  16.997  0.00  0.00    +0.000 A 
ATOM      5  C   UNL     1       4.807   6.172  17.522  0.00  0.00    +0.000 A 
ATOM      6  C   UNL     1       3.467   5.939  17.827  0.00  0.00    +0.000 A 
ENDROOT
BRANCH   4   7
ATOM      7  S   UNL     1       7.244   5.459  16.507  0.00  0.00    +0.000 S 
ATOM      8  O   UNL     1       7.553   6.852  16.726  0.00  0.00    +0.000 OA
ATOM      9  O   UNL     1       8.101   4.390  16.968  0.00  0.00    +0.000 OA
BRANCH   7  10
ATOM     10  N   UNL     1       7.112   5.265  14.844  0.00  0.00    +0.000 NA
ATOM     11  H   UNL     1       6.139   5.339  14.554  0.00  0.00    +0.000 HD
ATOM     12  H   UNL     1       7.756   5.888  14.359  0.00  0.00    +0.000 HD
ENDBRANCH   7  10
ENDBRANCH   4   7
BRANCH   1  13
ATOM     13  C   UNL     1       1.449   4.429  17.951  0.00  0.00    +0.000 C 
BRANCH  13  14
ATOM     14  C   UNL     1       1.180   3.056  18.576  0.00  0.00    +0.000 C 
BRANCH  14  15
ATOM     15  C   UNL     1       0.741   3.139  20.041  0.00  0.00    +0.000 C 
BRANCH  15  16
ATOM     16  C   UNL     1       1.795   3.856  20.879  0.00  0.00    +0.000 C 
BRANCH  16  17
ATOM     17  N   UNL     1       2.107   3.077  22.074  0.00  0.00    +0.000 NA
ATOM     18  H   UNL     1       2.479   3.693  22.794  0.00  0.00    +0.000 HD
ATOM     19  H   UNL     1       2.840   2.401  21.865  0.00  0.00    +0.000 HD
ENDBRANCH  16  17
ENDBRANCH  15  16
ENDBRANCH  14  15
ENDBRANCH  13  14
ENDBRANCH   1  13
TORSDOF 7
ENDMDL
MODEL 8
REMARK VINA RESULT:      -6.4      1.290      1.383
REMARK  Name = 
REMARK  7 active torsions:
REMARK  status: ('A' for Active; 'I' for Inactive)
REMARK    1  A    between atoms: N_1  and  C_2
REMARK    2  A    between atoms: C_2  and  C_3
REMARK    3  A    between atoms: C_3  and  C_4
REMARK    4  A    between atoms: C_4  and  C_5
REMARK    5  A    between atoms: C_5  and  C_6
REMARK    6  A    between atoms: C_9  and  S_10
REMARK    7  A    between atoms: S_10  and  N_11
REMARK                            x       y       z     vdW  Elec       q    Type
REMARK                         _______ _______ _______ _____ _____    ______ ____
ROOT
ATOM      1  C   UNL     1       2.886   4.480  17.723  0.00  0.00    +0.000 A 
ATOM      2  C   UNL     1       3.361   5.707  18.211  0.00  0.00    +0.000 A 
ATOM      3  C   UNL     1       4.682   6.094  17.988  0.00  0.00    +0.000 A 
ATOM      4  C   UNL     1       5.536   5.237  17.294  0.00  0.00    +0.000 A 
ATOM      5  C   UNL     1       5.077   4.022  16.784  0.00  0.00    +0.000 A 
ATOM      6  C   UNL     1       3.753   3.642  17.006  0.00  0.00    +0.000 A 
ENDROOT
BRANCH   4   7
ATOM      7  S   UNL     1       7.237   5.666  17.110  0.00  0.00    +0.000 S 
ATOM      8  O   UNL     1       7.537   5.875  15.714  0.00  0.00    +0.000 OA
ATOM      9  O   UNL     1       7.611   6.613  18.137  0.00  0.00    +0.000 OA
BRANCH   7  10
ATOM     10  N   UNL     1       7.962   4.211  17.532  0.00  0.00    +0.000 NA
ATOM     11  H   UNL     1       8.205   3.681  16.699  0.00  0.00    +0.000 HD
ATOM     12  H   UNL     1       8.731   4.370  18.182  0.00  0.00    +0.000 HD
ENDBRANCH   7  10
ENDBRANCH   4   7
BRANCH   1  13
ATOM     13  C   UNL     1       1.456   4.059  17.962  0.00  0.00    +0.000 C 
BRANCH  13  14
ATOM     14  C   UNL     1       1.168   3.654  19.412  0.00  0.00    +0.000 C 
BRANCH  14  15
ATOM     15  C   UNL     1       1.865   2.353  19.822  0.00  0.00    +0.000 C 
BRANCH  15  16
ATOM     16  C   UNL     1       2.833   2.602  20.975  0.00  0.00    +0.000 C 
BRANCH  16  17
ATOM     17  N   UNL     1       2.139   3.242  22.089  0.00  0.00    +0.000 NA
ATOM     18  H   UNL     1       1.198   3.501  21.799  0.00  0.00    +0.000 HD
ATOM     19  H   UNL     1       2.613   4.108  22.340  0.00  0.00    +0.000 HD
ENDBRANCH  16  17
ENDBRANCH  15  16
ENDBRANCH  14  15
ENDBRANCH  13  14
ENDBRANCH   1  13
TORSDOF 7
ENDMDL
MODEL 9
REMARK VINA RESULT:      -6.3      1.930      2.472
REMARK  Name = 
REMARK  7 active torsions:
REMARK  status: ('A' for Active; 'I' for Inactive)
REMARK    1  A    between atoms: N_1  and  C_2
REMARK    2  A    between atoms: C_2  and  C_3
REMARK    3  A    between atoms: C_3  and  C_4
REMARK    4  A    between atoms: C_4  and  C_5
REMARK    5  A    between atoms: C_5  and  C_6
REMARK    6  A    between atoms: C_9  and  S_10
REMARK    7  A    between atoms: S_10  and  N_11
REMARK                            x       y       z     vdW  Elec       q    Type
REMARK                         _______ _______ _______ _____ _____    ______ ____
ROOT
ATOM      1  C   UNL     1       3.421   5.778  19.070  0.00  0.00    +0.000 A 
ATOM      2  C   UNL     1       4.429   4.873  19.438  0.00  0.00    +0.000 A 
ATOM      3  C   UNL     1       5.505   4.628  18.588  0.00  0.00    +0.000 A 
ATOM      4  C   UNL     1       5.560   5.275  17.353  0.00  0.00    +0.000 A 
ATOM      5  C   UNL     1       4.578   6.193  16.978  0.00  0.00    +0.000 A 
ATOM      6  C   UNL     1       3.506   6.437  17.835  0.00  0.00    +0.000 A 
ENDROOT
BRANCH   4   7
ATOM      7  S   UNL     1       6.856   4.882  16.223  0.00  0.00    +0.000 S 
ATOM      8  O   UNL     1       6.422   3.831  15.332  0.00  0.00    +0.000 OA
ATOM      9  O   UNL     1       7.469   6.102  15.746  0.00  0.00    +0.000 OA
BRANCH   7  10
ATOM     10  N   UNL     1       7.966   4.180  17.268  0.00  0.00    +0.000 NA
ATOM     11  H   UNL     1       8.577   4.890  17.666  0.00  0.00    +0.000 HD
ATOM     12  H   UNL     1       7.492   3.588  17.949  0.00  0.00    +0.000 HD
ENDBRANCH   7  10
ENDBRANCH   4   7
BRANCH   1  13
ATOM     13  C   UNL     1       2.254   6.045  19.991  0.00  0.00    +0.000 C 
BRANCH  13  14
ATOM     14  C   UNL     1       1.813   4.819  20.797  0.00  0.00    +0.000 C 
BRANCH  14  15
ATOM     15  C   UNL     1       0.987   3.825  19.974  0.00  0.00    +0.000 C 
BRANCH  15  16
ATOM     16  C   UNL     1       1.604   2.431  20.038  0.00  0.00    +0.000 C 
BRANCH  16  17
ATOM     17  N   UNL     1       1.525   1.783  18.732  0.00  0.00    +0.000 NA
ATOM     18  H   UNL     1       0.902   0.979  18.789  0.00  0.00    +0.000 HD
ATOM     19  H   UNL     1       2.440   1.421  18.469  0.00  0.00    +0.000 HD
ENDBRANCH  16  17
ENDBRANCH  15  16
ENDBRANCH  14  15
ENDBRANCH  13  14
ENDBRANCH   1  13
TORSDOF 7
ENDMDL
