MODEL 1
REMARK VINA RESULT:      -7.8      0.000      0.000
REMARK  Name = 
REMARK  7 active torsions:
REMARK  status: ('A' for Active; 'I' for Inactive)
REMARK    1  A    between atoms: C_1  and  N_2
REMARK    2  A    between atoms: N_2  and  C_3
REMARK    3  A    between atoms: N_2  and  S_4
REMARK    4  A    between atoms: S_4  and  C_7
REMARK    5  A    between atoms: C_10  and  C_11
REMARK    6  A    between atoms: N_13  and  C_14
REMARK    7  A    between atoms: N_18  and  C_19
REMARK                            x       y       z     vdW  Elec       q    Type
REMARK                         _______ _______ _______ _____ _____    ______ ____
ROOT
ATOM      1  C   UNL     1       1.397   9.103  19.302  0.00  0.00    +0.000 C 
ATOM      2  O   UNL     1       0.823   9.191  20.372  0.00  0.00    +0.000 OA
ATOM      3  N   UNL     1       1.225  10.125  18.289  0.00  0.00    +0.000 N 
ATOM      4  H   UNL     1       1.644  10.015  17.383  0.00  0.00    +0.000 HD
ENDROOT
BRANCH   1   8
ATOM      5  C   UNL     1       3.726   5.590  18.455  0.00  0.00    +0.000 A 
ATOM      6  C   UNL     1       2.963   5.672  19.621  0.00  0.00    +0.000 A 
ATOM      7  C   UNL     1       2.224   6.834  19.875  0.00  0.00    +0.000 A 
ATOM      8  C   UNL     1       2.237   7.912  18.972  0.00  0.00    +0.000 A 
ATOM      9  C   UNL     1       3.023   7.821  17.815  0.00  0.00    +0.000 A 
ATOM     10  C   UNL     1       3.779   6.672  17.568  0.00  0.00    +0.000 A 
BRANCH   5  11
ATOM     11  S   UNL     1       4.689   4.121  18.127  0.00  0.00    +0.000 S 
ATOM     12  O   UNL     1       3.819   3.181  17.462  0.00  0.00    +0.000 OA
ATOM     13  O   UNL     1       5.384   3.775  19.351  0.00  0.00    +0.000 OA
BRANCH  11  15
ATOM     14  C   UNL     1       7.246   4.698  17.487  0.00  0.00    +0.000 C 
ATOM     15  N   UNL     1       5.846   4.687  17.001  0.00  0.00    +0.000 NA
ATOM     16  C   UNL     1       5.751   4.017  15.679  0.00  0.00    +0.000 C 
ENDBRANCH  11  15
ENDBRANCH   5  11
ENDBRANCH   1   8
BRANCH   3  17
ATOM     17  C   UNL     1       0.462  11.278  18.494  0.00  0.00    +0.000 A 
ATOM     18  C   UNL     1       0.872  12.475  19.037  0.00  0.00    +0.000 A 
ATOM     19  C   UNL     1      -0.242  13.325  18.946  0.00  0.00    +0.000 A 
ATOM     20  N   UNL     1      -1.292  12.724  18.386  0.00  0.00    +0.000 NA
ATOM     21  N   UNL     1      -0.885  11.452  18.209  0.00  0.00    +0.000 N 
BRANCH  21  22
ATOM     22  C   UNL     1      -1.889  10.399  18.044  0.00  0.00    +0.000 C 
ATOM     23  C   UNL     1      -3.291  10.876  18.466  0.00  0.00    +0.000 C 
ATOM     24  C   UNL     1      -4.050  11.642  17.382  0.00  0.00    +0.000 C 
ATOM     25  C   UNL     1      -4.090  10.880  16.065  0.00  0.00    +0.000 C 
ATOM     26  C   UNL     1      -2.702  10.466  15.590  0.00  0.00    +0.000 C 
ATOM     27  C   UNL     1      -1.897   9.729  16.660  0.00  0.00    +0.000 C 
ENDBRANCH  21  22
ENDBRANCH   3  17
TORSDOF 5
ENDMDL
MODEL 2
REMARK VINA RESULT:      -7.8      1.011      1.385
REMARK  Name = 
REMARK  7 active torsions:
REMARK  status: ('A' for Active; 'I' for Inactive)
REMARK    1  A    between atoms: C_1  and  N_2
REMARK    2  A    between atoms: N_2  and  C_3
REMARK    3  A    between atoms: N_2  and  S_4
REMARK    4  A    between atoms: S_4  and  C_7
REMARK    5  A    between atoms: C_10  and  C_11
REMARK    6  A    between atoms: N_13  and  C_14
REMARK    7  A    between atoms: N_18  and  C_19
REMARK                            x       y       z     vdW  Elec       q    Type
REMARK                         _______ _______ _______ _____ _____    ______ ____
ROOT
ATOM      1  C   UNL     1       1.527   9.359  18.566  0.00  0.00    +0.000 C 
ATOM      2  O   UNL     1       1.871  10.322  17.906  0.00  0.00    +0.000 OA
ATOM      3  N   UNL     1       0.374   9.440  19.441  0.00  0.00    +0.000 N 
ATOM      4  H   UNL     1       0.135   8.667  20.035  0.00  0.00    +0.000 HD
ENDROOT
BRANCH   1   8
ATOM      5  C   UNL     1       3.900   5.777  18.416  0.00  0.00    +0.000 A 
ATOM      6  C   UNL     1       4.006   6.742  17.413  0.00  0.00    +0.000 A 
ATOM      7  C   UNL     1       3.212   7.892  17.484  0.00  0.00    +0.000 A 
ATOM      8  C   UNL     1       2.316   8.090  18.549  0.00  0.00    +0.000 A 
ATOM      9  C   UNL     1       2.207   7.103  19.538  0.00  0.00    +0.000 A 
ATOM     10  C   UNL     1       2.983   5.942  19.461  0.00  0.00    +0.000 A 
BRANCH   5  11
ATOM     11  S   UNL     1       4.893   4.294  18.330  0.00  0.00    +0.000 S 
ATOM     12  O   UNL     1       4.030   3.228  17.881  0.00  0.00    +0.000 OA
ATOM     13  O   UNL     1       5.636   4.196  19.571  0.00  0.00    +0.000 OA
BRANCH  11  15
ATOM     14  C   UNL     1       7.427   4.651  17.473  0.00  0.00    +0.000 C 
ATOM     15  N   UNL     1       5.998   4.667  17.078  0.00  0.00    +0.000 NA
ATOM     16  C   UNL     1       5.781   3.863  15.849  0.00  0.00    +0.000 C 
ENDBRANCH  11  15
ENDBRANCH   5  11
ENDBRANCH   1   8
BRANCH   3  17
ATOM     17  C   UNL     1      -0.431  10.578  19.532  0.00  0.00    +0.000 A 
ATOM     18  C   UNL     1      -0.300  11.637  20.403  0.00  0.00    +0.000 A 
ATOM     19  C   UNL     1      -1.301  12.549  20.032  0.00  0.00    +0.000 A 
ATOM     20  N   UNL     1      -2.023  12.116  19.000  0.00  0.00    +0.000 NA
ATOM     21  N   UNL     1      -1.552  10.875  18.770  0.00  0.00    +0.000 N 
BRANCH  21  22
ATOM     22  C   UNL     1      -2.383   9.923  18.027  0.00  0.00    +0.000 C 
ATOM     23  C   UNL     1      -3.884  10.209  18.214  0.00  0.00    +0.000 C 
ATOM     24  C   UNL     1      -4.443  11.285  17.282  0.00  0.00    +0.000 C 
ATOM     25  C   UNL     1      -4.103  11.011  15.824  0.00  0.00    +0.000 C 
ATOM     26  C   UNL     1      -2.608  10.802  15.606  0.00  0.00    +0.000 C 
ATOM     27  C   UNL     1      -2.004   9.759  16.546  0.00  0.00    +0.000 C 
ENDBRANCH  21  22
ENDBRANCH   3  17
TORSDOF 5
ENDMDL
MODEL 3
REMARK VINA RESULT:      -7.8      1.308      1.725
REMARK  Name = 
REMARK  7 active torsions:
REMARK  status: ('A' for Active; 'I' for Inactive)
REMARK    1  A    between atoms: C_1  and  N_2
REMARK    2  A    between atoms: N_2  and  C_3
REMARK    3  A    between atoms: N_2  and  S_4
REMARK    4  A    between atoms: S_4  and  C_7
REMARK    5  A    between atoms: C_10  and  C_11
REMARK    6  A    between atoms: N_13  and  C_14
REMARK    7  A    between atoms: N_18  and  C_19
REMARK                            x       y       z     vdW  Elec       q    Type
REMARK                         _______ _______ _______ _____ _____    ______ ____
ROOT
ATOM      1  C   UNL     1       1.327   9.013  19.463  0.00  0.00    +0.000 C 
ATOM      2  O   UNL     1       0.830   9.131  20.568  0.00  0.00    +0.000 OA
ATOM      3  N   UNL     1       1.051   9.986  18.424  0.00  0.00    +0.000 N 
ATOM      4  H   UNL     1       1.406   9.849  17.495  0.00  0.00    +0.000 HD
ENDROOT
BRANCH   1   8
ATOM      5  C   UNL     1       3.683   5.527  18.580  0.00  0.00    +0.000 A 
ATOM      6  C   UNL     1       2.950   5.607  19.765  0.00  0.00    +0.000 A 
ATOM      7  C   UNL     1       2.201   6.760  20.029  0.00  0.00    +0.000 A 
ATOM      8  C   UNL     1       2.175   7.831  19.119  0.00  0.00    +0.000 A 
ATOM      9  C   UNL     1       2.932   7.744  17.943  0.00  0.00    +0.000 A 
ATOM     10  C   UNL     1       3.698   6.603  17.684  0.00  0.00    +0.000 A 
BRANCH   5  11
ATOM     11  S   UNL     1       4.658   4.070  18.237  0.00  0.00    +0.000 S 
ATOM     12  O   UNL     1       5.905   4.213  18.950  0.00  0.00    +0.000 OA
ATOM     13  O   UNL     1       4.626   3.852  16.804  0.00  0.00    +0.000 OA
BRANCH  11  15
ATOM     14  C   UNL     1       3.215   1.797  18.063  0.00  0.00    +0.000 C 
ATOM     15  N   UNL     1       3.742   2.833  18.983  0.00  0.00    +0.000 NA
ATOM     16  C   UNL     1       4.433   2.209  20.139  0.00  0.00    +0.000 C 
ENDBRANCH  11  15
ENDBRANCH   5  11
ENDBRANCH   1   8
BRANCH   3  17
ATOM     17  C   UNL     1       0.271  11.126  18.640  0.00  0.00    +0.000 A 
ATOM     18  C   UNL     1       0.634  12.287  19.284  0.00  0.00    +0.000 A 
ATOM     19  C   UNL     1      -0.471  13.143  19.159  0.00  0.00    +0.000 A 
ATOM     20  N   UNL     1      -1.473  12.580  18.484  0.00  0.00    +0.000 NA
ATOM     21  N   UNL     1      -1.050  11.321  18.262  0.00  0.00    +0.000 N 
BRANCH  21  22
ATOM     22  C   UNL     1      -2.036  10.281  17.956  0.00  0.00    +0.000 C 
ATOM     23  C   UNL     1      -3.464  10.721  18.332  0.00  0.00    +0.000 C 
ATOM     24  C   UNL     1      -4.163  11.568  17.268  0.00  0.00    +0.000 C 
ATOM     25  C   UNL     1      -4.121  10.912  15.896  0.00  0.00    +0.000 C 
ATOM     26  C   UNL     1      -2.705  10.539  15.472  0.00  0.00    +0.000 C 
ATOM     27  C   UNL     1      -1.958   9.722  16.526  0.00  0.00    +0.000 C 
ENDBRANCH  21  22
ENDBRANCH   3  17
TORSDOF 5
ENDMDL
MODEL 4
REMARK VINA RESULT:      -7.8      1.630      2.183
REMARK  Name = 
REMARK  7 active torsions:
REMARK  status: ('A' for Active; 'I' for Inactive)
REMARK    1  A    between atoms: C_1  and  N_2
REMARK    2  A    between atoms: N_2  and  C_3
REMARK    3  A    between atoms: N_2  and  S_4
REMARK    4  A    between atoms: S_4  and  C_7
REMARK    5  A    between atoms: C_10  and  C_11
REMARK    6  A    between atoms: N_13  and  C_14
REMARK    7  A    between atoms: N_18  and  C_19
REMARK                            x       y       z     vdW  Elec       q    Type
REMARK                         _______ _______ _______ _____ _____    ______ ____
ROOT
ATOM      1  C   UNL     1       1.468   9.484  18.666  0.00  0.00    +0.000 C 
ATOM      2  O   UNL     1       1.908  10.489  18.137  0.00  0.00    +0.000 OA
ATOM      3  N   UNL     1       0.211   9.523  19.388  0.00  0.00    +0.000 N 
ATOM      4  H   UNL     1      -0.114   8.711  19.881  0.00  0.00    +0.000 HD
ENDROOT
BRANCH   1   8
ATOM      5  C   UNL     1       3.776   5.861  18.507  0.00  0.00    +0.000 A 
ATOM      6  C   UNL     1       3.839   6.789  17.467  0.00  0.00    +0.000 A 
ATOM      7  C   UNL     1       3.067   7.954  17.542  0.00  0.00    +0.000 A 
ATOM      8  C   UNL     1       2.236   8.203  18.649  0.00  0.00    +0.000 A 
ATOM      9  C   UNL     1       2.170   7.252  19.677  0.00  0.00    +0.000 A 
ATOM     10  C   UNL     1       2.923   6.077  19.596  0.00  0.00    +0.000 A 
BRANCH   5  11
ATOM     11  S   UNL     1       4.741   4.360  18.417  0.00  0.00    +0.000 S 
ATOM     12  O   UNL     1       5.850   4.510  19.329  0.00  0.00    +0.000 OA
ATOM     13  O   UNL     1       4.951   4.062  17.014  0.00  0.00    +0.000 OA
BRANCH  11  15
ATOM     14  C   UNL     1       2.873   2.450  18.044  0.00  0.00    +0.000 C 
ATOM     15  N   UNL     1       3.664   3.194  19.053  0.00  0.00    +0.000 NA
ATOM     16  C   UNL     1       4.310   2.260  20.009  0.00  0.00    +0.000 C 
ENDBRANCH  11  15
ENDBRANCH   5  11
ENDBRANCH   1   8
BRANCH   3  17
ATOM     17  C   UNL     1      -0.584  10.669  19.466  0.00  0.00    +0.000 A 
ATOM     18  C   UNL     1      -0.435  11.744  20.313  0.00  0.00    +0.000 A 
ATOM     19  C   UNL     1      -1.434  12.656  19.936  0.00  0.00    +0.000 A 
ATOM     20  N   UNL     1      -2.172  12.207  18.922  0.00  0.00    +0.000 NA
ATOM     21  N   UNL     1      -1.713  10.958  18.712  0.00  0.00    +0.000 N 
BRANCH  21  22
ATOM     22  C   UNL     1      -2.560   9.998  17.999  0.00  0.00    +0.000 C 
ATOM     23  C   UNL     1      -4.048  10.388  18.068  0.00  0.00    +0.000 C 
ATOM     24  C   UNL     1      -4.481  11.411  17.018  0.00  0.00    +0.000 C 
ATOM     25  C   UNL     1      -4.076  10.993  15.611  0.00  0.00    +0.000 C 
ATOM     26  C   UNL     1      -2.589  10.677  15.504  0.00  0.00    +0.000 C 
ATOM     27  C   UNL     1      -2.109   9.685  16.564  0.00  0.00    +0.000 C 
ENDBRANCH  21  22
ENDBRANCH   3  17
TORSDOF 5
ENDMDL
MODEL 5
REMARK VINA RESULT:      -7.7      1.651      2.128
REMARK  Name = 
REMARK  7 active torsions:
REMARK  status: ('A' for Active; 'I' for Inactive)
REMARK    1  A    between atoms: C_1  and  N_2
REMARK    2  A    between atoms: N_2  and  C_3
REMARK    3  A    between atoms: N_2  and  S_4
REMARK    4  A    between atoms: S_4  and  C_7
REMARK    5  A    between atoms: C_10  and  C_11
REMARK    6  A    between atoms: N_13  and  C_14
REMARK    7  A    between atoms: N_18  and  C_19
REMARK                            x       y       z     vdW  Elec       q    Type
REMARK                         _______ _______ _______ _____ _____    ______ ____
ROOT
ATOM      1  C   UNL     1       1.715   9.034  18.411  0.00  0.00    +0.000 C 
ATOM      2  O   UNL     1       2.211   9.681  17.507  0.00  0.00    +0.000 OA
ATOM      3  N   UNL     1       0.656   9.599  19.225  0.00  0.00    +0.000 N 
ATOM      4  H   UNL     1       0.298   9.089  20.013  0.00  0.00    +0.000 HD
ENDROOT
BRANCH   1   8
ATOM      5  C   UNL     1       3.290   5.131  19.287  0.00  0.00    +0.000 A 
ATOM      6  C   UNL     1       3.539   5.737  18.054  0.00  0.00    +0.000 A 
ATOM      7  C   UNL     1       3.003   7.004  17.795  0.00  0.00    +0.000 A 
ATOM      8  C   UNL     1       2.224   7.672  18.756  0.00  0.00    +0.000 A 
ATOM      9  C   UNL     1       1.967   7.042  19.981  0.00  0.00    +0.000 A 
ATOM     10  C   UNL     1       2.483   5.768  20.237  0.00  0.00    +0.000 A 
BRANCH   5  11
ATOM     11  S   UNL     1       3.951   3.506  19.626  0.00  0.00    +0.000 S 
ATOM     12  O   UNL     1       3.396   3.074  20.887  0.00  0.00    +0.000 OA
ATOM     13  O   UNL     1       5.383   3.566  19.410  0.00  0.00    +0.000 OA
BRANCH  11  15
ATOM     14  C   UNL     1       3.806   1.189  18.252  0.00  0.00    +0.000 C 
ATOM     15  N   UNL     1       3.265   2.563  18.375  0.00  0.00    +0.000 NA
ATOM     16  C   UNL     1       1.780   2.546  18.403  0.00  0.00    +0.000 C 
ENDBRANCH  11  15
ENDBRANCH   5  11
ENDBRANCH   1   8
BRANCH   3  17
ATOM     17  C   UNL     1       0.109  10.862  18.988  0.00  0.00    +0.000 A 
ATOM     18  C   UNL     1       0.588  12.082  19.411  0.00  0.00    +0.000 A 
ATOM     19  C   UNL     1      -0.273  13.036  18.844  0.00  0.00    +0.000 A 
ATOM     20  N   UNL     1      -1.234  12.477  18.111  0.00  0.00    +0.000 NA
ATOM     21  N   UNL     1      -1.054  11.153  18.288  0.00  0.00    +0.000 N 
BRANCH  21  22
ATOM     22  C   UNL     1      -2.167  10.239  18.018  0.00  0.00    +0.000 C 
ATOM     23  C   UNL     1      -3.530  10.907  18.279  0.00  0.00    +0.000 C 
ATOM     24  C   UNL     1      -4.055  11.745  17.113  0.00  0.00    +0.000 C 
ATOM     25  C   UNL     1      -4.053  10.968  15.804  0.00  0.00    +0.000 C 
ATOM     26  C   UNL     1      -2.689  10.364  15.489  0.00  0.00    +0.000 C 
ATOM     27  C   UNL     1      -2.112   9.548  16.646  0.00  0.00    +0.000 C 
ENDBRANCH  21  22
ENDBRANCH   3  17
TORSDOF 5
ENDMDL
MODEL 6
REMARK VINA RESULT:      -7.6      1.822      2.222
REMARK  Name = 
REMARK  7 active torsions:
REMARK  status: ('A' for Active; 'I' for Inactive)
REMARK    1  A    between atoms: C_1  and  N_2
REMARK    2  A    between atoms: N_2  and  C_3
REMARK    3  A    between atoms: N_2  and  S_4
REMARK    4  A    between atoms: S_4  and  C_7
REMARK    5  A    between atoms: C_10  and  C_11
REMARK    6  A    between atoms: N_13  and  C_14
REMARK    7  A    between atoms: N_18  and  C_19
REMARK                            x       y       z     vdW  Elec       q    Type
REMARK                         _______ _______ _______ _____ _____    ______ ____
ROOT
ATOM      1  C   UNL     1       1.758   8.772  18.416  0.00  0.00    +0.000 C 
ATOM      2  O   UNL     1       2.225   9.353  17.454  0.00  0.00    +0.000 OA
ATOM      3  N   UNL     1       0.791   9.429  19.274  0.00  0.00    +0.000 N 
ATOM      4  H   UNL     1       0.461   8.972  20.105  0.00  0.00    +0.000 HD
ENDROOT
BRANCH   1   8
ATOM      5  C   UNL     1       2.951   4.810  19.582  0.00  0.00    +0.000 A 
ATOM      6  C   UNL     1       2.152   5.587  20.422  0.00  0.00    +0.000 A 
ATOM      7  C   UNL     1       1.789   6.878  20.019  0.00  0.00    +0.000 A 
ATOM      8  C   UNL     1       2.214   7.397  18.784  0.00  0.00    +0.000 A 
ATOM      9  C   UNL     1       3.032   6.612  17.961  0.00  0.00    +0.000 A 
ATOM     10  C   UNL     1       3.415   5.330  18.368  0.00  0.00    +0.000 A 
BRANCH   5  11
ATOM     11  S   UNL     1       3.438   3.168  20.091  0.00  0.00    +0.000 S 
ATOM     12  O   UNL     1       2.966   2.982  21.442  0.00  0.00    +0.000 OA
ATOM     13  O   UNL     1       4.837   3.004  19.749  0.00  0.00    +0.000 OA
BRANCH  11  15
ATOM     14  C   UNL     1       1.112   2.604  18.846  0.00  0.00    +0.000 C 
ATOM     15  N   UNL     1       2.516   2.174  19.048  0.00  0.00    +0.000 NA
ATOM     16  C   UNL     1       3.182   1.917  17.746  0.00  0.00    +0.000 C 
ENDBRANCH  11  15
ENDBRANCH   5  11
ENDBRANCH   1   8
BRANCH   3  17
ATOM     17  C   UNL     1       0.299  10.712  19.021  0.00  0.00    +0.000 A 
ATOM     18  C   UNL     1       0.832  11.915  19.426  0.00  0.00    +0.000 A 
ATOM     19  C   UNL     1       0.014  12.898  18.847  0.00  0.00    +0.000 A 
ATOM     20  N   UNL     1      -0.973  12.372  18.123  0.00  0.00    +0.000 NA
ATOM     21  N   UNL     1      -0.850  11.044  18.318  0.00  0.00    +0.000 N 
BRANCH  21  22
ATOM     22  C   UNL     1      -2.002  10.176  18.061  0.00  0.00    +0.000 C 
ATOM     23  C   UNL     1      -3.322  10.833  18.507  0.00  0.00    +0.000 C 
ATOM     24  C   UNL     1      -3.929  11.790  17.481  0.00  0.00    +0.000 C 
ATOM     25  C   UNL     1      -4.060  11.147  16.107  0.00  0.00    +0.000 C 
ATOM     26  C   UNL     1      -2.743  10.559  15.613  0.00  0.00    +0.000 C 
ATOM     27  C   UNL     1      -2.084   9.625  16.629  0.00  0.00    +0.000 C 
ENDBRANCH  21  22
ENDBRANCH   3  17
TORSDOF 5
ENDMDL
MODEL 7
REMARK VINA RESULT:      -7.6      2.007      3.243
REMARK  Name = 
REMARK  7 active torsions:
REMARK  status: ('A' for Active; 'I' for Inactive)
REMARK    1  A    between atoms: C_1  and  N_2
REMARK    2  A    between atoms: N_2  and  C_3
REMARK    3  A    between atoms: N_2  and  S_4
REMARK    4  A    between atoms: S_4  and  C_7
REMARK    5  A    between atoms: C_10  and  C_11
REMARK    6  A    between atoms: N_13  and  C_14
REMARK    7  A    between atoms: N_18  and  C_19
REMARK                            x       y       z     vdW  Elec       q    Type
REMARK                         _______ _______ _______ _____ _____    ______ ____
ROOT
ATOM      1  C   UNL     1       1.696   9.367  18.200  0.00  0.00    +0.000 C 
ATOM      2  O   UNL     1       2.147  10.460  17.913  0.00  0.00    +0.000 OA
ATOM      3  N   UNL     1       0.333   9.235  18.676  0.00  0.00    +0.000 N 
ATOM      4  H   UNL     1      -0.013   8.343  18.977  0.00  0.00    +0.000 HD
ENDROOT
BRANCH   1   8
ATOM      5  C   UNL     1       4.036   5.762  18.120  0.00  0.00    +0.000 A 
ATOM      6  C   UNL     1       3.062   5.954  19.100  0.00  0.00    +0.000 A 
ATOM      7  C   UNL     1       2.324   7.143  19.107  0.00  0.00    +0.000 A 
ATOM      8  C   UNL     1       2.547   8.140  18.141  0.00  0.00    +0.000 A 
ATOM      9  C   UNL     1       3.542   7.940  17.174  0.00  0.00    +0.000 A 
ATOM     10  C   UNL     1       4.296   6.763  17.176  0.00  0.00    +0.000 A 
BRANCH   5  11
ATOM     11  S   UNL     1       4.999   4.256  18.109  0.00  0.00    +0.000 S 
ATOM     12  O   UNL     1       4.159   3.216  17.567  0.00  0.00    +0.000 OA
ATOM     13  O   UNL     1       5.618   4.127  19.413  0.00  0.00    +0.000 OA
BRANCH  11  15
ATOM     14  C   UNL     1       7.610   4.562  17.500  0.00  0.00    +0.000 C 
ATOM     15  N   UNL     1       6.226   4.616  16.972  0.00  0.00    +0.000 NA
ATOM     16  C   UNL     1       6.109   3.830  15.718  0.00  0.00    +0.000 C 
ENDBRANCH  11  15
ENDBRANCH   5  11
ENDBRANCH   1   8
BRANCH   3  17
ATOM     17  C   UNL     1      -0.546  10.317  18.770  0.00  0.00    +0.000 A 
ATOM     18  C   UNL     1      -1.373  10.821  17.790  0.00  0.00    +0.000 A 
ATOM     19  C   UNL     1      -2.103  11.846  18.411  0.00  0.00    +0.000 A 
ATOM     20  N   UNL     1      -1.776  11.995  19.694  0.00  0.00    +0.000 NA
ATOM     21  N   UNL     1      -0.759  11.130  19.875  0.00  0.00    +0.000 N 
BRANCH  21  22
ATOM     22  C   UNL     1       0.150  11.325  21.007  0.00  0.00    +0.000 C 
ATOM     23  C   UNL     1      -0.583  11.894  22.236  0.00  0.00    +0.000 C 
ATOM     24  C   UNL     1      -1.282  10.842  23.096  0.00  0.00    +0.000 C 
ATOM     25  C   UNL     1      -0.348   9.703  23.479  0.00  0.00    +0.000 C 
ATOM     26  C   UNL     1       0.329   9.074  22.266  0.00  0.00    +0.000 C 
ATOM     27  C   UNL     1       1.009  10.101  21.360  0.00  0.00    +0.000 C 
ENDBRANCH  21  22
ENDBRANCH   3  17
TORSDOF 5
ENDMDL
MODEL 8
REMARK VINA RESULT:      -7.6      1.338      1.936
REMARK  Name = 
REMARK  7 active torsions:
REMARK  status: ('A' for Active; 'I' for Inactive)
REMARK    1  A    between atoms: C_1  and  N_2
REMARK    2  A    between atoms: N_2  and  C_3
REMARK    3  A    between atoms: N_2  and  S_4
REMARK    4  A    between atoms: S_4  and  C_7
REMARK    5  A    between atoms: C_10  and  C_11
REMARK    6  A    between atoms: N_13  and  C_14
REMARK    7  A    between atoms: N_18  and  C_19
REMARK                            x       y       z     vdW  Elec       q    Type
REMARK                         _______ _______ _______ _____ _____    ______ ____
ROOT
ATOM      1  C   UNL     1       1.339   9.010  19.537  0.00  0.00    +0.000 C 
ATOM      2  O   UNL     1       0.828   9.236  20.618  0.00  0.00    +0.000 OA
ATOM      3  N   UNL     1       1.173   9.939  18.436  0.00  0.00    +0.000 N 
ATOM      4  H   UNL     1       1.537   9.717  17.527  0.00  0.00    +0.000 HD
ENDROOT
BRANCH   1   8
ATOM      5  C   UNL     1       3.589   5.442  18.709  0.00  0.00    +0.000 A 
ATOM      6  C   UNL     1       3.570   6.497  17.796  0.00  0.00    +0.000 A 
ATOM      7  C   UNL     1       2.819   7.641  18.088  0.00  0.00    +0.000 A 
ATOM      8  C   UNL     1       2.091   7.743  19.287  0.00  0.00    +0.000 A 
ATOM      9  C   UNL     1       2.105   6.667  20.185  0.00  0.00    +0.000 A 
ATOM     10  C   UNL     1       2.836   5.513  19.887  0.00  0.00    +0.000 A 
BRANCH   5  11
ATOM     11  S   UNL     1       4.528   3.967  18.340  0.00  0.00    +0.000 S 
ATOM     12  O   UNL     1       5.509   3.813  19.388  0.00  0.00    +0.000 OA
ATOM     13  O   UNL     1       4.915   4.035  16.945  0.00  0.00    +0.000 OA
BRANCH  11  15
ATOM     14  C   UNL     1       2.267   2.760  17.498  0.00  0.00    +0.000 C 
ATOM     15  N   UNL     1       3.353   2.734  18.506  0.00  0.00    +0.000 NA
ATOM     16  C   UNL     1       3.942   1.376  18.615  0.00  0.00    +0.000 C 
ENDBRANCH  11  15
ENDBRANCH   5  11
ENDBRANCH   1   8
BRANCH   3  17
ATOM     17  C   UNL     1       0.490  11.151  18.562  0.00  0.00    +0.000 A 
ATOM     18  C   UNL     1       0.974  12.347  19.044  0.00  0.00    +0.000 A 
ATOM     19  C   UNL     1      -0.077  13.265  18.884  0.00  0.00    +0.000 A 
ATOM     20  N   UNL     1      -1.158  12.706  18.341  0.00  0.00    +0.000 NA
ATOM     21  N   UNL     1      -0.838  11.401  18.244  0.00  0.00    +0.000 N 
BRANCH  21  22
ATOM     22  C   UNL     1      -1.911  10.411  18.121  0.00  0.00    +0.000 C 
ATOM     23  C   UNL     1      -3.277  10.999  18.520  0.00  0.00    +0.000 C 
ATOM     24  C   UNL     1      -3.984  11.768  17.404  0.00  0.00    +0.000 C 
ATOM     25  C   UNL     1      -4.077  10.956  16.120  0.00  0.00    +0.000 C 
ATOM     26  C   UNL     1      -2.720  10.430  15.665  0.00  0.00    +0.000 C 
ATOM     27  C   UNL     1      -1.965   9.686  16.767  0.00  0.00    +0.000 C 
ENDBRANCH  21  22
ENDBRANCH   3  17
TORSDOF 5
ENDMDL
MODEL 9
REMARK VINA RESULT:      -7.5      1.228      1.720
REMARK  Name = 
REMARK  7 active torsions:
REMARK  status: ('A' for Active; 'I' for Inactive)
REMARK    1  A    between atoms: C_1  and  N_2
REMARK    2  A    between atoms: N_2  and  C_3
REMARK    3  A    between atoms: N_2  and  S_4
REMARK    4  A    between atoms: S_4  and  C_7
REMARK    5  A    between atoms: C_10  and  C_11
REMARK    6  A    between atoms: N_13  and  C_14
REMARK    7  A    between atoms: N_18  and  C_19
REMARK                            x       y       z     vdW  Elec       q    Type
REMARK                         _______ _______ _______ _____ _____    ______ ____
ROOT
ATOM      1  C   UNL     1       1.633   9.301  18.381  0.00  0.00    +0.000 C 
ATOM      2  O   UNL     1       1.931  10.029  17.452  0.00  0.00    +0.000 OA
ATOM      3  N   UNL     1       0.651   9.723  19.361  0.00  0.00    +0.000 N 
ATOM      4  H   UNL     1       0.459   9.151  20.163  0.00  0.00    +0.000 HD
ENDROOT
BRANCH   1   8
ATOM      5  C   UNL     1       3.716   5.572  18.866  0.00  0.00    +0.000 A 
ATOM      6  C   UNL     1       4.024   6.425  17.806  0.00  0.00    +0.000 A 
ATOM      7  C   UNL     1       3.321   7.627  17.668  0.00  0.00    +0.000 A 
ATOM      8  C   UNL     1       2.316   7.987  18.582  0.00  0.00    +0.000 A 
ATOM      9  C   UNL     1       2.005   7.111  19.631  0.00  0.00    +0.000 A 
ATOM     10  C   UNL     1       2.690   5.899  19.761  0.00  0.00    +0.000 A 
BRANCH   5  11
ATOM     11  S   UNL     1       4.592   4.025  19.045  0.00  0.00    +0.000 S 
ATOM     12  O   UNL     1       3.957   3.296  20.117  0.00  0.00    +0.000 OA
ATOM     13  O   UNL     1       6.009   4.329  19.071  0.00  0.00    +0.000 OA
BRANCH  11  15
ATOM     14  C   UNL     1       2.810   3.195  17.197  0.00  0.00    +0.000 C 
ATOM     15  N   UNL     1       4.245   3.235  17.568  0.00  0.00    +0.000 NA
ATOM     16  C   UNL     1       5.069   3.726  16.435  0.00  0.00    +0.000 C 
ENDBRANCH  11  15
ENDBRANCH   5  11
ENDBRANCH   1   8
BRANCH   3  17
ATOM     17  C   UNL     1      -0.044  10.932  19.267  0.00  0.00    +0.000 A 
ATOM     18  C   UNL     1       0.256  12.127  19.882  0.00  0.00    +0.000 A 
ATOM     19  C   UNL     1      -0.695  13.041  19.400  0.00  0.00    +0.000 A 
ATOM     20  N   UNL     1      -1.544  12.481  18.539  0.00  0.00    +0.000 NA
ATOM     21  N   UNL     1      -1.202  11.178  18.544  0.00  0.00    +0.000 N 
BRANCH  21  22
ATOM     22  C   UNL     1      -2.175  10.184  18.082  0.00  0.00    +0.000 C 
ATOM     23  C   UNL     1      -3.623  10.635  18.352  0.00  0.00    +0.000 C 
ATOM     24  C   UNL     1      -4.203  11.564  17.285  0.00  0.00    +0.000 C 
ATOM     25  C   UNL     1      -4.046  10.993  15.883  0.00  0.00    +0.000 C 
ATOM     26  C   UNL     1      -2.603  10.613  15.569  0.00  0.00    +0.000 C 
ATOM     27  C   UNL     1      -1.975   9.713  16.633  0.00  0.00    +0.000 C 
ENDBRANCH  21  22
ENDBRANCH   3  17
TORSDOF 5
ENDMDL
