MODEL 1
REMARK VINA RESULT:      -8.2      0.000      0.000
REMARK  Name = 
REMARK  6 active torsions:
REMARK  status: ('A' for Active; 'I' for Inactive)
REMARK    1  A    between atoms: C_1  and  C_2
REMARK    2  A    between atoms: C_5  and  N_6
REMARK    3  A    between atoms: C_7  and  C_9
REMARK    4  A    between atoms: C_11  and  N_12
REMARK    5  A    between atoms: C_17  and  N_18
REMARK    6  A    between atoms: C_25  and  C_26
REMARK                            x       y       z     vdW  Elec       q    Type
REMARK                         _______ _______ _______ _____ _____    ______ ____
ROOT
ATOM      1  C   UNL     1       3.855   6.061  18.278  0.00  0.00    +0.000 A 
ATOM      2  C   UNL     1       4.939   6.588  17.546  0.00  0.00    +0.000 A 
ATOM      3  C   UNL     1       6.100   5.833  17.369  0.00  0.00    +0.000 A 
ATOM      4  C   UNL     1       6.194   4.550  17.904  0.00  0.00    +0.000 A 
ATOM      5  C   UNL     1       5.118   4.029  18.630  0.00  0.00    +0.000 A 
ATOM      6  C   UNL     1       3.926   4.755  18.847  0.00  0.00    +0.000 A 
ENDROOT
BRANCH   6   7
ATOM      7  N   UNL     1       2.895   4.164  19.558  0.00  0.00    +0.000 N 
ATOM      8  C   UNL     1       2.486   4.615  20.900  0.00  0.00    +0.000 C 
ATOM      9  C   UNL     1       2.040   3.400  21.737  0.00  0.00    +0.000 C 
ATOM     10  O   UNL     1       1.015   2.637  21.076  0.00  0.00    +0.000 OA
ATOM     11  C   UNL     1       1.500   2.162  19.804  0.00  0.00    +0.000 C 
ATOM     12  C   UNL     1       1.870   3.342  18.891  0.00  0.00    +0.000 C 
ENDBRANCH   6   7
BRANCH   1  14
ATOM     13  N   UNL     1       2.578   8.015  19.032  0.00  0.00    +0.000 N 
ATOM     14  C   UNL     1       2.583   6.858  18.260  0.00  0.00    +0.000 C 
ATOM     15  O   UNL     1       1.664   6.469  17.552  0.00  0.00    +0.000 OA
ATOM     16  H   UNL     1       3.417   8.259  19.539  0.00  0.00    +0.000 HD
BRANCH  13  21
ATOM     17  C   UNL     1      -1.856  11.601  19.794  0.00  0.00    +0.000 C 
ATOM     18  C   UNL     1      -0.692  10.667  19.617  0.00  0.00    +0.000 A 
ATOM     19  C   UNL     1      -0.210  10.418  18.326  0.00  0.00    +0.000 A 
ATOM     20  C   UNL     1       0.868   9.556  18.114  0.00  0.00    +0.000 A 
ATOM     21  C   UNL     1       1.497   8.920  19.185  0.00  0.00    +0.000 A 
ATOM     22  C   UNL     1       1.020   9.169  20.479  0.00  0.00    +0.000 A 
ATOM     23  C   UNL     1      -0.075  10.030  20.709  0.00  0.00    +0.000 A 
ATOM     24  C   UNL     1      -0.571  10.248  22.113  0.00  0.00    +0.000 C 
ENDBRANCH  13  21
ENDBRANCH   1  14
BRANCH   3  25
ATOM     25  N   UNL     1       7.216   6.390  16.591  0.00  0.00    +0.000 N 
ATOM     26  O   UNL     1       7.610   5.739  15.615  0.00  0.00    +0.000 OA
ATOM     27  O   UNL     1       7.683   7.474  16.956  0.00  0.00    +0.000 OA
ENDBRANCH   3  25
TORSDOF 4
ENDMDL
MODEL 2
REMARK VINA RESULT:      -8.1      0.713      1.181
REMARK  Name = 
REMARK  6 active torsions:
REMARK  status: ('A' for Active; 'I' for Inactive)
REMARK    1  A    between atoms: C_1  and  C_2
REMARK    2  A    between atoms: C_5  and  N_6
REMARK    3  A    between atoms: C_7  and  C_9
REMARK    4  A    between atoms: C_11  and  N_12
REMARK    5  A    between atoms: C_17  and  N_18
REMARK    6  A    between atoms: C_25  and  C_26
REMARK                            x       y       z     vdW  Elec       q    Type
REMARK                         _______ _______ _______ _____ _____    ______ ____
ROOT
ATOM      1  C   UNL     1       3.931   5.577  17.982  0.00  0.00    +0.000 A 
ATOM      2  C   UNL     1       4.980   6.193  17.269  0.00  0.00    +0.000 A 
ATOM      3  C   UNL     1       6.116   5.459  16.918  0.00  0.00    +0.000 A 
ATOM      4  C   UNL     1       6.217   4.112  17.260  0.00  0.00    +0.000 A 
ATOM      5  C   UNL     1       5.174   3.503  17.967  0.00  0.00    +0.000 A 
ATOM      6  C   UNL     1       4.010   4.203  18.354  0.00  0.00    +0.000 A 
ENDROOT
BRANCH   6   7
ATOM      7  N   UNL     1       3.011   3.527  19.034  0.00  0.00    +0.000 N 
ATOM      8  C   UNL     1       2.203   2.460  18.419  0.00  0.00    +0.000 C 
ATOM      9  C   UNL     1       0.766   2.519  18.973  0.00  0.00    +0.000 C 
ATOM     10  O   UNL     1       0.739   2.470  20.410  0.00  0.00    +0.000 OA
ATOM     11  C   UNL     1       1.483   3.579  20.953  0.00  0.00    +0.000 C 
ATOM     12  C   UNL     1       2.953   3.515  20.507  0.00  0.00    +0.000 C 
ENDBRANCH   6   7
BRANCH   1  14
ATOM     13  N   UNL     1       2.828   7.638  18.725  0.00  0.00    +0.000 N 
ATOM     14  C   UNL     1       2.674   6.381  18.152  0.00  0.00    +0.000 C 
ATOM     15  O   UNL     1       1.621   5.906  17.747  0.00  0.00    +0.000 OA
ATOM     16  H   UNL     1       3.758   7.942  18.978  0.00  0.00    +0.000 HD
BRANCH  13  21
ATOM     17  C   UNL     1      -1.419  11.320  19.956  0.00  0.00    +0.000 C 
ATOM     18  C   UNL     1      -0.304  10.357  19.657  0.00  0.00    +0.000 A 
ATOM     19  C   UNL     1       0.205  10.290  18.355  0.00  0.00    +0.000 A 
ATOM     20  C   UNL     1       1.239   9.408  18.030  0.00  0.00    +0.000 A 
ATOM     21  C   UNL     1       1.795   8.572  18.999  0.00  0.00    +0.000 A 
ATOM     22  C   UNL     1       1.291   8.638  20.304  0.00  0.00    +0.000 A 
ATOM     23  C   UNL     1       0.240   9.516  20.645  0.00  0.00    +0.000 A 
ATOM     24  C   UNL     1      -0.289   9.536  22.055  0.00  0.00    +0.000 C 
ENDBRANCH  13  21
ENDBRANCH   1  14
BRANCH   3  25
ATOM     25  N   UNL     1       7.195   6.110  16.163  0.00  0.00    +0.000 N 
ATOM     26  O   UNL     1       7.508   5.613  15.073  0.00  0.00    +0.000 OA
ATOM     27  O   UNL     1       7.717   7.115  16.660  0.00  0.00    +0.000 OA
ENDBRANCH   3  25
TORSDOF 4
ENDMDL
MODEL 3
REMARK VINA RESULT:      -8.0      1.253      1.605
REMARK  Name = 
REMARK  6 active torsions:
REMARK  status: ('A' for Active; 'I' for Inactive)
REMARK    1  A    between atoms: C_1  and  C_2
REMARK    2  A    between atoms: C_5  and  N_6
REMARK    3  A    between atoms: C_7  and  C_9
REMARK    4  A    between atoms: C_11  and  N_12
REMARK    5  A    between atoms: C_17  and  N_18
REMARK    6  A    between atoms: C_25  and  C_26
REMARK                            x       y       z     vdW  Elec       q    Type
REMARK                         _______ _______ _______ _____ _____    ______ ____
ROOT
ATOM      1  C   UNL     1       4.068   5.363  18.260  0.00  0.00    +0.000 A 
ATOM      2  C   UNL     1       4.995   5.896  17.341  0.00  0.00    +0.000 A 
ATOM      3  C   UNL     1       5.681   5.051  16.466  0.00  0.00    +0.000 A 
ATOM      4  C   UNL     1       5.448   3.677  16.486  0.00  0.00    +0.000 A 
ATOM      5  C   UNL     1       4.527   3.151  17.398  0.00  0.00    +0.000 A 
ATOM      6  C   UNL     1       3.815   3.961  18.311  0.00  0.00    +0.000 A 
ENDROOT
BRANCH   6   7
ATOM      7  N   UNL     1       2.904   3.370  19.171  0.00  0.00    +0.000 N 
ATOM      8  C   UNL     1       1.508   3.095  18.792  0.00  0.00    +0.000 C 
ATOM      9  C   UNL     1       0.595   3.286  20.020  0.00  0.00    +0.000 C 
ATOM     10  O   UNL     1       1.028   2.495  21.141  0.00  0.00    +0.000 OA
ATOM     11  C   UNL     1       2.372   2.861  21.511  0.00  0.00    +0.000 C 
ATOM     12  C   UNL     1       3.343   2.599  20.348  0.00  0.00    +0.000 C 
ENDBRANCH   6   7
BRANCH   1  14
ATOM     13  N   UNL     1       2.683   7.388  18.286  0.00  0.00    +0.000 N 
ATOM     14  C   UNL     1       3.241   6.354  19.029  0.00  0.00    +0.000 C 
ATOM     15  O   UNL     1       3.082   6.170  20.228  0.00  0.00    +0.000 OA
ATOM     16  H   UNL     1       2.847   7.408  17.289  0.00  0.00    +0.000 HD
BRANCH  13  21
ATOM     17  C   UNL     1      -0.651  11.565  20.416  0.00  0.00    +0.000 C 
ATOM     18  C   UNL     1       0.226  10.467  19.881  0.00  0.00    +0.000 A 
ATOM     19  C   UNL     1       0.654  10.528  18.550  0.00  0.00    +0.000 A 
ATOM     20  C   UNL     1       1.468   9.529  18.009  0.00  0.00    +0.000 A 
ATOM     21  C   UNL     1       1.879   8.445  18.784  0.00  0.00    +0.000 A 
ATOM     22  C   UNL     1       1.456   8.382  20.118  0.00  0.00    +0.000 A 
ATOM     23  C   UNL     1       0.626   9.378  20.677  0.00  0.00    +0.000 A 
ATOM     24  C   UNL     1       0.173   9.257  22.107  0.00  0.00    +0.000 C 
ENDBRANCH  13  21
ENDBRANCH   1  14
BRANCH   3  25
ATOM     25  N   UNL     1       6.634   5.622  15.504  0.00  0.00    +0.000 N 
ATOM     26  O   UNL     1       7.571   6.290  15.959  0.00  0.00    +0.000 OA
ATOM     27  O   UNL     1       6.443   5.393  14.304  0.00  0.00    +0.000 OA
ENDBRANCH   3  25
TORSDOF 4
ENDMDL
MODEL 4
REMARK VINA RESULT:      -7.9      0.782      1.590
REMARK  Name = 
REMARK  6 active torsions:
REMARK  status: ('A' for Active; 'I' for Inactive)
REMARK    1  A    between atoms: C_1  and  C_2
REMARK    2  A    between atoms: C_5  and  N_6
REMARK    3  A    between atoms: C_7  and  C_9
REMARK    4  A    between atoms: C_11  and  N_12
REMARK    5  A    between atoms: C_17  and  N_18
REMARK    6  A    between atoms: C_25  and  C_26
REMARK                            x       y       z     vdW  Elec       q    Type
REMARK                         _______ _______ _______ _____ _____    ______ ____
ROOT
ATOM      1  C   UNL     1       3.819   6.136  18.355  0.00  0.00    +0.000 A 
ATOM      2  C   UNL     1       4.927   6.611  17.624  0.00  0.00    +0.000 A 
ATOM      3  C   UNL     1       5.931   5.728  17.218  0.00  0.00    +0.000 A 
ATOM      4  C   UNL     1       5.841   4.371  17.522  0.00  0.00    +0.000 A 
ATOM      5  C   UNL     1       4.740   3.902  18.247  0.00  0.00    +0.000 A 
ATOM      6  C   UNL     1       3.704   4.754  18.690  0.00  0.00    +0.000 A 
ENDROOT
BRANCH   6   7
ATOM      7  N   UNL     1       2.635   4.214  19.385  0.00  0.00    +0.000 N 
ATOM      8  C   UNL     1       2.482   4.341  20.845  0.00  0.00    +0.000 C 
ATOM      9  C   UNL     1       1.838   3.059  21.408  0.00  0.00    +0.000 C 
ATOM     10  O   UNL     1       0.598   2.744  20.750  0.00  0.00    +0.000 OA
ATOM     11  C   UNL     1       0.826   2.558  19.338  0.00  0.00    +0.000 C 
ATOM     12  C   UNL     1       1.381   3.844  18.706  0.00  0.00    +0.000 C 
ENDBRANCH   6   7
BRANCH   1  14
ATOM     13  N   UNL     1       2.553   7.569  19.891  0.00  0.00    +0.000 N 
ATOM     14  C   UNL     1       2.701   7.111  18.587  0.00  0.00    +0.000 C 
ATOM     15  O   UNL     1       2.031   7.465  17.626  0.00  0.00    +0.000 OA
ATOM     16  H   UNL     1       3.200   7.240  20.594  0.00  0.00    +0.000 HD
BRANCH  13  21
ATOM     17  C   UNL     1      -1.370  11.379  21.682  0.00  0.00    +0.000 C 
ATOM     18  C   UNL     1      -0.350  10.389  21.192  0.00  0.00    +0.000 A 
ATOM     19  C   UNL     1       0.081   9.373  22.054  0.00  0.00    +0.000 A 
ATOM     20  C   UNL     1       1.028   8.432  21.643  0.00  0.00    +0.000 A 
ATOM     21  C   UNL     1       1.570   8.479  20.358  0.00  0.00    +0.000 A 
ATOM     22  C   UNL     1       1.139   9.491  19.491  0.00  0.00    +0.000 A 
ATOM     23  C   UNL     1       0.190  10.455  19.895  0.00  0.00    +0.000 A 
ATOM     24  C   UNL     1      -0.224  11.541  18.939  0.00  0.00    +0.000 C 
ENDBRANCH  13  21
ENDBRANCH   1  14
BRANCH   3  25
ATOM     25  N   UNL     1       7.073   6.235  16.444  0.00  0.00    +0.000 N 
ATOM     26  O   UNL     1       7.579   7.303  16.810  0.00  0.00    +0.000 OA
ATOM     27  O   UNL     1       7.458   5.559  15.483  0.00  0.00    +0.000 OA
ENDBRANCH   3  25
TORSDOF 4
ENDMDL
MODEL 5
REMARK VINA RESULT:      -7.8      1.929      2.768
REMARK  Name = 
REMARK  6 active torsions:
REMARK  status: ('A' for Active; 'I' for Inactive)
REMARK    1  A    between atoms: C_1  and  C_2
REMARK    2  A    between atoms: C_5  and  N_6
REMARK    3  A    between atoms: C_7  and  C_9
REMARK    4  A    between atoms: C_11  and  N_12
REMARK    5  A    between atoms: C_17  and  N_18
REMARK    6  A    between atoms: C_25  and  C_26
REMARK                            x       y       z     vdW  Elec       q    Type
REMARK                         _______ _______ _______ _____ _____    ______ ____
ROOT
ATOM      1  C   UNL     1       5.267   5.489  16.533  0.00  0.00    +0.000 A 
ATOM      2  C   UNL     1       6.170   5.784  15.491  0.00  0.00    +0.000 A 
ATOM      3  C   UNL     1       6.588   4.777  14.619  0.00  0.00    +0.000 A 
ATOM      4  C   UNL     1       6.111   3.476  14.764  0.00  0.00    +0.000 A 
ATOM      5  C   UNL     1       5.215   3.186  15.799  0.00  0.00    +0.000 A 
ATOM      6  C   UNL     1       4.769   4.165  16.714  0.00  0.00    +0.000 A 
ENDROOT
BRANCH   6   7
ATOM      7  N   UNL     1       3.866   3.806  17.700  0.00  0.00    +0.000 N 
ATOM      8  C   UNL     1       2.528   3.265  17.403  0.00  0.00    +0.000 C 
ATOM      9  C   UNL     1       1.525   3.762  18.463  0.00  0.00    +0.000 C 
ATOM     10  O   UNL     1       1.958   3.456  19.800  0.00  0.00    +0.000 OA
ATOM     11  C   UNL     1       3.235   4.074  20.056  0.00  0.00    +0.000 C 
ATOM     12  C   UNL     1       4.299   3.539  19.083  0.00  0.00    +0.000 C 
ENDBRANCH   6   7
BRANCH   1  14
ATOM     13  N   UNL     1       3.344   6.703  17.454  0.00  0.00    +0.000 N 
ATOM     14  C   UNL     1       4.726   6.659  17.303  0.00  0.00    +0.000 C 
ATOM     15  O   UNL     1       5.521   7.463  17.773  0.00  0.00    +0.000 OA
ATOM     16  H   UNL     1       2.793   5.954  17.059  0.00  0.00    +0.000 HD
BRANCH  13  21
ATOM     17  C   UNL     1       0.258  10.658  20.271  0.00  0.00    +0.000 C 
ATOM     18  C   UNL     1       1.071   9.615  19.555  0.00  0.00    +0.000 A 
ATOM     19  C   UNL     1       1.434   9.835  18.221  0.00  0.00    +0.000 A 
ATOM     20  C   UNL     1       2.188   8.893  17.515  0.00  0.00    +0.000 A 
ATOM     21  C   UNL     1       2.601   7.708  18.124  0.00  0.00    +0.000 A 
ATOM     22  C   UNL     1       2.243   7.486  19.460  0.00  0.00    +0.000 A 
ATOM     23  C   UNL     1       1.474   8.423  20.183  0.00  0.00    +0.000 A 
ATOM     24  C   UNL     1       1.089   8.131  21.609  0.00  0.00    +0.000 C 
ENDBRANCH  13  21
ENDBRANCH   1  14
BRANCH   3  25
ATOM     25  N   UNL     1       7.518   5.102  13.528  0.00  0.00    +0.000 N 
ATOM     26  O   UNL     1       8.492   5.814  13.804  0.00  0.00    +0.000 OA
ATOM     27  O   UNL     1       7.272   4.640  12.409  0.00  0.00    +0.000 OA
ENDBRANCH   3  25
TORSDOF 4
ENDMDL
MODEL 6
REMARK VINA RESULT:      -7.8      1.642      2.081
REMARK  Name = 
REMARK  6 active torsions:
REMARK  status: ('A' for Active; 'I' for Inactive)
REMARK    1  A    between atoms: C_1  and  C_2
REMARK    2  A    between atoms: C_5  and  N_6
REMARK    3  A    between atoms: C_7  and  C_9
REMARK    4  A    between atoms: C_11  and  N_12
REMARK    5  A    between atoms: C_17  and  N_18
REMARK    6  A    between atoms: C_25  and  C_26
REMARK                            x       y       z     vdW  Elec       q    Type
REMARK                         _______ _______ _______ _____ _____    ______ ____
ROOT
ATOM      1  C   UNL     1       4.542   4.914  17.702  0.00  0.00    +0.000 A 
ATOM      2  C   UNL     1       5.448   5.331  16.706  0.00  0.00    +0.000 A 
ATOM      3  C   UNL     1       5.926   4.416  15.764  0.00  0.00    +0.000 A 
ATOM      4  C   UNL     1       5.504   3.088  15.795  0.00  0.00    +0.000 A 
ATOM      5  C   UNL     1       4.604   2.678  16.785  0.00  0.00    +0.000 A 
ATOM      6  C   UNL     1       4.100   3.560  17.766  0.00  0.00    +0.000 A 
ENDROOT
BRANCH   6   7
ATOM      7  N   UNL     1       3.196   3.084  18.701  0.00  0.00    +0.000 N 
ATOM      8  C   UNL     1       1.806   2.732  18.365  0.00  0.00    +0.000 C 
ATOM      9  C   UNL     1       0.885   3.084  19.551  0.00  0.00    +0.000 C 
ATOM     10  O   UNL     1       1.328   2.473  20.777  0.00  0.00    +0.000 OA
ATOM     11  C   UNL     1       2.664   2.914  21.090  0.00  0.00    +0.000 C 
ATOM     12  C   UNL     1       3.644   2.502  19.979  0.00  0.00    +0.000 C 
ENDBRANCH   6   7
BRANCH   1  14
ATOM     13  N   UNL     1       3.015   6.821  17.920  0.00  0.00    +0.000 N 
ATOM     14  C   UNL     1       3.937   5.994  18.552  0.00  0.00    +0.000 C 
ATOM     15  O   UNL     1       4.257   6.053  19.732  0.00  0.00    +0.000 OA
ATOM     16  H   UNL     1       2.795   6.645  16.950  0.00  0.00    +0.000 HD
BRANCH  13  21
ATOM     17  C   UNL     1       0.118  11.137  20.388  0.00  0.00    +0.000 C 
ATOM     18  C   UNL     1       0.880  10.000  19.764  0.00  0.00    +0.000 A 
ATOM     19  C   UNL     1       1.340  10.132  18.449  0.00  0.00    +0.000 A 
ATOM     20  C   UNL     1       2.050   9.101  17.828  0.00  0.00    +0.000 A 
ATOM     21  C   UNL     1       2.323   7.912  18.505  0.00  0.00    +0.000 A 
ATOM     22  C   UNL     1       1.867   7.778  19.823  0.00  0.00    +0.000 A 
ATOM     23  C   UNL     1       1.140   8.805  20.461  0.00  0.00    +0.000 A 
ATOM     24  C   UNL     1       0.646   8.608  21.869  0.00  0.00    +0.000 C 
ENDBRANCH  13  21
ENDBRANCH   1  14
BRANCH   3  25
ATOM     25  N   UNL     1       6.859   4.868  14.722  0.00  0.00    +0.000 N 
ATOM     26  O   UNL     1       6.722   4.390  13.589  0.00  0.00    +0.000 OA
ATOM     27  O   UNL     1       7.714   5.701  15.042  0.00  0.00    +0.000 OA
ENDBRANCH   3  25
TORSDOF 4
ENDMDL
MODEL 7
REMARK VINA RESULT:      -7.8      0.820      1.701
REMARK  Name = 
REMARK  6 active torsions:
REMARK  status: ('A' for Active; 'I' for Inactive)
REMARK    1  A    between atoms: C_1  and  C_2
REMARK    2  A    between atoms: C_5  and  N_6
REMARK    3  A    between atoms: C_7  and  C_9
REMARK    4  A    between atoms: C_11  and  N_12
REMARK    5  A    between atoms: C_17  and  N_18
REMARK    6  A    between atoms: C_25  and  C_26
REMARK                            x       y       z     vdW  Elec       q    Type
REMARK                         _______ _______ _______ _____ _____    ______ ____
ROOT
ATOM      1  C   UNL     1       3.957   5.742  18.374  0.00  0.00    +0.000 A 
ATOM      2  C   UNL     1       4.983   6.355  17.626  0.00  0.00    +0.000 A 
ATOM      3  C   UNL     1       6.088   5.609  17.208  0.00  0.00    +0.000 A 
ATOM      4  C   UNL     1       6.180   4.254  17.516  0.00  0.00    +0.000 A 
ATOM      5  C   UNL     1       5.161   3.648  18.258  0.00  0.00    +0.000 A 
ATOM      6  C   UNL     1       4.028   4.359  18.714  0.00  0.00    +0.000 A 
ENDROOT
BRANCH   6   7
ATOM      7  N   UNL     1       3.050   3.686  19.426  0.00  0.00    +0.000 N 
ATOM      8  C   UNL     1       1.852   3.108  18.792  0.00  0.00    +0.000 C 
ATOM      9  C   UNL     1       0.652   3.233  19.751  0.00  0.00    +0.000 C 
ATOM     10  O   UNL     1       0.927   2.653  21.038  0.00  0.00    +0.000 OA
ATOM     11  C   UNL     1       2.061   3.309  21.639  0.00  0.00    +0.000 C 
ATOM     12  C   UNL     1       3.314   3.132  20.766  0.00  0.00    +0.000 C 
ENDBRANCH   6   7
BRANCH   1  14
ATOM     13  N   UNL     1       2.769   7.417  19.716  0.00  0.00    +0.000 N 
ATOM     14  C   UNL     1       2.724   6.564  18.619  0.00  0.00    +0.000 C 
ATOM     15  O   UNL     1       1.793   6.462  17.832  0.00  0.00    +0.000 OA
ATOM     16  H   UNL     1       3.615   7.448  20.269  0.00  0.00    +0.000 HD
BRANCH  13  21
ATOM     17  C   UNL     1      -1.369  11.036  21.413  0.00  0.00    +0.000 C 
ATOM     18  C   UNL     1      -0.291  10.097  20.948  0.00  0.00    +0.000 A 
ATOM     19  C   UNL     1       0.100   9.044  21.783  0.00  0.00    +0.000 A 
ATOM     20  C   UNL     1       1.098   8.148  21.394  0.00  0.00    +0.000 A 
ATOM     21  C   UNL     1       1.731   8.277  20.157  0.00  0.00    +0.000 A 
ATOM     22  C   UNL     1       1.341   9.328  19.316  0.00  0.00    +0.000 A 
ATOM     23  C   UNL     1       0.341  10.247  19.700  0.00  0.00    +0.000 A 
ATOM     24  C   UNL     1      -0.029  11.376  18.776  0.00  0.00    +0.000 C 
ENDBRANCH  13  21
ENDBRANCH   1  14
BRANCH   3  25
ATOM     25  N   UNL     1       7.143   6.258  16.416  0.00  0.00    +0.000 N 
ATOM     26  O   UNL     1       7.540   5.667  15.404  0.00  0.00    +0.000 OA
ATOM     27  O   UNL     1       7.560   7.354  16.807  0.00  0.00    +0.000 OA
ENDBRANCH   3  25
TORSDOF 4
ENDMDL
MODEL 8
REMARK VINA RESULT:      -7.6      0.951      1.783
REMARK  Name = 
REMARK  6 active torsions:
REMARK  status: ('A' for Active; 'I' for Inactive)
REMARK    1  A    between atoms: C_1  and  C_2
REMARK    2  A    between atoms: C_5  and  N_6
REMARK    3  A    between atoms: C_7  and  C_9
REMARK    4  A    between atoms: C_11  and  N_12
REMARK    5  A    between atoms: C_17  and  N_18
REMARK    6  A    between atoms: C_25  and  C_26
REMARK                            x       y       z     vdW  Elec       q    Type
REMARK                         _______ _______ _______ _____ _____    ______ ____
ROOT
ATOM      1  C   UNL     1       3.963   5.870  18.699  0.00  0.00    +0.000 A 
ATOM      2  C   UNL     1       4.969   6.567  17.998  0.00  0.00    +0.000 A 
ATOM      3  C   UNL     1       5.960   5.863  17.310  0.00  0.00    +0.000 A 
ATOM      4  C   UNL     1       5.958   4.470  17.300  0.00  0.00    +0.000 A 
ATOM      5  C   UNL     1       4.958   3.781  17.996  0.00  0.00    +0.000 A 
ATOM      6  C   UNL     1       3.940   4.444  18.717  0.00  0.00    +0.000 A 
ENDROOT
BRANCH   6   7
ATOM      7  N   UNL     1       2.972   3.694  19.364  0.00  0.00    +0.000 N 
ATOM      8  C   UNL     1       1.716   3.279  18.717  0.00  0.00    +0.000 C 
ATOM      9  C   UNL     1       0.578   3.280  19.757  0.00  0.00    +0.000 C 
ATOM     10  O   UNL     1       0.897   2.477  20.907  0.00  0.00    +0.000 OA
ATOM     11  C   UNL     1       2.093   2.977  21.539  0.00  0.00    +0.000 C 
ATOM     12  C   UNL     1       3.285   2.909  20.570  0.00  0.00    +0.000 C 
ENDBRANCH   6   7
BRANCH   1  14
ATOM     13  N   UNL     1       2.500   7.831  18.522  0.00  0.00    +0.000 N 
ATOM     14  C   UNL     1       2.837   6.696  19.250  0.00  0.00    +0.000 C 
ATOM     15  O   UNL     1       2.271   6.304  20.263  0.00  0.00    +0.000 OA
ATOM     16  H   UNL     1       3.010   8.027  17.672  0.00  0.00    +0.000 HD
BRANCH  13  21
ATOM     17  C   UNL     1      -1.625  11.676  19.664  0.00  0.00    +0.000 C 
ATOM     18  C   UNL     1      -0.561  10.662  19.349  0.00  0.00    +0.000 A 
ATOM     19  C   UNL     1       0.436  10.406  20.298  0.00  0.00    +0.000 A 
ATOM     20  C   UNL     1       1.446   9.474  20.048  0.00  0.00    +0.000 A 
ATOM     21  C   UNL     1       1.487   8.769  18.845  0.00  0.00    +0.000 A 
ATOM     22  C   UNL     1       0.489   9.020  17.893  0.00  0.00    +0.000 A 
ATOM     23  C   UNL     1      -0.532   9.966  18.127  0.00  0.00    +0.000 A 
ATOM     24  C   UNL     1      -1.569  10.222  17.066  0.00  0.00    +0.000 C 
ENDBRANCH  13  21
ENDBRANCH   1  14
BRANCH   3  25
ATOM     25  N   UNL     1       6.994   6.603  16.572  0.00  0.00    +0.000 N 
ATOM     26  O   UNL     1       7.553   6.018  15.635  0.00  0.00    +0.000 OA
ATOM     27  O   UNL     1       7.234   7.761  16.929  0.00  0.00    +0.000 OA
ENDBRANCH   3  25
TORSDOF 4
ENDMDL
MODEL 9
REMARK VINA RESULT:      -7.6      1.424      1.591
REMARK  Name = 
REMARK  6 active torsions:
REMARK  status: ('A' for Active; 'I' for Inactive)
REMARK    1  A    between atoms: C_1  and  C_2
REMARK    2  A    between atoms: C_5  and  N_6
REMARK    3  A    between atoms: C_7  and  C_9
REMARK    4  A    between atoms: C_11  and  N_12
REMARK    5  A    between atoms: C_17  and  N_18
REMARK    6  A    between atoms: C_25  and  C_26
REMARK                            x       y       z     vdW  Elec       q    Type
REMARK                         _______ _______ _______ _____ _____    ______ ____
ROOT
ATOM      1  C   UNL     1       4.277   5.452  17.915  0.00  0.00    +0.000 A 
ATOM      2  C   UNL     1       5.419   6.073  17.369  0.00  0.00    +0.000 A 
ATOM      3  C   UNL     1       6.209   5.394  16.438  0.00  0.00    +0.000 A 
ATOM      4  C   UNL     1       5.871   4.104  16.034  0.00  0.00    +0.000 A 
ATOM      5  C   UNL     1       4.737   3.491  16.578  0.00  0.00    +0.000 A 
ATOM      6  C   UNL     1       3.911   4.129  17.530  0.00  0.00    +0.000 A 
ENDROOT
BRANCH   6   7
ATOM      7  N   UNL     1       2.793   3.466  18.007  0.00  0.00    +0.000 N 
ATOM      8  C   UNL     1       1.420   3.959  17.802  0.00  0.00    +0.000 C 
ATOM      9  C   UNL     1       0.562   3.620  19.037  0.00  0.00    +0.000 C 
ATOM     10  O   UNL     1       0.602   2.216  19.353  0.00  0.00    +0.000 OA
ATOM     11  C   UNL     1       1.960   1.811  19.615  0.00  0.00    +0.000 C 
ATOM     12  C   UNL     1       2.842   2.040  18.376  0.00  0.00    +0.000 C 
ENDBRANCH   6   7
BRANCH   1  14
ATOM     13  N   UNL     1       2.780   7.386  18.109  0.00  0.00    +0.000 N 
ATOM     14  C   UNL     1       3.384   6.316  18.759  0.00  0.00    +0.000 C 
ATOM     15  O   UNL     1       3.217   6.007  19.932  0.00  0.00    +0.000 OA
ATOM     16  H   UNL     1       2.958   7.513  17.122  0.00  0.00    +0.000 HD
BRANCH  13  21
ATOM     17  C   UNL     1      -0.794  11.153  20.587  0.00  0.00    +0.000 C 
ATOM     18  C   UNL     1       0.149  10.164  19.960  0.00  0.00    +0.000 A 
ATOM     19  C   UNL     1       0.413  10.251  18.589  0.00  0.00    +0.000 A 
ATOM     20  C   UNL     1       1.280   9.353  17.963  0.00  0.00    +0.000 A 
ATOM     21  C   UNL     1       1.911   8.343  18.691  0.00  0.00    +0.000 A 
ATOM     22  C   UNL     1       1.652   8.254  20.065  0.00  0.00    +0.000 A 
ATOM     23  C   UNL     1       0.771   9.148  20.710  0.00  0.00    +0.000 A 
ATOM     24  C   UNL     1       0.501   8.999  22.184  0.00  0.00    +0.000 C 
ENDBRANCH  13  21
ENDBRANCH   1  14
BRANCH   3  25
ATOM     25  N   UNL     1       7.389   6.059  15.866  0.00  0.00    +0.000 N 
ATOM     26  O   UNL     1       7.822   5.625  14.792  0.00  0.00    +0.000 OA
ATOM     27  O   UNL     1       7.868   7.012  16.491  0.00  0.00    +0.000 OA
ENDBRANCH   3  25
TORSDOF 4
ENDMDL
