MODEL 1
REMARK VINA RESULT:      -8.8      0.000      0.000
REMARK  Name = 
REMARK  9 active torsions:
REMARK  status: ('A' for Active; 'I' for Inactive)
REMARK    1  A    between atoms: C_1  and  C_2
REMARK    2  A    between atoms: N_5  and  C_6
REMARK    3  A    between atoms: C_7  and  N_8
REMARK    4  A    between atoms: N_8  and  C_9
REMARK    5  A    between atoms: C_9  and  C_10
REMARK    6  A    between atoms: C_13  and  C_14
REMARK    7  A    between atoms: N_16  and  C_17
REMARK    8  A    between atoms: C_17  and  C_18
REMARK    9  A    between atoms: C_18  and  C_19
REMARK                            x       y       z     vdW  Elec       q    Type
REMARK                         _______ _______ _______ _____ _____    ______ ____
ROOT
ATOM      1  C   UNL     1       2.429   6.331  20.588  0.00  0.00    +0.000 C 
ATOM      2  C   UNL     1       2.262   4.805  20.710  0.00  0.00    +0.000 C 
ATOM      3  C   UNL     1       1.466   4.188  19.554  0.00  0.00    +0.000 C 
ATOM      4  C   UNL     1       2.036   4.568  18.177  0.00  0.00    +0.000 C 
ATOM      5  C   UNL     1       2.140   6.092  18.057  0.00  0.00    +0.000 C 
ATOM      6  C   UNL     1       2.966   6.698  19.193  0.00  0.00    +0.000 C 
ENDROOT
BRANCH   4   7
ATOM      7  C   UNL     1       3.371   3.860  17.929  0.00  0.00    +0.000 C 
ATOM      8  O   UNL     1       3.902   3.132  18.768  0.00  0.00    +0.000 OA
ATOM      9  N   UNL     1       3.932   4.051  16.686  0.00  0.00    +0.000 N 
ATOM     10  H   UNL     1       3.544   4.727  16.040  0.00  0.00    +0.000 HD
BRANCH   9  11
ATOM     11  C   UNL     1       5.205   3.417  16.404  0.00  0.00    +0.000 C 
BRANCH  11  12
ATOM     12  C   UNL     1       6.242   4.348  15.779  0.00  0.00    +0.000 C 
BRANCH  12  13
ATOM     13  C   UNL     1       6.797   5.347  16.775  0.00  0.00    +0.000 C 
ATOM     14  C   UNL     1       6.641   6.676  16.616  0.00  0.00    +0.000 C 
ATOM     15  C   UNL     1       7.158   7.701  17.586  0.00  0.00    +0.000 C 
ATOM     16  C   UNL     1       8.188   7.136  18.562  0.00  0.00    +0.000 C 
ATOM     17  C   UNL     1       7.733   5.787  19.106  0.00  0.00    +0.000 C 
ATOM     18  C   UNL     1       7.521   4.776  17.978  0.00  0.00    +0.000 C 
ENDBRANCH  12  13
ENDBRANCH  11  12
ENDBRANCH   9  11
ENDBRANCH   4   7
BRANCH   1  19
ATOM     19  C   UNL     1       1.129   7.096  20.908  0.00  0.00    +0.000 C 
BRANCH  19  20
ATOM     20  N   UNL     1       1.369   8.526  20.895  0.00  0.00    +0.000 N 
ATOM     21  H   UNL     1       2.303   8.778  20.588  0.00  0.00    +0.000 HD
BRANCH  20  23
ATOM     22  C   UNL     1      -0.261  10.421  20.823  0.00  0.00    +0.000 C 
ATOM     23  C   UNL     1       0.554   9.450  21.361  0.00  0.00    +0.000 C 
ATOM     24  C   UNL     1       0.184   9.821  22.750  0.00  0.00    +0.000 C 
ATOM     25  O   UNL     1       0.449   9.506  23.880  0.00  0.00    +0.000 OA
ATOM     26  C   UNL     1      -0.652  10.900  22.180  0.00  0.00    +0.000 C 
ATOM     27  O   UNL     1      -1.308  11.773  22.699  0.00  0.00    +0.000 OA
BRANCH  22  32
ATOM     28  C   UNL     1      -3.477  10.484  16.456  0.00  0.00    +0.000 C 
ATOM     29  C   UNL     1      -2.258  10.960  17.242  0.00  0.00    +0.000 C 
ATOM     30  C   UNL     1      -1.292   9.801  17.513  0.00  0.00    +0.000 C 
ATOM     31  C   UNL     1      -0.117  10.252  18.378  0.00  0.00    +0.000 C 
ATOM     32  N   UNL     1      -0.616  10.852  19.621  0.00  0.00    +0.000 N 
ATOM     33  C   UNL     1      -1.491  12.011  19.417  0.00  0.00    +0.000 C 
ATOM     34  C   UNL     1      -2.693  11.612  18.563  0.00  0.00    +0.000 C 
ENDBRANCH  22  32
ENDBRANCH  20  23
ENDBRANCH  19  20
ENDBRANCH   1  19
TORSDOF 8
ENDMDL
MODEL 2
REMARK VINA RESULT:      -8.5      1.953      2.968
REMARK  Name = 
REMARK  9 active torsions:
REMARK  status: ('A' for Active; 'I' for Inactive)
REMARK    1  A    between atoms: C_1  and  C_2
REMARK    2  A    between atoms: N_5  and  C_6
REMARK    3  A    between atoms: C_7  and  N_8
REMARK    4  A    between atoms: N_8  and  C_9
REMARK    5  A    between atoms: C_9  and  C_10
REMARK    6  A    between atoms: C_13  and  C_14
REMARK    7  A    between atoms: N_16  and  C_17
REMARK    8  A    between atoms: C_17  and  C_18
REMARK    9  A    between atoms: C_18  and  C_19
REMARK                            x       y       z     vdW  Elec       q    Type
REMARK                         _______ _______ _______ _____ _____    ______ ____
ROOT
ATOM      1  C   UNL     1       2.581   5.926  20.327  0.00  0.00    +0.000 C 
ATOM      2  C   UNL     1       2.267   4.431  20.525  0.00  0.00    +0.000 C 
ATOM      3  C   UNL     1       1.291   3.875  19.481  0.00  0.00    +0.000 C 
ATOM      4  C   UNL     1       1.750   4.152  18.040  0.00  0.00    +0.000 C 
ATOM      5  C   UNL     1       2.002   5.652  17.850  0.00  0.00    +0.000 C 
ATOM      6  C   UNL     1       3.003   6.194  18.871  0.00  0.00    +0.000 C 
ENDROOT
BRANCH   4   7
ATOM      7  C   UNL     1       2.968   3.295  17.684  0.00  0.00    +0.000 C 
ATOM      8  O   UNL     1       3.110   2.142  18.090  0.00  0.00    +0.000 OA
ATOM      9  N   UNL     1       3.888   3.877  16.840  0.00  0.00    +0.000 N 
ATOM     10  H   UNL     1       3.818   4.855  16.592  0.00  0.00    +0.000 HD
BRANCH   9  11
ATOM     11  C   UNL     1       5.069   3.116  16.486  0.00  0.00    +0.000 C 
BRANCH  11  12
ATOM     12  C   UNL     1       6.172   3.942  15.826  0.00  0.00    +0.000 C 
BRANCH  12  13
ATOM     13  C   UNL     1       6.665   5.064  16.719  0.00  0.00    +0.000 C 
ATOM     14  C   UNL     1       6.251   6.337  16.562  0.00  0.00    +0.000 C 
ATOM     15  C   UNL     1       6.699   7.476  17.432  0.00  0.00    +0.000 C 
ATOM     16  C   UNL     1       7.934   7.144  18.265  0.00  0.00    +0.000 C 
ATOM     17  C   UNL     1       7.809   5.759  18.890  0.00  0.00    +0.000 C 
ATOM     18  C   UNL     1       7.634   4.680  17.819  0.00  0.00    +0.000 C 
ENDBRANCH  12  13
ENDBRANCH  11  12
ENDBRANCH   9  11
ENDBRANCH   4   7
BRANCH   1  19
ATOM     19  C   UNL     1       1.412   6.838  20.749  0.00  0.00    +0.000 C 
BRANCH  19  20
ATOM     20  N   UNL     1       1.824   8.228  20.734  0.00  0.00    +0.000 N 
ATOM     21  H   UNL     1       2.568   8.438  21.393  0.00  0.00    +0.000 HD
BRANCH  20  23
ATOM     22  C   UNL     1       0.537  10.343  20.384  0.00  0.00    +0.000 C 
ATOM     23  C   UNL     1       1.238   9.201  20.067  0.00  0.00    +0.000 C 
ATOM     24  C   UNL     1       1.102   9.446  18.610  0.00  0.00    +0.000 C 
ATOM     25  O   UNL     1       1.398   8.929  17.565  0.00  0.00    +0.000 OA
ATOM     26  C   UNL     1       0.302  10.646  18.943  0.00  0.00    +0.000 C 
ATOM     27  O   UNL     1      -0.282  11.445  18.249  0.00  0.00    +0.000 OA
BRANCH  22  32
ATOM     28  C   UNL     1      -3.187  12.582  23.630  0.00  0.00    +0.000 C 
ATOM     29  C   UNL     1      -1.746  12.223  23.274  0.00  0.00    +0.000 C 
ATOM     30  C   UNL     1      -1.324  12.885  21.957  0.00  0.00    +0.000 C 
ATOM     31  C   UNL     1       0.083  12.455  21.549  0.00  0.00    +0.000 C 
ATOM     32  N   UNL     1       0.154  10.992  21.475  0.00  0.00    +0.000 N 
ATOM     33  C   UNL     1      -0.173  10.311  22.732  0.00  0.00    +0.000 C 
ATOM     34  C   UNL     1      -1.580  10.699  23.182  0.00  0.00    +0.000 C 
ENDBRANCH  22  32
ENDBRANCH  20  23
ENDBRANCH  19  20
ENDBRANCH   1  19
TORSDOF 8
ENDMDL
MODEL 3
REMARK VINA RESULT:      -8.4      1.454      2.582
REMARK  Name = 
REMARK  9 active torsions:
REMARK  status: ('A' for Active; 'I' for Inactive)
REMARK    1  A    between atoms: C_1  and  C_2
REMARK    2  A    between atoms: N_5  and  C_6
REMARK    3  A    between atoms: C_7  and  N_8
REMARK    4  A    between atoms: N_8  and  C_9
REMARK    5  A    between atoms: C_9  and  C_10
REMARK    6  A    between atoms: C_13  and  C_14
REMARK    7  A    between atoms: N_16  and  C_17
REMARK    8  A    between atoms: C_17  and  C_18
REMARK    9  A    between atoms: C_18  and  C_19
REMARK                            x       y       z     vdW  Elec       q    Type
REMARK                         _______ _______ _______ _____ _____    ______ ____
ROOT
ATOM      1  C   UNL     1       2.393   6.463  20.435  0.00  0.00    +0.000 C 
ATOM      2  C   UNL     1       2.353   4.934  20.614  0.00  0.00    +0.000 C 
ATOM      3  C   UNL     1       1.501   4.224  19.555  0.00  0.00    +0.000 C 
ATOM      4  C   UNL     1       1.911   4.597  18.121  0.00  0.00    +0.000 C 
ATOM      5  C   UNL     1       1.890   6.120  17.950  0.00  0.00    +0.000 C 
ATOM      6  C   UNL     1       2.770   6.821  18.986  0.00  0.00    +0.000 C 
ENDROOT
BRANCH   4   7
ATOM      7  C   UNL     1       3.267   3.978  17.767  0.00  0.00    +0.000 C 
ATOM      8  O   UNL     1       3.627   2.881  18.193  0.00  0.00    +0.000 OA
ATOM      9  N   UNL     1       4.053   4.706  16.901  0.00  0.00    +0.000 N 
ATOM     10  H   UNL     1       3.797   5.648  16.635  0.00  0.00    +0.000 HD
BRANCH   9  11
ATOM     11  C   UNL     1       5.354   4.174  16.547  0.00  0.00    +0.000 C 
BRANCH  11  12
ATOM     12  C   UNL     1       6.202   5.113  15.690  0.00  0.00    +0.000 C 
BRANCH  12  13
ATOM     13  C   UNL     1       6.362   4.610  14.268  0.00  0.00    +0.000 C 
ATOM     14  C   UNL     1       5.442   3.817  13.684  0.00  0.00    +0.000 C 
ATOM     15  C   UNL     1       5.550   3.310  12.274  0.00  0.00    +0.000 C 
ATOM     16  C   UNL     1       6.952   3.459  11.689  0.00  0.00    +0.000 C 
ATOM     17  C   UNL     1       7.529   4.832  12.012  0.00  0.00    +0.000 C 
ATOM     18  C   UNL     1       7.600   5.063  13.523  0.00  0.00    +0.000 C 
ENDBRANCH  12  13
ENDBRANCH  11  12
ENDBRANCH   9  11
ENDBRANCH   4   7
BRANCH   1  19
ATOM     19  C   UNL     1       1.075   7.144  20.856  0.00  0.00    +0.000 C 
BRANCH  19  20
ATOM     20  N   UNL     1       1.127   8.565  20.570  0.00  0.00    +0.000 N 
ATOM     21  H   UNL     1       1.872   8.823  19.930  0.00  0.00    +0.000 HD
BRANCH  20  23
ATOM     22  C   UNL     1      -0.415  10.525  20.749  0.00  0.00    +0.000 C 
ATOM     23  C   UNL     1       0.406   9.498  21.157  0.00  0.00    +0.000 C 
ATOM     24  C   UNL     1       0.197   9.817  22.591  0.00  0.00    +0.000 C 
ATOM     25  O   UNL     1       0.562   9.438  23.673  0.00  0.00    +0.000 OA
ATOM     26  C   UNL     1      -0.644  10.955  22.158  0.00  0.00    +0.000 C 
ATOM     27  O   UNL     1      -1.203  11.828  22.780  0.00  0.00    +0.000 OA
BRANCH  22  32
ATOM     28  C   UNL     1      -4.001  10.847  16.691  0.00  0.00    +0.000 C 
ATOM     29  C   UNL     1      -2.715  11.276  17.394  0.00  0.00    +0.000 C 
ATOM     30  C   UNL     1      -1.735  10.102  17.512  0.00  0.00    +0.000 C 
ATOM     31  C   UNL     1      -0.487  10.501  18.296  0.00  0.00    +0.000 C 
ATOM     32  N   UNL     1      -0.872  11.027  19.610  0.00  0.00    +0.000 N 
ATOM     33  C   UNL     1      -1.755  12.196  19.552  0.00  0.00    +0.000 C 
ATOM     34  C   UNL     1      -3.028  11.849  18.785  0.00  0.00    +0.000 C 
ENDBRANCH  22  32
ENDBRANCH  20  23
ENDBRANCH  19  20
ENDBRANCH   1  19
TORSDOF 8
ENDMDL
MODEL 4
REMARK VINA RESULT:      -8.0      3.951      7.226
REMARK  Name = 
REMARK  9 active torsions:
REMARK  status: ('A' for Active; 'I' for Inactive)
REMARK    1  A    between atoms: C_1  and  C_2
REMARK    2  A    between atoms: N_5  and  C_6
REMARK    3  A    between atoms: C_7  and  N_8
REMARK    4  A    between atoms: N_8  and  C_9
REMARK    5  A    between atoms: C_9  and  C_10
REMARK    6  A    between atoms: C_13  and  C_14
REMARK    7  A    between atoms: N_16  and  C_17
REMARK    8  A    between atoms: C_17  and  C_18
REMARK    9  A    between atoms: C_18  and  C_19
REMARK                            x       y       z     vdW  Elec       q    Type
REMARK                         _______ _______ _______ _____ _____    ______ ____
ROOT
ATOM      1  C   UNL     1       5.133   5.526  17.738  0.00  0.00    +0.000 C 
ATOM      2  C   UNL     1       5.903   5.961  18.999  0.00  0.00    +0.000 C 
ATOM      3  C   UNL     1       7.424   5.827  18.855  0.00  0.00    +0.000 C 
ATOM      4  C   UNL     1       7.963   6.548  17.609  0.00  0.00    +0.000 C 
ATOM      5  C   UNL     1       7.222   6.060  16.360  0.00  0.00    +0.000 C 
ATOM      6  C   UNL     1       5.708   6.229  16.495  0.00  0.00    +0.000 C 
ENDROOT
BRANCH   4   7
ATOM      7  C   UNL     1       7.890   8.067  17.787  0.00  0.00    +0.000 C 
ATOM      8  O   UNL     1       7.096   8.772  17.165  0.00  0.00    +0.000 OA
ATOM      9  N   UNL     1       8.745   8.605  18.725  0.00  0.00    +0.000 N 
ATOM     10  H   UNL     1       9.462   8.038  19.159  0.00  0.00    +0.000 HD
BRANCH   9  11
ATOM     11  C   UNL     1       8.729  10.041  18.921  0.00  0.00    +0.000 C 
BRANCH  11  12
ATOM     12  C   UNL     1       9.914  10.576  19.724  0.00  0.00    +0.000 C 
BRANCH  12  13
ATOM     13  C   UNL     1      10.472  11.860  19.143  0.00  0.00    +0.000 C 
ATOM     14  C   UNL     1      10.662  12.961  19.897  0.00  0.00    +0.000 C 
ATOM     15  C   UNL     1      11.229  14.248  19.369  0.00  0.00    +0.000 C 
ATOM     16  C   UNL     1      11.223  14.325  17.844  0.00  0.00    +0.000 C 
ATOM     17  C   UNL     1      11.709  13.015  17.236  0.00  0.00    +0.000 C 
ATOM     18  C   UNL     1      10.832  11.840  17.672  0.00  0.00    +0.000 C 
ENDBRANCH  12  13
ENDBRANCH  11  12
ENDBRANCH   9  11
ENDBRANCH   4   7
BRANCH   1  19
ATOM     19  C   UNL     1       5.108   3.996  17.556  0.00  0.00    +0.000 C 
BRANCH  19  20
ATOM     20  N   UNL     1       5.358   3.333  18.822  0.00  0.00    +0.000 N 
ATOM     21  H   UNL     1       6.301   2.967  18.910  0.00  0.00    +0.000 HD
BRANCH  20  23
ATOM     22  C   UNL     1       3.235   3.579  20.120  0.00  0.00    +0.000 C 
ATOM     23  C   UNL     1       4.457   3.068  19.745  0.00  0.00    +0.000 C 
ATOM     24  C   UNL     1       4.423   2.038  20.814  0.00  0.00    +0.000 C 
ATOM     25  O   UNL     1       5.110   1.153  21.251  0.00  0.00    +0.000 OA
ATOM     26  C   UNL     1       3.135   2.617  21.254  0.00  0.00    +0.000 C 
ATOM     27  O   UNL     1       2.410   2.358  22.186  0.00  0.00    +0.000 OA
BRANCH  22  32
ATOM     28  C   UNL     1       2.091   8.326  17.757  0.00  0.00    +0.000 C 
ATOM     29  C   UNL     1       1.685   7.053  18.495  0.00  0.00    +0.000 C 
ATOM     30  C   UNL     1       2.353   6.980  19.874  0.00  0.00    +0.000 C 
ATOM     31  C   UNL     1       2.025   5.665  20.578  0.00  0.00    +0.000 C 
ATOM     32  N   UNL     1       2.405   4.535  19.724  0.00  0.00    +0.000 N 
ATOM     33  C   UNL     1       1.739   4.520  18.418  0.00  0.00    +0.000 C 
ATOM     34  C   UNL     1       2.043   5.812  17.663  0.00  0.00    +0.000 C 
ENDBRANCH  22  32
ENDBRANCH  20  23
ENDBRANCH  19  20
ENDBRANCH   1  19
TORSDOF 8
ENDMDL
MODEL 5
REMARK VINA RESULT:      -7.9      0.968      1.164
REMARK  Name = 
REMARK  9 active torsions:
REMARK  status: ('A' for Active; 'I' for Inactive)
REMARK    1  A    between atoms: C_1  and  C_2
REMARK    2  A    between atoms: N_5  and  C_6
REMARK    3  A    between atoms: C_7  and  N_8
REMARK    4  A    between atoms: N_8  and  C_9
REMARK    5  A    between atoms: C_9  and  C_10
REMARK    6  A    between atoms: C_13  and  C_14
REMARK    7  A    between atoms: N_16  and  C_17
REMARK    8  A    between atoms: C_17  and  C_18
REMARK    9  A    between atoms: C_18  and  C_19
REMARK                            x       y       z     vdW  Elec       q    Type
REMARK                         _______ _______ _______ _____ _____    ______ ____
ROOT
ATOM      1  C   UNL     1       3.180   6.680  19.027  0.00  0.00    +0.000 C 
ATOM      2  C   UNL     1       4.197   5.627  19.506  0.00  0.00    +0.000 C 
ATOM      3  C   UNL     1       3.574   4.245  19.738  0.00  0.00    +0.000 C 
ATOM      4  C   UNL     1       2.796   3.737  18.512  0.00  0.00    +0.000 C 
ATOM      5  C   UNL     1       1.752   4.775  18.088  0.00  0.00    +0.000 C 
ATOM      6  C   UNL     1       2.385   6.142  17.823  0.00  0.00    +0.000 C 
ENDROOT
BRANCH   4   7
ATOM      7  C   UNL     1       3.755   3.361  17.379  0.00  0.00    +0.000 C 
ATOM      8  O   UNL     1       4.101   2.200  17.160  0.00  0.00    +0.000 OA
ATOM      9  N   UNL     1       4.184   4.400  16.583  0.00  0.00    +0.000 N 
ATOM     10  H   UNL     1       3.978   5.360  16.828  0.00  0.00    +0.000 HD
BRANCH   9  11
ATOM     11  C   UNL     1       5.108   4.101  15.507  0.00  0.00    +0.000 C 
BRANCH  11  12
ATOM     12  C   UNL     1       6.567   3.997  15.946  0.00  0.00    +0.000 C 
BRANCH  12  13
ATOM     13  C   UNL     1       6.978   5.135  16.860  0.00  0.00    +0.000 C 
ATOM     14  C   UNL     1       6.666   6.417  16.588  0.00  0.00    +0.000 C 
ATOM     15  C   UNL     1       7.036   7.574  17.472  0.00  0.00    +0.000 C 
ATOM     16  C   UNL     1       8.107   7.221  18.503  0.00  0.00    +0.000 C 
ATOM     17  C   UNL     1       7.807   5.876  19.155  0.00  0.00    +0.000 C 
ATOM     18  C   UNL     1       7.740   4.757  18.114  0.00  0.00    +0.000 C 
ENDBRANCH  12  13
ENDBRANCH  11  12
ENDBRANCH   9  11
ENDBRANCH   4   7
BRANCH   1  19
ATOM     19  C   UNL     1       2.240   7.152  20.154  0.00  0.00    +0.000 C 
BRANCH  19  20
ATOM     20  N   UNL     1       1.328   8.165  19.660  0.00  0.00    +0.000 N 
ATOM     21  H   UNL     1       1.120   8.076  18.670  0.00  0.00    +0.000 HD
BRANCH  20  23
ATOM     22  C   UNL     1       0.110  10.310  20.070  0.00  0.00    +0.000 C 
ATOM     23  C   UNL     1       0.892   9.209  20.335  0.00  0.00    +0.000 C 
ATOM     24  C   UNL     1       1.102   9.619  21.746  0.00  0.00    +0.000 C 
ATOM     25  O   UNL     1       1.693   9.250  22.726  0.00  0.00    +0.000 OA
ATOM     26  C   UNL     1       0.307  10.832  21.452  0.00  0.00    +0.000 C 
ATOM     27  O   UNL     1       0.029  11.797  22.125  0.00  0.00    +0.000 OA
BRANCH  22  32
ATOM     28  C   UNL     1      -4.384  10.979  17.108  0.00  0.00    +0.000 C 
ATOM     29  C   UNL     1      -2.905  11.229  17.392  0.00  0.00    +0.000 C 
ATOM     30  C   UNL     1      -2.111   9.917  17.366  0.00  0.00    +0.000 C 
ATOM     31  C   UNL     1      -0.650  10.148  17.741  0.00  0.00    +0.000 C 
ATOM     32  N   UNL     1      -0.570  10.810  19.048  0.00  0.00    +0.000 N 
ATOM     33  C   UNL     1      -1.255  12.105  19.106  0.00  0.00    +0.000 C 
ATOM     34  C   UNL     1      -2.729  11.931  18.748  0.00  0.00    +0.000 C 
ENDBRANCH  22  32
ENDBRANCH  20  23
ENDBRANCH  19  20
ENDBRANCH   1  19
TORSDOF 8
ENDMDL
MODEL 6
REMARK VINA RESULT:      -7.9      1.250      1.877
REMARK  Name = 
REMARK  9 active torsions:
REMARK  status: ('A' for Active; 'I' for Inactive)
REMARK    1  A    between atoms: C_1  and  C_2
REMARK    2  A    between atoms: N_5  and  C_6
REMARK    3  A    between atoms: C_7  and  N_8
REMARK    4  A    between atoms: N_8  and  C_9
REMARK    5  A    between atoms: C_9  and  C_10
REMARK    6  A    between atoms: C_13  and  C_14
REMARK    7  A    between atoms: N_16  and  C_17
REMARK    8  A    between atoms: C_17  and  C_18
REMARK    9  A    between atoms: C_18  and  C_19
REMARK                            x       y       z     vdW  Elec       q    Type
REMARK                         _______ _______ _______ _____ _____    ______ ____
ROOT
ATOM      1  C   UNL     1       2.347   6.608  20.439  0.00  0.00    +0.000 C 
ATOM      2  C   UNL     1       2.168   5.117  20.781  0.00  0.00    +0.000 C 
ATOM      3  C   UNL     1       1.315   4.359  19.757  0.00  0.00    +0.000 C 
ATOM      4  C   UNL     1       1.829   4.533  18.318  0.00  0.00    +0.000 C 
ATOM      5  C   UNL     1       1.945   6.023  17.980  0.00  0.00    +0.000 C 
ATOM      6  C   UNL     1       2.827   6.767  18.985  0.00  0.00    +0.000 C 
ENDROOT
BRANCH   4   7
ATOM      7  C   UNL     1       3.144   3.773  18.117  0.00  0.00    +0.000 C 
ATOM      8  O   UNL     1       3.561   2.943  18.924  0.00  0.00    +0.000 OA
ATOM      9  N   UNL     1       3.822   4.043  16.948  0.00  0.00    +0.000 N 
ATOM     10  H   UNL     1       3.528   4.796  16.340  0.00  0.00    +0.000 HD
BRANCH   9  11
ATOM     11  C   UNL     1       5.082   3.364  16.716  0.00  0.00    +0.000 C 
BRANCH  11  12
ATOM     12  C   UNL     1       6.120   4.208  15.978  0.00  0.00    +0.000 C 
BRANCH  12  13
ATOM     13  C   UNL     1       6.694   5.308  16.848  0.00  0.00    +0.000 C 
ATOM     14  C   UNL     1       6.386   6.606  16.654  0.00  0.00    +0.000 C 
ATOM     15  C   UNL     1       6.916   7.727  17.501  0.00  0.00    +0.000 C 
ATOM     16  C   UNL     1       8.114   7.318  18.355  0.00  0.00    +0.000 C 
ATOM     17  C   UNL     1       7.872   5.964  19.013  0.00  0.00    +0.000 C 
ATOM     18  C   UNL     1       7.619   4.876  17.967  0.00  0.00    +0.000 C 
ENDBRANCH  12  13
ENDBRANCH  11  12
ENDBRANCH   9  11
ENDBRANCH   4   7
BRANCH   1  19
ATOM     19  C   UNL     1       1.071   7.433  20.702  0.00  0.00    +0.000 C 
BRANCH  19  20
ATOM     20  N   UNL     1       1.412   8.815  20.980  0.00  0.00    +0.000 N 
ATOM     21  H   UNL     1       2.376   9.047  20.761  0.00  0.00    +0.000 HD
BRANCH  20  23
ATOM     22  C   UNL     1      -0.011  10.853  21.245  0.00  0.00    +0.000 C 
ATOM     23  C   UNL     1       0.643   9.693  21.591  0.00  0.00    +0.000 C 
ATOM     24  C   UNL     1       0.160   9.764  22.992  0.00  0.00    +0.000 C 
ATOM     25  O   UNL     1       0.267   9.160  24.027  0.00  0.00    +0.000 OA
ATOM     26  C   UNL     1      -0.502  11.039  22.640  0.00  0.00    +0.000 C 
ATOM     27  O   UNL     1      -1.124  11.836  23.303  0.00  0.00    +0.000 OA
BRANCH  22  32
ATOM     28  C   UNL     1       0.011  15.558  18.545  0.00  0.00    +0.000 C 
ATOM     29  C   UNL     1      -0.220  14.051  18.630  0.00  0.00    +0.000 C 
ATOM     30  C   UNL     1      -1.307  13.719  19.660  0.00  0.00    +0.000 C 
ATOM     31  C   UNL     1      -1.477  12.210  19.817  0.00  0.00    +0.000 C 
ATOM     32  N   UNL     1      -0.189  11.597  20.162  0.00  0.00    +0.000 N 
ATOM     33  C   UNL     1       0.868  11.827  19.172  0.00  0.00    +0.000 C 
ATOM     34  C   UNL     1       1.087  13.326  18.983  0.00  0.00    +0.000 C 
ENDBRANCH  22  32
ENDBRANCH  20  23
ENDBRANCH  19  20
ENDBRANCH   1  19
TORSDOF 8
ENDMDL
MODEL 7
REMARK VINA RESULT:      -7.9      2.339      9.537
REMARK  Name = 
REMARK  9 active torsions:
REMARK  status: ('A' for Active; 'I' for Inactive)
REMARK    1  A    between atoms: C_1  and  C_2
REMARK    2  A    between atoms: N_5  and  C_6
REMARK    3  A    between atoms: C_7  and  N_8
REMARK    4  A    between atoms: N_8  and  C_9
REMARK    5  A    between atoms: C_9  and  C_10
REMARK    6  A    between atoms: C_13  and  C_14
REMARK    7  A    between atoms: N_16  and  C_17
REMARK    8  A    between atoms: C_17  and  C_18
REMARK    9  A    between atoms: C_18  and  C_19
REMARK                            x       y       z     vdW  Elec       q    Type
REMARK                         _______ _______ _______ _____ _____    ______ ____
ROOT
ATOM      1  C   UNL     1       2.225   6.901  18.744  0.00  0.00    +0.000 C 
ATOM      2  C   UNL     1       1.507   7.355  20.028  0.00  0.00    +0.000 C 
ATOM      3  C   UNL     1       1.753   8.829  20.371  0.00  0.00    +0.000 C 
ATOM      4  C   UNL     1       1.425   9.769  19.199  0.00  0.00    +0.000 C 
ATOM      5  C   UNL     1       2.193   9.332  17.947  0.00  0.00    +0.000 C 
ATOM      6  C   UNL     1       1.915   7.871  17.589  0.00  0.00    +0.000 C 
ENDROOT
BRANCH   4   7
ATOM      7  C   UNL     1      -0.088   9.843  18.972  0.00  0.00    +0.000 C 
ATOM      8  O   UNL     1      -0.900   9.836  19.897  0.00  0.00    +0.000 OA
ATOM      9  N   UNL     1      -0.495   9.963  17.661  0.00  0.00    +0.000 N 
ATOM     10  H   UNL     1       0.167   9.868  16.902  0.00  0.00    +0.000 HD
BRANCH   9  11
ATOM     11  C   UNL     1      -1.917  10.020  17.389  0.00  0.00    +0.000 C 
BRANCH  11  12
ATOM     12  C   UNL     1      -2.452  11.431  17.145  0.00  0.00    +0.000 C 
BRANCH  12  13
ATOM     13  C   UNL     1      -3.771  11.678  17.849  0.00  0.00    +0.000 C 
ATOM     14  C   UNL     1      -3.832  12.026  19.150  0.00  0.00    +0.000 C 
ATOM     15  C   UNL     1      -5.115  12.298  19.883  0.00  0.00    +0.000 C 
ATOM     16  C   UNL     1      -6.349  11.789  19.142  0.00  0.00    +0.000 C 
ATOM     17  C   UNL     1      -6.272  12.140  17.661  0.00  0.00    +0.000 C 
ATOM     18  C   UNL     1      -5.025  11.537  17.011  0.00  0.00    +0.000 C 
ENDBRANCH  12  13
ENDBRANCH  11  12
ENDBRANCH   9  11
ENDBRANCH   4   7
BRANCH   1  19
ATOM     19  C   UNL     1       3.745   6.732  18.942  0.00  0.00    +0.000 C 
BRANCH  19  20
ATOM     20  N   UNL     1       4.424   6.728  17.661  0.00  0.00    +0.000 N 
ATOM     21  H   UNL     1       4.496   7.647  17.237  0.00  0.00    +0.000 HD
BRANCH  20  23
ATOM     22  C   UNL     1       4.562   4.305  17.058  0.00  0.00    +0.000 C 
ATOM     23  C   UNL     1       4.802   5.659  16.991  0.00  0.00    +0.000 C 
ATOM     24  C   UNL     1       5.704   5.504  15.822  0.00  0.00    +0.000 C 
ATOM     25  O   UNL     1       6.396   6.180  15.107  0.00  0.00    +0.000 OA
ATOM     26  C   UNL     1       5.492   4.043  15.923  0.00  0.00    +0.000 C 
ATOM     27  O   UNL     1       5.961   3.115  15.307  0.00  0.00    +0.000 OA
BRANCH  22  32
ATOM     28  C   UNL     1       0.984   3.145  20.967  0.00  0.00    +0.000 C 
ATOM     29  C   UNL     1       1.951   2.738  19.857  0.00  0.00    +0.000 C 
ATOM     30  C   UNL     1       3.381   3.188  20.182  0.00  0.00    +0.000 C 
ATOM     31  C   UNL     1       4.335   2.867  19.034  0.00  0.00    +0.000 C 
ATOM     32  N   UNL     1       3.840   3.470  17.792  0.00  0.00    +0.000 N 
ATOM     33  C   UNL     1       2.502   3.018  17.399  0.00  0.00    +0.000 C 
ATOM     34  C   UNL     1       1.501   3.325  18.511  0.00  0.00    +0.000 C 
ENDBRANCH  22  32
ENDBRANCH  20  23
ENDBRANCH  19  20
ENDBRANCH   1  19
TORSDOF 8
ENDMDL
MODEL 8
REMARK VINA RESULT:      -7.8      2.081      8.988
REMARK  Name = 
REMARK  9 active torsions:
REMARK  status: ('A' for Active; 'I' for Inactive)
REMARK    1  A    between atoms: C_1  and  C_2
REMARK    2  A    between atoms: N_5  and  C_6
REMARK    3  A    between atoms: C_7  and  N_8
REMARK    4  A    between atoms: N_8  and  C_9
REMARK    5  A    between atoms: C_9  and  C_10
REMARK    6  A    between atoms: C_13  and  C_14
REMARK    7  A    between atoms: N_16  and  C_17
REMARK    8  A    between atoms: C_17  and  C_18
REMARK    9  A    between atoms: C_18  and  C_19
REMARK                            x       y       z     vdW  Elec       q    Type
REMARK                         _______ _______ _______ _____ _____    ______ ____
ROOT
ATOM      1  C   UNL     1       1.183   8.765  18.864  0.00  0.00    +0.000 C 
ATOM      2  C   UNL     1       0.518   9.347  20.125  0.00  0.00    +0.000 C 
ATOM      3  C   UNL     1       1.219  10.605  20.652  0.00  0.00    +0.000 C 
ATOM      4  C   UNL     1       1.382  11.686  19.570  0.00  0.00    +0.000 C 
ATOM      5  C   UNL     1       2.095  11.099  18.348  0.00  0.00    +0.000 C 
ATOM      6  C   UNL     1       1.371   9.866  17.804  0.00  0.00    +0.000 C 
ENDROOT
BRANCH   4   7
ATOM      7  C   UNL     1       0.029  12.314  19.225  0.00  0.00    +0.000 C 
ATOM      8  O   UNL     1      -0.183  12.889  18.157  0.00  0.00    +0.000 OA
ATOM      9  N   UNL     1      -0.963  12.165  20.169  0.00  0.00    +0.000 N 
ATOM     10  H   UNL     1      -0.756  11.782  21.082  0.00  0.00    +0.000 HD
BRANCH   9  11
ATOM     11  C   UNL     1      -2.259  12.756  19.900  0.00  0.00    +0.000 C 
BRANCH  11  12
ATOM     12  C   UNL     1      -3.357  11.741  19.588  0.00  0.00    +0.000 C 
BRANCH  12  13
ATOM     13  C   UNL     1      -3.230  11.163  18.192  0.00  0.00    +0.000 C 
ATOM     14  C   UNL     1      -2.369  10.166  17.908  0.00  0.00    +0.000 C 
ATOM     15  C   UNL     1      -2.221   9.550  16.546  0.00  0.00    +0.000 C 
ATOM     16  C   UNL     1      -2.851  10.391  15.438  0.00  0.00    +0.000 C 
ATOM     17  C   UNL     1      -4.225  10.898  15.859  0.00  0.00    +0.000 C 
ATOM     18  C   UNL     1      -4.138  11.747  17.129  0.00  0.00    +0.000 C 
ENDBRANCH  12  13
ENDBRANCH  11  12
ENDBRANCH   9  11
ENDBRANCH   4   7
BRANCH   1  19
ATOM     19  C   UNL     1       2.513   8.048  19.171  0.00  0.00    +0.000 C 
BRANCH  19  20
ATOM     20  N   UNL     1       2.278   6.881  19.999  0.00  0.00    +0.000 N 
ATOM     21  H   UNL     1       2.088   7.104  20.971  0.00  0.00    +0.000 HD
BRANCH  20  23
ATOM     22  C   UNL     1       3.335   4.912  18.878  0.00  0.00    +0.000 C 
ATOM     23  C   UNL     1       2.426   5.627  19.625  0.00  0.00    +0.000 C 
ATOM     24  C   UNL     1       1.601   4.422  19.890  0.00  0.00    +0.000 C 
ATOM     25  O   UNL     1       0.581   4.119  20.450  0.00  0.00    +0.000 OA
ATOM     26  C   UNL     1       2.545   3.658  19.044  0.00  0.00    +0.000 C 
ATOM     27  O   UNL     1       2.550   2.506  18.677  0.00  0.00    +0.000 OA
BRANCH  22  32
ATOM     28  C   UNL     1       7.729   7.857  17.677  0.00  0.00    +0.000 C 
ATOM     29  C   UNL     1       6.836   6.631  17.501  0.00  0.00    +0.000 C 
ATOM     30  C   UNL     1       5.438   7.035  17.015  0.00  0.00    +0.000 C 
ATOM     31  C   UNL     1       4.513   5.824  16.927  0.00  0.00    +0.000 C 
ATOM     32  N   UNL     1       4.465   5.138  18.223  0.00  0.00    +0.000 N 
ATOM     33  C   UNL     1       5.769   4.669  18.700  0.00  0.00    +0.000 C 
ATOM     34  C   UNL     1       6.735   5.846  18.818  0.00  0.00    +0.000 C 
ENDBRANCH  22  32
ENDBRANCH  20  23
ENDBRANCH  19  20
ENDBRANCH   1  19
TORSDOF 8
ENDMDL
MODEL 9
REMARK VINA RESULT:      -7.7      1.765      2.435
REMARK  Name = 
REMARK  9 active torsions:
REMARK  status: ('A' for Active; 'I' for Inactive)
REMARK    1  A    between atoms: C_1  and  C_2
REMARK    2  A    between atoms: N_5  and  C_6
REMARK    3  A    between atoms: C_7  and  N_8
REMARK    4  A    between atoms: N_8  and  C_9
REMARK    5  A    between atoms: C_9  and  C_10
REMARK    6  A    between atoms: C_13  and  C_14
REMARK    7  A    between atoms: N_16  and  C_17
REMARK    8  A    between atoms: C_17  and  C_18
REMARK    9  A    between atoms: C_18  and  C_19
REMARK                            x       y       z     vdW  Elec       q    Type
REMARK                         _______ _______ _______ _____ _____    ______ ____
ROOT
ATOM      1  C   UNL     1       2.628   6.756  18.637  0.00  0.00    +0.000 C 
ATOM      2  C   UNL     1       4.070   6.276  18.886  0.00  0.00    +0.000 C 
ATOM      3  C   UNL     1       4.145   5.002  19.736  0.00  0.00    +0.000 C 
ATOM      4  C   UNL     1       3.280   3.864  19.169  0.00  0.00    +0.000 C 
ATOM      5  C   UNL     1       1.838   4.346  18.982  0.00  0.00    +0.000 C 
ATOM      6  C   UNL     1       1.766   5.597  18.104  0.00  0.00    +0.000 C 
ENDROOT
BRANCH   4   7
ATOM      7  C   UNL     1       3.893   3.308  17.880  0.00  0.00    +0.000 C 
ATOM      8  O   UNL     1       3.717   2.147  17.508  0.00  0.00    +0.000 OA
ATOM      9  N   UNL     1       4.627   4.199  17.130  0.00  0.00    +0.000 N 
ATOM     10  H   UNL     1       4.852   5.118  17.488  0.00  0.00    +0.000 HD
BRANCH   9  11
ATOM     11  C   UNL     1       5.245   3.720  15.909  0.00  0.00    +0.000 C 
BRANCH  11  12
ATOM     12  C   UNL     1       6.682   4.196  15.706  0.00  0.00    +0.000 C 
BRANCH  12  13
ATOM     13  C   UNL     1       7.096   5.235  16.729  0.00  0.00    +0.000 C 
ATOM     14  C   UNL     1       6.916   6.554  16.520  0.00  0.00    +0.000 C 
ATOM     15  C   UNL     1       7.294   7.617  17.512  0.00  0.00    +0.000 C 
ATOM     16  C   UNL     1       8.231   7.110  18.606  0.00  0.00    +0.000 C 
ATOM     17  C   UNL     1       7.764   5.758  19.134  0.00  0.00    +0.000 C 
ATOM     18  C   UNL     1       7.705   4.716  18.016  0.00  0.00    +0.000 C 
ENDBRANCH  12  13
ENDBRANCH  11  12
ENDBRANCH   9  11
ENDBRANCH   4   7
BRANCH   1  19
ATOM     19  C   UNL     1       1.993   7.399  19.886  0.00  0.00    +0.000 C 
BRANCH  19  20
ATOM     20  N   UNL     1       1.430   8.694  19.556  0.00  0.00    +0.000 N 
ATOM     21  H   UNL     1       1.731   9.049  18.653  0.00  0.00    +0.000 HD
BRANCH  20  23
ATOM     22  C   UNL     1       0.515  10.803  20.538  0.00  0.00    +0.000 C 
ATOM     23  C   UNL     1       0.715   9.453  20.360  0.00  0.00    +0.000 C 
ATOM     24  C   UNL     1      -0.216   9.106  21.463  0.00  0.00    +0.000 C 
ATOM     25  O   UNL     1      -0.633   8.133  22.033  0.00  0.00    +0.000 OA
ATOM     26  C   UNL     1      -0.393  10.557  21.695  0.00  0.00    +0.000 C 
ATOM     27  O   UNL     1      -1.014  11.171  22.530  0.00  0.00    +0.000 OA
BRANCH  22  32
ATOM     28  C   UNL     1      -0.121  16.008  19.149  0.00  0.00    +0.000 C 
ATOM     29  C   UNL     1       0.682  14.710  19.190  0.00  0.00    +0.000 C 
ATOM     30  C   UNL     1      -0.056  13.584  18.454  0.00  0.00    +0.000 C 
ATOM     31  C   UNL     1       0.698  12.262  18.572  0.00  0.00    +0.000 C 
ATOM     32  N   UNL     1       0.919  11.939  19.986  0.00  0.00    +0.000 N 
ATOM     33  C   UNL     1       1.682  12.953  20.719  0.00  0.00    +0.000 C 
ATOM     34  C   UNL     1       0.966  14.300  20.643  0.00  0.00    +0.000 C 
ENDBRANCH  22  32
ENDBRANCH  20  23
ENDBRANCH  19  20
ENDBRANCH   1  19
TORSDOF 8
ENDMDL
