MODEL 1
REMARK VINA RESULT:      -9.3      0.000      0.000
REMARK  Name = 
REMARK  9 active torsions:
REMARK  status: ('A' for Active; 'I' for Inactive)
REMARK    1  A    between atoms: C_1  and  C_2
REMARK    2  A    between atoms: C_2  and  C_3
REMARK    3  A    between atoms: C_3  and  C_4
REMARK    4  A    between atoms: C_4  and  C_5
REMARK    5  A    between atoms: C_5  and  C_6
REMARK    6  A    between atoms: C_6  and  C_7
REMARK    7  A    between atoms: C_9  and  N_10
REMARK    8  A    between atoms: N_13  and  C_14
REMARK    9  A    between atoms: N_24  and  C_25
REMARK                            x       y       z     vdW  Elec       q    Type
REMARK                         _______ _______ _______ _____ _____    ______ ____
ROOT
ATOM      1  N   UNL     1       3.169   6.820  19.244  0.00  0.00    +0.000 N 
ATOM      2  C   UNL     1       2.111   7.500  19.829  0.00  0.00    +0.000 C 
ATOM      3  O   UNL     1       1.387   7.005  20.718  0.00  0.00    +0.000 OA
ATOM      4  N   UNL     1       1.880   8.774  19.303  0.00  0.00    +0.000 N 
ATOM      5  H   UNL     1       3.701   7.333  18.553  0.00  0.00    +0.000 HD
ATOM      6  H   UNL     1       1.998   8.793  18.299  0.00  0.00    +0.000 HD
ENDROOT
BRANCH   4   7
ATOM      7  C   UNL     1       0.886   9.680  19.845  0.00  0.00    +0.000 A 
ATOM      8  C   UNL     1       0.999  10.228  21.124  0.00  0.00    +0.000 A 
ATOM      9  C   UNL     1       0.060  11.110  21.659  0.00  0.00    +0.000 A 
ATOM     10  C   UNL     1      -1.032  11.499  20.891  0.00  0.00    +0.000 A 
ATOM     11  C   UNL     1      -1.152  11.028  19.583  0.00  0.00    +0.000 A 
ATOM     12  C   UNL     1      -0.197  10.127  19.048  0.00  0.00    +0.000 A 
ATOM     13  C   UNL     1      -0.326   9.692  17.633  0.00  0.00    +0.000 C 
ATOM     14  N   UNL     1      -1.594   9.990  17.061  0.00  0.00    +0.000 N 
ATOM     15  C   UNL     1      -2.362  11.047  17.438  0.00  0.00    +0.000 C 
ATOM     16  O   UNL     1      -3.168  11.497  16.648  0.00  0.00    +0.000 OA
ATOM     17  N   UNL     1      -2.218  11.473  18.746  0.00  0.00    +0.000 N 
ATOM     18  C   UNL     1      -3.338  12.197  19.327  0.00  0.00    +0.000 C 
ATOM     19  H   UNL     1      -1.806   9.659  16.129  0.00  0.00    +0.000 HD
ENDBRANCH   4   7
BRANCH   1  22
ATOM     20  C   UNL     1       5.581   5.143  17.945  0.00  0.00    +0.000 C 
ATOM     21  C   UNL     1       5.255   5.463  19.449  0.00  0.00    +0.000 C 
ATOM     22  C   UNL     1       3.757   5.507  19.707  0.00  0.00    +0.000 C 
ATOM     23  C   UNL     1       3.229   4.202  19.066  0.00  0.00    +0.000 A 
ATOM     24  C   UNL     1       1.943   3.717  19.321  0.00  0.00    +0.000 A 
ATOM     25  C   UNL     1       1.476   2.571  18.661  0.00  0.00    +0.000 A 
ATOM     26  F   UNL     1       0.219   2.160  18.869  0.00  0.00    +0.000 F 
ATOM     27  C   UNL     1       2.266   1.856  17.754  0.00  0.00    +0.000 A 
ATOM     28  C   UNL     1       3.566   2.267  17.546  0.00  0.00    +0.000 A 
ATOM     29  C   UNL     1       4.044   3.408  18.191  0.00  0.00    +0.000 A 
ATOM     30  O   UNL     1       5.337   3.737  17.818  0.00  0.00    +0.000 OA
BRANCH  20  31
ATOM     31  C   UNL     1       7.087   5.451  17.722  0.00  0.00    +0.000 C 
BRANCH  31  33
ATOM     32  C   UNL     1       7.772   7.902  17.620  0.00  0.00    +0.000 C 
ATOM     33  C   UNL     1       7.623   6.669  18.492  0.00  0.00    +0.000 C 
ENDBRANCH  31  33
ENDBRANCH  20  31
BRANCH  20  34
ATOM     34  C   UNL     1       4.746   5.840  16.776  0.00  0.00    +0.000 C 
BRANCH  34  35
ATOM     35  C   UNL     1       5.233   5.859  15.269  0.00  0.00    +0.000 C 
ATOM     36  C   UNL     1       5.608   4.610  14.464  0.00  0.00    +0.000 C 
ENDBRANCH  34  35
ENDBRANCH  20  34
ENDBRANCH   1  22
TORSDOF 6
ENDMDL
MODEL 2
REMARK VINA RESULT:      -9.1      2.234      2.462
REMARK  Name = 
REMARK  9 active torsions:
REMARK  status: ('A' for Active; 'I' for Inactive)
REMARK    1  A    between atoms: C_1  and  C_2
REMARK    2  A    between atoms: C_2  and  C_3
REMARK    3  A    between atoms: C_3  and  C_4
REMARK    4  A    between atoms: C_4  and  C_5
REMARK    5  A    between atoms: C_5  and  C_6
REMARK    6  A    between atoms: C_6  and  C_7
REMARK    7  A    between atoms: C_9  and  N_10
REMARK    8  A    between atoms: N_13  and  C_14
REMARK    9  A    between atoms: N_24  and  C_25
REMARK                            x       y       z     vdW  Elec       q    Type
REMARK                         _______ _______ _______ _____ _____    ______ ____
ROOT
ATOM      1  N   UNL     1       3.103   7.075  18.561  0.00  0.00    +0.000 N 
ATOM      2  C   UNL     1       2.139   7.952  19.033  0.00  0.00    +0.000 C 
ATOM      3  O   UNL     1       1.481   7.751  20.075  0.00  0.00    +0.000 OA
ATOM      4  N   UNL     1       1.918   9.065  18.215  0.00  0.00    +0.000 N 
ATOM      5  H   UNL     1       3.590   7.358  17.720  0.00  0.00    +0.000 HD
ATOM      6  H   UNL     1       1.940   8.820  17.235  0.00  0.00    +0.000 HD
ENDROOT
BRANCH   4   7
ATOM      7  C   UNL     1       1.024  10.146  18.582  0.00  0.00    +0.000 A 
ATOM      8  C   UNL     1      -0.235   9.912  19.137  0.00  0.00    +0.000 A 
ATOM      9  C   UNL     1      -1.106  10.938  19.507  0.00  0.00    +0.000 A 
ATOM     10  C   UNL     1      -0.711  12.262  19.352  0.00  0.00    +0.000 A 
ATOM     11  C   UNL     1       0.565  12.544  18.862  0.00  0.00    +0.000 A 
ATOM     12  C   UNL     1       1.442  11.496  18.483  0.00  0.00    +0.000 A 
ATOM     13  C   UNL     1       2.813  11.832  18.018  0.00  0.00    +0.000 C 
ATOM     14  N   UNL     1       2.984  13.209  17.706  0.00  0.00    +0.000 N 
ATOM     15  C   UNL     1       2.290  14.212  18.307  0.00  0.00    +0.000 C 
ATOM     16  O   UNL     1       2.775  15.326  18.335  0.00  0.00    +0.000 OA
ATOM     17  N   UNL     1       1.026  13.891  18.768  0.00  0.00    +0.000 N 
ATOM     18  C   UNL     1       0.083  14.988  18.917  0.00  0.00    +0.000 C 
ATOM     19  H   UNL     1       3.859  13.520  17.303  0.00  0.00    +0.000 HD
ENDBRANCH   4   7
BRANCH   1  22
ATOM     20  C   UNL     1       5.606   5.231  17.751  0.00  0.00    +0.000 C 
ATOM     21  C   UNL     1       5.183   5.822  19.145  0.00  0.00    +0.000 C 
ATOM     22  C   UNL     1       3.671   5.885  19.299  0.00  0.00    +0.000 C 
ATOM     23  C   UNL     1       3.195   4.472  18.885  0.00  0.00    +0.000 A 
ATOM     24  C   UNL     1       1.899   4.018  19.149  0.00  0.00    +0.000 A 
ATOM     25  C   UNL     1       1.484   2.760  18.691  0.00  0.00    +0.000 A 
ATOM     26  F   UNL     1       0.219   2.370  18.896  0.00  0.00    +0.000 F 
ATOM     27  C   UNL     1       2.335   1.902  17.985  0.00  0.00    +0.000 A 
ATOM     28  C   UNL     1       3.643   2.292  17.783  0.00  0.00    +0.000 A 
ATOM     29  C   UNL     1       4.070   3.544  18.228  0.00  0.00    +0.000 A 
ATOM     30  O   UNL     1       5.381   3.822  17.879  0.00  0.00    +0.000 OA
BRANCH  20  31
ATOM     31  C   UNL     1       7.120   5.521  17.566  0.00  0.00    +0.000 C 
BRANCH  31  33
ATOM     32  C   UNL     1       7.793   7.977  17.615  0.00  0.00    +0.000 C 
ATOM     33  C   UNL     1       7.668   6.687  18.405  0.00  0.00    +0.000 C 
ENDBRANCH  31  33
ENDBRANCH  20  31
BRANCH  20  34
ATOM     34  C   UNL     1       4.841   5.678  16.423  0.00  0.00    +0.000 C 
BRANCH  34  35
ATOM     35  C   UNL     1       5.476   5.535  14.979  0.00  0.00    +0.000 C 
ATOM     36  C   UNL     1       5.811   4.197  14.310  0.00  0.00    +0.000 C 
ENDBRANCH  34  35
ENDBRANCH  20  34
ENDBRANCH   1  22
TORSDOF 6
ENDMDL
MODEL 3
REMARK VINA RESULT:      -8.4      1.437      1.466
REMARK  Name = 
REMARK  9 active torsions:
REMARK  status: ('A' for Active; 'I' for Inactive)
REMARK    1  A    between atoms: C_1  and  C_2
REMARK    2  A    between atoms: C_2  and  C_3
REMARK    3  A    between atoms: C_3  and  C_4
REMARK    4  A    between atoms: C_4  and  C_5
REMARK    5  A    between atoms: C_5  and  C_6
REMARK    6  A    between atoms: C_6  and  C_7
REMARK    7  A    between atoms: C_9  and  N_10
REMARK    8  A    between atoms: N_13  and  C_14
REMARK    9  A    between atoms: N_24  and  C_25
REMARK                            x       y       z     vdW  Elec       q    Type
REMARK                         _______ _______ _______ _____ _____    ______ ____
ROOT
ATOM      1  N   UNL     1       3.228   6.651  19.544  0.00  0.00    +0.000 N 
ATOM      2  C   UNL     1       2.172   7.258  20.206  0.00  0.00    +0.000 C 
ATOM      3  O   UNL     1       1.448   6.663  21.030  0.00  0.00    +0.000 OA
ATOM      4  N   UNL     1       1.944   8.587  19.836  0.00  0.00    +0.000 N 
ATOM      5  H   UNL     1       3.761   7.242  18.918  0.00  0.00    +0.000 HD
ATOM      6  H   UNL     1       2.061   8.725  18.841  0.00  0.00    +0.000 HD
ENDROOT
BRANCH   4   7
ATOM      7  C   UNL     1       0.952   9.424  20.482  0.00  0.00    +0.000 A 
ATOM      8  C   UNL     1       0.379   9.084  21.709  0.00  0.00    +0.000 A 
ATOM      9  C   UNL     1      -0.568   9.882  22.353  0.00  0.00    +0.000 A 
ATOM     10  C   UNL     1      -0.952  11.089  21.780  0.00  0.00    +0.000 A 
ATOM     11  C   UNL     1      -0.358  11.501  20.586  0.00  0.00    +0.000 A 
ATOM     12  C   UNL     1       0.600  10.683  19.935  0.00  0.00    +0.000 A 
ATOM     13  C   UNL     1       1.252  11.180  18.696  0.00  0.00    +0.000 C 
ATOM     14  N   UNL     1       0.601  12.307  18.125  0.00  0.00    +0.000 N 
ATOM     15  C   UNL     1      -0.093  13.225  18.848  0.00  0.00    +0.000 C 
ATOM     16  O   UNL     1      -0.227  14.346  18.400  0.00  0.00    +0.000 OA
ATOM     17  N   UNL     1      -0.674  12.771  20.018  0.00  0.00    +0.000 N 
ATOM     18  C   UNL     1      -1.814  13.522  20.520  0.00  0.00    +0.000 C 
ATOM     19  H   UNL     1       0.923  12.666  17.235  0.00  0.00    +0.000 HD
ENDBRANCH   4   7
BRANCH   1  22
ATOM     20  C   UNL     1       5.567   5.092  17.988  0.00  0.00    +0.000 C 
ATOM     21  C   UNL     1       5.301   5.258  19.528  0.00  0.00    +0.000 C 
ATOM     22  C   UNL     1       3.814   5.291  19.847  0.00  0.00    +0.000 C 
ATOM     23  C   UNL     1       3.244   4.065  19.094  0.00  0.00    +0.000 A 
ATOM     24  C   UNL     1       1.961   3.570  19.347  0.00  0.00    +0.000 A 
ATOM     25  C   UNL     1       1.454   2.503  18.591  0.00  0.00    +0.000 A 
ATOM     26  F   UNL     1       0.199   2.086  18.803  0.00  0.00    +0.000 F 
ATOM     27  C   UNL     1       2.200   1.878  17.586  0.00  0.00    +0.000 A 
ATOM     28  C   UNL     1       3.497   2.294  17.372  0.00  0.00    +0.000 A 
ATOM     29  C   UNL     1       4.015   3.358  18.113  0.00  0.00    +0.000 A 
ATOM     30  O   UNL     1       5.298   3.709  17.727  0.00  0.00    +0.000 OA
BRANCH  20  31
ATOM     31  C   UNL     1       7.068   5.405  17.741  0.00  0.00    +0.000 C 
BRANCH  31  33
ATOM     32  C   UNL     1       7.745   7.859  17.653  0.00  0.00    +0.000 C 
ATOM     33  C   UNL     1       7.616   6.616  18.514  0.00  0.00    +0.000 C 
ENDBRANCH  31  33
ENDBRANCH  20  31
BRANCH  20  34
ATOM     34  C   UNL     1       4.700   5.914  16.930  0.00  0.00    +0.000 C 
BRANCH  34  35
ATOM     35  C   UNL     1       5.146   6.109  15.422  0.00  0.00    +0.000 C 
ATOM     36  C   UNL     1       5.591   4.971  14.497  0.00  0.00    +0.000 C 
ENDBRANCH  34  35
ENDBRANCH  20  34
ENDBRANCH   1  22
TORSDOF 6
ENDMDL
MODEL 4
REMARK VINA RESULT:      -8.3      1.360      1.459
REMARK  Name = 
REMARK  9 active torsions:
REMARK  status: ('A' for Active; 'I' for Inactive)
REMARK    1  A    between atoms: C_1  and  C_2
REMARK    2  A    between atoms: C_2  and  C_3
REMARK    3  A    between atoms: C_3  and  C_4
REMARK    4  A    between atoms: C_4  and  C_5
REMARK    5  A    between atoms: C_5  and  C_6
REMARK    6  A    between atoms: C_6  and  C_7
REMARK    7  A    between atoms: C_9  and  N_10
REMARK    8  A    between atoms: N_13  and  C_14
REMARK    9  A    between atoms: N_24  and  C_25
REMARK                            x       y       z     vdW  Elec       q    Type
REMARK                         _______ _______ _______ _____ _____    ______ ____
ROOT
ATOM      1  N   UNL     1       2.966   6.967  18.327  0.00  0.00    +0.000 N 
ATOM      2  C   UNL     1       2.412   8.141  18.814  0.00  0.00    +0.000 C 
ATOM      3  O   UNL     1       2.090   8.300  20.010  0.00  0.00    +0.000 OA
ATOM      4  N   UNL     1       2.188   9.122  17.844  0.00  0.00    +0.000 N 
ATOM      5  H   UNL     1       3.211   6.964  17.344  0.00  0.00    +0.000 HD
ATOM      6  H   UNL     1       1.846   8.725  16.980  0.00  0.00    +0.000 HD
ENDROOT
BRANCH   4   7
ATOM      7  C   UNL     1       1.709  10.452  18.167  0.00  0.00    +0.000 A 
ATOM      8  C   UNL     1       2.567  11.549  18.256  0.00  0.00    +0.000 A 
ATOM      9  C   UNL     1       2.125  12.839  18.554  0.00  0.00    +0.000 A 
ATOM     10  C   UNL     1       0.767  13.071  18.747  0.00  0.00    +0.000 A 
ATOM     11  C   UNL     1      -0.135  12.017  18.604  0.00  0.00    +0.000 A 
ATOM     12  C   UNL     1       0.323  10.708  18.307  0.00  0.00    +0.000 A 
ATOM     13  C   UNL     1      -0.672   9.622  18.106  0.00  0.00    +0.000 C 
ATOM     14  N   UNL     1      -1.980   9.961  18.551  0.00  0.00    +0.000 N 
ATOM     15  C   UNL     1      -2.469  11.229  18.563  0.00  0.00    +0.000 C 
ATOM     16  O   UNL     1      -3.671  11.395  18.516  0.00  0.00    +0.000 OA
ATOM     17  N   UNL     1      -1.539  12.242  18.717  0.00  0.00    +0.000 N 
ATOM     18  C   UNL     1      -2.026  13.504  19.254  0.00  0.00    +0.000 C 
ATOM     19  H   UNL     1      -2.706   9.257  18.532  0.00  0.00    +0.000 HD
ENDBRANCH   4   7
BRANCH   1  22
ATOM     20  C   UNL     1       5.502   5.075  17.768  0.00  0.00    +0.000 C 
ATOM     21  C   UNL     1       4.988   5.724  19.104  0.00  0.00    +0.000 C 
ATOM     22  C   UNL     1       3.469   5.803  19.149  0.00  0.00    +0.000 C 
ATOM     23  C   UNL     1       3.010   4.378  18.759  0.00  0.00    +0.000 A 
ATOM     24  C   UNL     1       1.694   3.945  18.949  0.00  0.00    +0.000 A 
ATOM     25  C   UNL     1       1.300   2.672  18.512  0.00  0.00    +0.000 A 
ATOM     26  F   UNL     1       0.020   2.300  18.643  0.00  0.00    +0.000 F 
ATOM     27  C   UNL     1       2.190   1.781  17.902  0.00  0.00    +0.000 A 
ATOM     28  C   UNL     1       3.512   2.154  17.777  0.00  0.00    +0.000 A 
ATOM     29  C   UNL     1       3.919   3.419  18.201  0.00  0.00    +0.000 A 
ATOM     30  O   UNL     1       5.254   3.673  17.935  0.00  0.00    +0.000 OA
BRANCH  20  31
ATOM     31  C   UNL     1       7.028   5.347  17.678  0.00  0.00    +0.000 C 
BRANCH  31  33
ATOM     32  C   UNL     1       7.696   7.800  17.531  0.00  0.00    +0.000 C 
ATOM     33  C   UNL     1       7.513   6.594  18.435  0.00  0.00    +0.000 C 
ENDBRANCH  31  33
ENDBRANCH  20  31
BRANCH  20  34
ATOM     34  C   UNL     1       4.835   5.474  16.373  0.00  0.00    +0.000 C 
BRANCH  34  35
ATOM     35  C   UNL     1       5.620   5.407  14.998  0.00  0.00    +0.000 C 
ATOM     36  C   UNL     1       5.883   4.116  14.214  0.00  0.00    +0.000 C 
ENDBRANCH  34  35
ENDBRANCH  20  34
ENDBRANCH   1  22
TORSDOF 6
ENDMDL
MODEL 5
REMARK VINA RESULT:      -8.2      2.709      9.027
REMARK  Name = 
REMARK  9 active torsions:
REMARK  status: ('A' for Active; 'I' for Inactive)
REMARK    1  A    between atoms: C_1  and  C_2
REMARK    2  A    between atoms: C_2  and  C_3
REMARK    3  A    between atoms: C_3  and  C_4
REMARK    4  A    between atoms: C_4  and  C_5
REMARK    5  A    between atoms: C_5  and  C_6
REMARK    6  A    between atoms: C_6  and  C_7
REMARK    7  A    between atoms: C_9  and  N_10
REMARK    8  A    between atoms: N_13  and  C_14
REMARK    9  A    between atoms: N_24  and  C_25
REMARK                            x       y       z     vdW  Elec       q    Type
REMARK                         _______ _______ _______ _____ _____    ______ ____
ROOT
ATOM      1  N   UNL     1       1.014  10.026  19.175  0.00  0.00    +0.000 N 
ATOM      2  C   UNL     1       1.488   8.949  18.441  0.00  0.00    +0.000 C 
ATOM      3  O   UNL     1       1.259   8.797  17.223  0.00  0.00    +0.000 OA
ATOM      4  N   UNL     1       2.205   8.010  19.188  0.00  0.00    +0.000 N 
ATOM      5  H   UNL     1       1.287  10.057  20.149  0.00  0.00    +0.000 HD
ATOM      6  H   UNL     1       1.788   7.856  20.096  0.00  0.00    +0.000 HD
ENDROOT
BRANCH   4   7
ATOM      7  C   UNL     1       2.866   6.867  18.589  0.00  0.00    +0.000 A 
ATOM      8  C   UNL     1       3.874   7.009  17.634  0.00  0.00    +0.000 A 
ATOM      9  C   UNL     1       4.530   5.922  17.054  0.00  0.00    +0.000 A 
ATOM     10  C   UNL     1       4.201   4.630  17.450  0.00  0.00    +0.000 A 
ATOM     11  C   UNL     1       3.244   4.443  18.449  0.00  0.00    +0.000 A 
ATOM     12  C   UNL     1       2.578   5.551  19.029  0.00  0.00    +0.000 A 
ATOM     13  C   UNL     1       1.606   5.316  20.129  0.00  0.00    +0.000 C 
ATOM     14  N   UNL     1       1.219   3.955  20.262  0.00  0.00    +0.000 N 
ATOM     15  C   UNL     1       2.018   2.906  19.932  0.00  0.00    +0.000 C 
ATOM     16  O   UNL     1       1.828   1.832  20.467  0.00  0.00    +0.000 OA
ATOM     17  N   UNL     1       2.944   3.134  18.931  0.00  0.00    +0.000 N 
ATOM     18  C   UNL     1       3.423   1.970  18.201  0.00  0.00    +0.000 C 
ATOM     19  H   UNL     1       0.498   3.709  20.929  0.00  0.00    +0.000 HD
ENDBRANCH   4   7
BRANCH   1  22
ATOM     20  C   UNL     1      -0.615  12.299  20.757  0.00  0.00    +0.000 C 
ATOM     21  C   UNL     1       0.453  12.420  19.611  0.00  0.00    +0.000 C 
ATOM     22  C   UNL     1       0.357  11.269  18.621  0.00  0.00    +0.000 C 
ATOM     23  C   UNL     1      -1.149  11.206  18.268  0.00  0.00    +0.000 A 
ATOM     24  C   UNL     1      -1.625  10.468  17.180  0.00  0.00    +0.000 A 
ATOM     25  C   UNL     1      -3.004  10.375  16.939  0.00  0.00    +0.000 A 
ATOM     26  F   UNL     1      -3.444   9.611  15.932  0.00  0.00    +0.000 F 
ATOM     27  C   UNL     1      -3.949  11.024  17.742  0.00  0.00    +0.000 A 
ATOM     28  C   UNL     1      -3.500  11.824  18.772  0.00  0.00    +0.000 A 
ATOM     29  C   UNL     1      -2.132  11.922  19.028  0.00  0.00    +0.000 A 
ATOM     30  O   UNL     1      -1.846  12.695  20.142  0.00  0.00    +0.000 OA
BRANCH  20  31
ATOM     31  C   UNL     1      -0.218  13.307  21.869  0.00  0.00    +0.000 C 
BRANCH  31  33
ATOM     32  C   UNL     1      -1.675  14.162  23.775  0.00  0.00    +0.000 C 
ATOM     33  C   UNL     1      -1.333  14.274  22.300  0.00  0.00    +0.000 C 
ENDBRANCH  31  33
ENDBRANCH  20  31
BRANCH  20  34
ATOM     34  C   UNL     1      -0.902  10.884  21.440  0.00  0.00    +0.000 C 
BRANCH  34  35
ATOM     35  C   UNL     1      -0.679  10.617  22.986  0.00  0.00    +0.000 C 
ATOM     36  C   UNL     1       0.071   9.408  23.556  0.00  0.00    +0.000 C 
ENDBRANCH  34  35
ENDBRANCH  20  34
ENDBRANCH   1  22
TORSDOF 6
ENDMDL
MODEL 6
REMARK VINA RESULT:      -8.1      1.752      2.387
REMARK  Name = 
REMARK  9 active torsions:
REMARK  status: ('A' for Active; 'I' for Inactive)
REMARK    1  A    between atoms: C_1  and  C_2
REMARK    2  A    between atoms: C_2  and  C_3
REMARK    3  A    between atoms: C_3  and  C_4
REMARK    4  A    between atoms: C_4  and  C_5
REMARK    5  A    between atoms: C_5  and  C_6
REMARK    6  A    between atoms: C_6  and  C_7
REMARK    7  A    between atoms: C_9  and  N_10
REMARK    8  A    between atoms: N_13  and  C_14
REMARK    9  A    between atoms: N_24  and  C_25
REMARK                            x       y       z     vdW  Elec       q    Type
REMARK                         _______ _______ _______ _____ _____    ______ ____
ROOT
ATOM      1  N   UNL     1       3.183   7.168  18.590  0.00  0.00    +0.000 N 
ATOM      2  C   UNL     1       1.982   7.818  18.833  0.00  0.00    +0.000 C 
ATOM      3  O   UNL     1       1.110   7.374  19.609  0.00  0.00    +0.000 OA
ATOM      4  N   UNL     1       1.798   8.991  18.096  0.00  0.00    +0.000 N 
ATOM      5  H   UNL     1       3.824   7.637  17.962  0.00  0.00    +0.000 HD
ATOM      6  H   UNL     1       2.136   8.895  17.148  0.00  0.00    +0.000 HD
ENDROOT
BRANCH   4   7
ATOM      7  C   UNL     1       0.656   9.865  18.280  0.00  0.00    +0.000 A 
ATOM      8  C   UNL     1      -0.574   9.619  17.667  0.00  0.00    +0.000 A 
ATOM      9  C   UNL     1      -1.688  10.441  17.841  0.00  0.00    +0.000 A 
ATOM     10  C   UNL     1      -1.601  11.546  18.681  0.00  0.00    +0.000 A 
ATOM     11  C   UNL     1      -0.411  11.794  19.366  0.00  0.00    +0.000 A 
ATOM     12  C   UNL     1       0.719  10.957  19.180  0.00  0.00    +0.000 A 
ATOM     13  C   UNL     1       1.951  11.220  19.968  0.00  0.00    +0.000 C 
ATOM     14  N   UNL     1       1.959  12.493  20.602  0.00  0.00    +0.000 N 
ATOM     15  C   UNL     1       0.835  13.141  21.009  0.00  0.00    +0.000 C 
ATOM     16  O   UNL     1       0.921  13.958  21.904  0.00  0.00    +0.000 OA
ATOM     17  N   UNL     1      -0.319  12.873  20.295  0.00  0.00    +0.000 N 
ATOM     18  C   UNL     1      -1.363  13.885  20.331  0.00  0.00    +0.000 C 
ATOM     19  H   UNL     1       2.790  12.796  21.093  0.00  0.00    +0.000 HD
ENDBRANCH   4   7
BRANCH   1  22
ATOM     20  C   UNL     1       5.667   5.280  17.822  0.00  0.00    +0.000 C 
ATOM     21  C   UNL     1       5.243   5.896  19.204  0.00  0.00    +0.000 C 
ATOM     22  C   UNL     1       3.731   5.981  19.348  0.00  0.00    +0.000 C 
ATOM     23  C   UNL     1       3.239   4.568  18.951  0.00  0.00    +0.000 A 
ATOM     24  C   UNL     1       1.935   4.136  19.213  0.00  0.00    +0.000 A 
ATOM     25  C   UNL     1       1.507   2.876  18.770  0.00  0.00    +0.000 A 
ATOM     26  F   UNL     1       0.236   2.506  18.973  0.00  0.00    +0.000 F 
ATOM     27  C   UNL     1       2.351   1.998  18.082  0.00  0.00    +0.000 A 
ATOM     28  C   UNL     1       3.665   2.368  17.882  0.00  0.00    +0.000 A 
ATOM     29  C   UNL     1       4.105   3.620  18.312  0.00  0.00    +0.000 A 
ATOM     30  O   UNL     1       5.422   3.876  17.968  0.00  0.00    +0.000 OA
BRANCH  20  31
ATOM     31  C   UNL     1       7.185   5.548  17.642  0.00  0.00    +0.000 C 
BRANCH  31  33
ATOM     32  C   UNL     1       7.724   8.035  17.531  0.00  0.00    +0.000 C 
ATOM     33  C   UNL     1       7.722   6.782  18.387  0.00  0.00    +0.000 C 
ENDBRANCH  31  33
ENDBRANCH  20  31
BRANCH  20  34
ATOM     34  C   UNL     1       4.915   5.719  16.483  0.00  0.00    +0.000 C 
BRANCH  34  35
ATOM     35  C   UNL     1       5.557   5.548  15.045  0.00  0.00    +0.000 C 
ATOM     36  C   UNL     1       5.708   4.207  14.318  0.00  0.00    +0.000 C 
ENDBRANCH  34  35
ENDBRANCH  20  34
ENDBRANCH   1  22
TORSDOF 6
ENDMDL
MODEL 7
REMARK VINA RESULT:      -8.1      2.805      9.213
REMARK  Name = 
REMARK  9 active torsions:
REMARK  status: ('A' for Active; 'I' for Inactive)
REMARK    1  A    between atoms: C_1  and  C_2
REMARK    2  A    between atoms: C_2  and  C_3
REMARK    3  A    between atoms: C_3  and  C_4
REMARK    4  A    between atoms: C_4  and  C_5
REMARK    5  A    between atoms: C_5  and  C_6
REMARK    6  A    between atoms: C_6  and  C_7
REMARK    7  A    between atoms: C_9  and  N_10
REMARK    8  A    between atoms: N_13  and  C_14
REMARK    9  A    between atoms: N_24  and  C_25
REMARK                            x       y       z     vdW  Elec       q    Type
REMARK                         _______ _______ _______ _____ _____    ______ ____
ROOT
ATOM      1  N   UNL     1       1.006   9.947  19.369  0.00  0.00    +0.000 N 
ATOM      2  C   UNL     1       1.517   8.845  18.700  0.00  0.00    +0.000 C 
ATOM      3  O   UNL     1       1.379   8.665  17.472  0.00  0.00    +0.000 OA
ATOM      4  N   UNL     1       2.160   7.915  19.523  0.00  0.00    +0.000 N 
ATOM      5  H   UNL     1       1.204   9.999  20.360  0.00  0.00    +0.000 HD
ATOM      6  H   UNL     1       1.673   7.791  20.399  0.00  0.00    +0.000 HD
ENDROOT
BRANCH   4   7
ATOM      7  C   UNL     1       2.847   6.748  19.004  0.00  0.00    +0.000 A 
ATOM      8  C   UNL     1       3.636   6.802  17.854  0.00  0.00    +0.000 A 
ATOM      9  C   UNL     1       4.314   5.693  17.345  0.00  0.00    +0.000 A 
ATOM     10  C   UNL     1       4.237   4.476  18.013  0.00  0.00    +0.000 A 
ATOM     11  C   UNL     1       3.512   4.391  19.203  0.00  0.00    +0.000 A 
ATOM     12  C   UNL     1       2.822   5.521  19.710  0.00  0.00    +0.000 A 
ATOM     13  C   UNL     1       2.107   5.408  21.009  0.00  0.00    +0.000 C 
ATOM     14  N   UNL     1       1.935   4.066  21.447  0.00  0.00    +0.000 N 
ATOM     15  C   UNL     1       2.793   3.056  21.144  0.00  0.00    +0.000 C 
ATOM     16  O   UNL     1       2.848   2.092  21.880  0.00  0.00    +0.000 OA
ATOM     17  N   UNL     1       3.483   3.177  19.951  0.00  0.00    +0.000 N 
ATOM     18  C   UNL     1       3.971   1.946  19.347  0.00  0.00    +0.000 C 
ATOM     19  H   UNL     1       1.387   3.884  22.278  0.00  0.00    +0.000 HD
ENDBRANCH   4   7
BRANCH   1  22
ATOM     20  C   UNL     1      -0.299  12.501  20.816  0.00  0.00    +0.000 C 
ATOM     21  C   UNL     1       0.681  12.413  19.591  0.00  0.00    +0.000 C 
ATOM     22  C   UNL     1       0.412  11.184  18.736  0.00  0.00    +0.000 C 
ATOM     23  C   UNL     1      -1.117  11.224  18.498  0.00  0.00    +0.000 A 
ATOM     24  C   UNL     1      -1.737  10.429  17.529  0.00  0.00    +0.000 A 
ATOM     25  C   UNL     1      -3.134  10.438  17.397  0.00  0.00    +0.000 A 
ATOM     26  F   UNL     1      -3.714   9.622  16.509  0.00  0.00    +0.000 F 
ATOM     27  C   UNL     1      -3.955  11.245  18.192  0.00  0.00    +0.000 A 
ATOM     28  C   UNL     1      -3.361  12.098  19.099  0.00  0.00    +0.000 A 
ATOM     29  C   UNL     1      -1.974  12.097  19.247  0.00  0.00    +0.000 A 
ATOM     30  O   UNL     1      -1.538  12.946  20.250  0.00  0.00    +0.000 OA
BRANCH  20  31
ATOM     31  C   UNL     1       0.267  13.574  21.786  0.00  0.00    +0.000 C 
BRANCH  31  33
ATOM     32  C   UNL     1       0.015  16.038  21.190  0.00  0.00    +0.000 C 
ATOM     33  C   UNL     1      -0.584  14.847  21.918  0.00  0.00    +0.000 C 
ENDBRANCH  31  33
ENDBRANCH  20  31
BRANCH  20  34
ATOM     34  C   UNL     1      -0.648  11.192  21.661  0.00  0.00    +0.000 C 
BRANCH  34  35
ATOM     35  C   UNL     1      -1.381  11.248  23.065  0.00  0.00    +0.000 C 
ATOM     36  C   UNL     1      -2.716  11.957  23.316  0.00  0.00    +0.000 C 
ENDBRANCH  34  35
ENDBRANCH  20  34
ENDBRANCH   1  22
TORSDOF 6
ENDMDL
MODEL 8
REMARK VINA RESULT:      -8.0      2.664      4.883
REMARK  Name = 
REMARK  9 active torsions:
REMARK  status: ('A' for Active; 'I' for Inactive)
REMARK    1  A    between atoms: C_1  and  C_2
REMARK    2  A    between atoms: C_2  and  C_3
REMARK    3  A    between atoms: C_3  and  C_4
REMARK    4  A    between atoms: C_4  and  C_5
REMARK    5  A    between atoms: C_5  and  C_6
REMARK    6  A    between atoms: C_6  and  C_7
REMARK    7  A    between atoms: C_9  and  N_10
REMARK    8  A    between atoms: N_13  and  C_14
REMARK    9  A    between atoms: N_24  and  C_25
REMARK                            x       y       z     vdW  Elec       q    Type
REMARK                         _______ _______ _______ _____ _____    ______ ____
ROOT
ATOM      1  N   UNL     1       2.900   7.028  18.450  0.00  0.00    +0.000 N 
ATOM      2  C   UNL     1       2.147   8.166  18.206  0.00  0.00    +0.000 C 
ATOM      3  O   UNL     1       2.255   8.846  17.164  0.00  0.00    +0.000 OA
ATOM      4  N   UNL     1       1.289   8.528  19.248  0.00  0.00    +0.000 N 
ATOM      5  H   UNL     1       2.706   6.543  19.318  0.00  0.00    +0.000 HD
ATOM      6  H   UNL     1       1.720   8.394  20.152  0.00  0.00    +0.000 HD
ENDROOT
BRANCH   4   7
ATOM      7  C   UNL     1       0.349   9.627  19.147  0.00  0.00    +0.000 A 
ATOM      8  C   UNL     1      -0.183  10.039  17.924  0.00  0.00    +0.000 A 
ATOM      9  C   UNL     1      -1.098  11.087  17.807  0.00  0.00    +0.000 A 
ATOM     10  C   UNL     1      -1.535  11.747  18.950  0.00  0.00    +0.000 A 
ATOM     11  C   UNL     1      -1.079  11.327  20.200  0.00  0.00    +0.000 A 
ATOM     12  C   UNL     1      -0.146  10.265  20.311  0.00  0.00    +0.000 A 
ATOM     13  C   UNL     1       0.273   9.809  21.662  0.00  0.00    +0.000 C 
ATOM     14  N   UNL     1      -0.080  10.713  22.701  0.00  0.00    +0.000 N 
ATOM     15  C   UNL     1      -1.163  11.533  22.653  0.00  0.00    +0.000 C 
ATOM     16  O   UNL     1      -1.650  11.923  23.695  0.00  0.00    +0.000 OA
ATOM     17  N   UNL     1      -1.572  11.933  21.394  0.00  0.00    +0.000 N 
ATOM     18  C   UNL     1      -2.336  13.169  21.313  0.00  0.00    +0.000 C 
ATOM     19  H   UNL     1       0.236  10.529  23.645  0.00  0.00    +0.000 HD
ENDBRANCH   4   7
BRANCH   1  22
ATOM     20  C   UNL     1       3.977   4.002  18.567  0.00  0.00    +0.000 C 
ATOM     21  C   UNL     1       3.402   4.835  17.364  0.00  0.00    +0.000 C 
ATOM     22  C   UNL     1       3.782   6.305  17.459  0.00  0.00    +0.000 C 
ATOM     23  C   UNL     1       5.308   6.279  17.719  0.00  0.00    +0.000 A 
ATOM     24  C   UNL     1       6.101   7.424  17.593  0.00  0.00    +0.000 A 
ATOM     25  C   UNL     1       7.466   7.375  17.911  0.00  0.00    +0.000 A 
ATOM     26  F   UNL     1       8.196   8.496  17.847  0.00  0.00    +0.000 F 
ATOM     27  C   UNL     1       8.094   6.199  18.335  0.00  0.00    +0.000 A 
ATOM     28  C   UNL     1       7.351   5.038  18.389  0.00  0.00    +0.000 A 
ATOM     29  C   UNL     1       5.990   5.071  18.081  0.00  0.00    +0.000 A 
ATOM     30  O   UNL     1       5.367   3.847  18.261  0.00  0.00    +0.000 OA
BRANCH  20  31
ATOM     31  C   UNL     1       3.264   2.623  18.558  0.00  0.00    +0.000 C 
BRANCH  31  33
ATOM     32  C   UNL     1       0.737   2.335  18.708  0.00  0.00    +0.000 C 
ATOM     33  C   UNL     1       1.927   2.586  17.799  0.00  0.00    +0.000 C 
ENDBRANCH  31  33
ENDBRANCH  20  31
BRANCH  20  34
ATOM     34  C   UNL     1       3.918   4.590  20.051  0.00  0.00    +0.000 C 
BRANCH  34  35
ATOM     35  C   UNL     1       2.600   4.564  20.931  0.00  0.00    +0.000 C 
ATOM     36  C   UNL     1       2.171   3.387  21.813  0.00  0.00    +0.000 C 
ENDBRANCH  34  35
ENDBRANCH  20  34
ENDBRANCH   1  22
TORSDOF 6
ENDMDL
MODEL 9
REMARK VINA RESULT:      -7.9      2.785      4.942
REMARK  Name = 
REMARK  9 active torsions:
REMARK  status: ('A' for Active; 'I' for Inactive)
REMARK    1  A    between atoms: C_1  and  C_2
REMARK    2  A    between atoms: C_2  and  C_3
REMARK    3  A    between atoms: C_3  and  C_4
REMARK    4  A    between atoms: C_4  and  C_5
REMARK    5  A    between atoms: C_5  and  C_6
REMARK    6  A    between atoms: C_6  and  C_7
REMARK    7  A    between atoms: C_9  and  N_10
REMARK    8  A    between atoms: N_13  and  C_14
REMARK    9  A    between atoms: N_24  and  C_25
REMARK                            x       y       z     vdW  Elec       q    Type
REMARK                         _______ _______ _______ _____ _____    ______ ____
ROOT
ATOM      1  N   UNL     1       2.727   7.084  18.251  0.00  0.00    +0.000 N 
ATOM      2  C   UNL     1       2.086   8.281  17.966  0.00  0.00    +0.000 C 
ATOM      3  O   UNL     1       2.367   8.989  16.977  0.00  0.00    +0.000 OA
ATOM      4  N   UNL     1       1.130   8.664  18.911  0.00  0.00    +0.000 N 
ATOM      5  H   UNL     1       2.396   6.584  19.066  0.00  0.00    +0.000 HD
ATOM      6  H   UNL     1       1.435   8.468  19.854  0.00  0.00    +0.000 HD
ENDROOT
BRANCH   4   7
ATOM      7  C   UNL     1       0.283   9.829  18.745  0.00  0.00    +0.000 A 
ATOM      8  C   UNL     1      -0.784   9.849  17.846  0.00  0.00    +0.000 A 
ATOM      9  C   UNL     1      -1.618  10.956  17.679  0.00  0.00    +0.000 A 
ATOM     10  C   UNL     1      -1.412  12.093  18.454  0.00  0.00    +0.000 A 
ATOM     11  C   UNL     1      -0.397  12.095  19.412  0.00  0.00    +0.000 A 
ATOM     12  C   UNL     1       0.449  10.968  19.571  0.00  0.00    +0.000 A 
ATOM     13  C   UNL     1       1.482  10.985  20.639  0.00  0.00    +0.000 C 
ATOM     14  N   UNL     1       1.713  12.278  21.185  0.00  0.00    +0.000 N 
ATOM     15  C   UNL     1       0.765  13.251  21.250  0.00  0.00    +0.000 C 
ATOM     16  O   UNL     1       0.873  14.119  22.092  0.00  0.00    +0.000 OA
ATOM     17  N   UNL     1      -0.215  13.216  20.274  0.00  0.00    +0.000 N 
ATOM     18  C   UNL     1      -0.896  14.468  19.983  0.00  0.00    +0.000 C 
ATOM     19  H   UNL     1       2.457  12.405  21.859  0.00  0.00    +0.000 HD
ENDBRANCH   4   7
BRANCH   1  22
ATOM     20  C   UNL     1       3.956   4.140  18.631  0.00  0.00    +0.000 C 
ATOM     21  C   UNL     1       3.377   4.846  17.352  0.00  0.00    +0.000 C 
ATOM     22  C   UNL     1       3.677   6.338  17.343  0.00  0.00    +0.000 C 
ATOM     23  C   UNL     1       5.193   6.415  17.647  0.00  0.00    +0.000 A 
ATOM     24  C   UNL     1       5.929   7.588  17.455  0.00  0.00    +0.000 A 
ATOM     25  C   UNL     1       7.284   7.638  17.814  0.00  0.00    +0.000 A 
ATOM     26  F   UNL     1       7.955   8.789  17.684  0.00  0.00    +0.000 F 
ATOM     27  C   UNL     1       7.958   6.534  18.345  0.00  0.00    +0.000 A 
ATOM     28  C   UNL     1       7.275   5.342  18.468  0.00  0.00    +0.000 A 
ATOM     29  C   UNL     1       5.925   5.277  18.121  0.00  0.00    +0.000 A 
ATOM     30  O   UNL     1       5.362   4.038  18.377  0.00  0.00    +0.000 OA
BRANCH  20  31
ATOM     31  C   UNL     1       3.317   2.727  18.709  0.00  0.00    +0.000 C 
BRANCH  31  33
ATOM     32  C   UNL     1       0.789   2.417  18.671  0.00  0.00    +0.000 C 
ATOM     33  C   UNL     1       2.058   2.533  17.846  0.00  0.00    +0.000 C 
ENDBRANCH  31  33
ENDBRANCH  20  31
BRANCH  20  34
ATOM     34  C   UNL     1       3.819   4.834  20.063  0.00  0.00    +0.000 C 
BRANCH  34  35
ATOM     35  C   UNL     1       2.505   4.731  20.943  0.00  0.00    +0.000 C 
ATOM     36  C   UNL     1       2.132   3.518  21.802  0.00  0.00    +0.000 C 
ENDBRANCH  34  35
ENDBRANCH  20  34
ENDBRANCH   1  22
TORSDOF 6
ENDMDL
