MODEL 1
REMARK VINA RESULT:      -7.6      0.000      0.000
REMARK  Name = 
REMARK  4 active torsions:
REMARK  status: ('A' for Active; 'I' for Inactive)
REMARK    1  A    between atoms: O_1  and  C_2
REMARK    2  A    between atoms: C_2  and  C_3
REMARK    3  A    between atoms: C_2  and  C_9
REMARK    4  A    between atoms: C_3  and  N_4
REMARK                            x       y       z     vdW  Elec       q    Type
REMARK                         _______ _______ _______ _____ _____    ______ ____
ROOT
ATOM      1  C   UNL     1       4.309   5.223  16.749  0.00  0.00    +0.000 A 
ATOM      2  C   UNL     1       3.924   6.225  17.651  0.00  0.00    +0.000 A 
ATOM      3  C   UNL     1       3.011   5.966  18.676  0.00  0.00    +0.000 A 
ATOM      4  C   UNL     1       2.487   4.682  18.856  0.00  0.00    +0.000 A 
ATOM      5  C   UNL     1       1.566   4.411  19.880  0.00  0.00    +0.000 A 
ATOM      6  C   UNL     1       1.060   3.124  20.057  0.00  0.00    +0.000 A 
ATOM      7  C   UNL     1       1.469   2.095  19.213  0.00  0.00    +0.000 A 
ATOM      8  C   UNL     1       2.380   2.353  18.188  0.00  0.00    +0.000 A 
ATOM      9  C   UNL     1       2.897   3.643  17.994  0.00  0.00    +0.000 A 
ATOM     10  C   UNL     1       3.804   3.927  16.957  0.00  0.00    +0.000 A 
ENDROOT
BRANCH   1  11
ATOM     11  C   UNL     1       5.279   5.502  15.611  0.00  0.00    +0.000 C 
BRANCH  11  12
ATOM     12  O   UNL     1       5.226   6.886  15.237  0.00  0.00    +0.000 OA
ATOM     13  H   UNL     1       4.517   6.999  14.583  0.00  0.00    +0.000 HD
ENDBRANCH  11  12
BRANCH  11  14
ATOM     14  C   UNL     1       6.746   5.087  15.860  0.00  0.00    +0.000 C 
BRANCH  14  15
ATOM     15  N   UNL     1       7.281   5.485  17.150  0.00  0.00    +0.000 N 
ATOM     16  C   UNL     1       7.526   6.764  17.569  0.00  0.00    +0.000 A 
ATOM     17  C   UNL     1       8.005   6.630  18.850  0.00  0.00    +0.000 A 
ATOM     18  N   UNL     1       8.019   5.314  19.230  0.00  0.00    +0.000 NA
ATOM     19  C   UNL     1       7.590   4.648  18.181  0.00  0.00    +0.000 A 
ENDBRANCH  14  15
ENDBRANCH  11  14
ENDBRANCH   1  11
TORSDOF 4
ENDMDL
MODEL 2
REMARK VINA RESULT:      -7.4      0.665      1.845
REMARK  Name = 
REMARK  4 active torsions:
REMARK  status: ('A' for Active; 'I' for Inactive)
REMARK    1  A    between atoms: O_1  and  C_2
REMARK    2  A    between atoms: C_2  and  C_3
REMARK    3  A    between atoms: C_2  and  C_9
REMARK    4  A    between atoms: C_3  and  N_4
REMARK                            x       y       z     vdW  Elec       q    Type
REMARK                         _______ _______ _______ _____ _____    ______ ____
ROOT
ATOM      1  C   UNL     1       4.437   4.965  16.600  0.00  0.00    +0.000 A 
ATOM      2  C   UNL     1       4.086   3.611  16.700  0.00  0.00    +0.000 A 
ATOM      3  C   UNL     1       3.268   3.149  17.733  0.00  0.00    +0.000 A 
ATOM      4  C   UNL     1       2.739   4.036  18.675  0.00  0.00    +0.000 A 
ATOM      5  C   UNL     1       1.919   3.583  19.720  0.00  0.00    +0.000 A 
ATOM      6  C   UNL     1       1.387   4.481  20.645  0.00  0.00    +0.000 A 
ATOM      7  C   UNL     1       1.670   5.839  20.537  0.00  0.00    +0.000 A 
ATOM      8  C   UNL     1       2.488   6.302  19.506  0.00  0.00    +0.000 A 
ATOM      9  C   UNL     1       3.034   5.412  18.567  0.00  0.00    +0.000 A 
ATOM     10  C   UNL     1       3.874   5.857  17.530  0.00  0.00    +0.000 A 
ENDROOT
BRANCH   1  11
ATOM     11  C   UNL     1       5.352   5.473  15.496  0.00  0.00    +0.000 C 
BRANCH  11  12
ATOM     12  O   UNL     1       5.112   6.866  15.250  0.00  0.00    +0.000 OA
ATOM     13  H   UNL     1       5.277   7.354  16.072  0.00  0.00    +0.000 HD
ENDBRANCH  11  12
BRANCH  11  14
ATOM     14  C   UNL     1       6.863   5.236  15.711  0.00  0.00    +0.000 C 
BRANCH  14  15
ATOM     15  N   UNL     1       7.340   5.527  17.051  0.00  0.00    +0.000 N 
ATOM     16  C   UNL     1       7.524   6.768  17.597  0.00  0.00    +0.000 A 
ATOM     17  C   UNL     1       7.965   6.528  18.876  0.00  0.00    +0.000 A 
ATOM     18  N   UNL     1       8.015   5.183  19.131  0.00  0.00    +0.000 NA
ATOM     19  C   UNL     1       7.645   4.606  18.009  0.00  0.00    +0.000 A 
ENDBRANCH  14  15
ENDBRANCH  11  14
ENDBRANCH   1  11
TORSDOF 4
ENDMDL
MODEL 3
REMARK VINA RESULT:      -7.1      1.976      3.085
REMARK  Name = 
REMARK  4 active torsions:
REMARK  status: ('A' for Active; 'I' for Inactive)
REMARK    1  A    between atoms: O_1  and  C_2
REMARK    2  A    between atoms: C_2  and  C_3
REMARK    3  A    between atoms: C_2  and  C_9
REMARK    4  A    between atoms: C_3  and  N_4
REMARK                            x       y       z     vdW  Elec       q    Type
REMARK                         _______ _______ _______ _____ _____    ______ ____
ROOT
ATOM      1  C   UNL     1       4.447   5.469  16.993  0.00  0.00    +0.000 A 
ATOM      2  C   UNL     1       3.967   6.370  17.954  0.00  0.00    +0.000 A 
ATOM      3  C   UNL     1       2.947   6.012  18.838  0.00  0.00    +0.000 A 
ATOM      4  C   UNL     1       2.405   4.723  18.817  0.00  0.00    +0.000 A 
ATOM      5  C   UNL     1       1.377   4.354  19.698  0.00  0.00    +0.000 A 
ATOM      6  C   UNL     1       0.854   3.062  19.676  0.00  0.00    +0.000 A 
ATOM      7  C   UNL     1       1.351   2.126  18.773  0.00  0.00    +0.000 A 
ATOM      8  C   UNL     1       2.370   2.483  17.888  0.00  0.00    +0.000 A 
ATOM      9  C   UNL     1       2.906   3.780  17.895  0.00  0.00    +0.000 A 
ATOM     10  C   UNL     1       3.921   4.164  17.000  0.00  0.00    +0.000 A 
ENDROOT
BRANCH   1  11
ATOM     11  C   UNL     1       5.537   5.858  16.006  0.00  0.00    +0.000 C 
BRANCH  11  12
ATOM     12  O   UNL     1       6.218   7.038  16.454  0.00  0.00    +0.000 OA
ATOM     13  H   UNL     1       6.426   7.584  15.678  0.00  0.00    +0.000 HD
ENDBRANCH  11  12
BRANCH  11  14
ATOM     14  C   UNL     1       6.567   4.758  15.671  0.00  0.00    +0.000 C 
BRANCH  14  15
ATOM     15  N   UNL     1       6.703   4.460  14.256  0.00  0.00    +0.000 N 
ATOM     16  C   UNL     1       5.958   3.563  13.540  0.00  0.00    +0.000 A 
ATOM     17  C   UNL     1       6.442   3.651  12.256  0.00  0.00    +0.000 A 
ATOM     18  N   UNL     1       7.426   4.599  12.169  0.00  0.00    +0.000 NA
ATOM     19  C   UNL     1       7.570   5.060  13.392  0.00  0.00    +0.000 A 
ENDBRANCH  14  15
ENDBRANCH  11  14
ENDBRANCH   1  11
TORSDOF 4
ENDMDL
MODEL 4
REMARK VINA RESULT:      -7.1      2.618      4.145
REMARK  Name = 
REMARK  4 active torsions:
REMARK  status: ('A' for Active; 'I' for Inactive)
REMARK    1  A    between atoms: O_1  and  C_2
REMARK    2  A    between atoms: C_2  and  C_3
REMARK    3  A    between atoms: C_2  and  C_9
REMARK    4  A    between atoms: C_3  and  N_4
REMARK                            x       y       z     vdW  Elec       q    Type
REMARK                         _______ _______ _______ _____ _____    ______ ____
ROOT
ATOM      1  C   UNL     1       4.029   5.218  18.752  0.00  0.00    +0.000 A 
ATOM      2  C   UNL     1       3.346   5.065  19.967  0.00  0.00    +0.000 A 
ATOM      3  C   UNL     1       2.468   6.046  20.434  0.00  0.00    +0.000 A 
ATOM      4  C   UNL     1       2.212   7.193  19.676  0.00  0.00    +0.000 A 
ATOM      5  C   UNL     1       1.335   8.187  20.137  0.00  0.00    +0.000 A 
ATOM      6  C   UNL     1       1.079   9.320  19.366  0.00  0.00    +0.000 A 
ATOM      7  C   UNL     1       1.697   9.473  18.128  0.00  0.00    +0.000 A 
ATOM      8  C   UNL     1       2.576   8.494  17.661  0.00  0.00    +0.000 A 
ATOM      9  C   UNL     1       2.847   7.348  18.426  0.00  0.00    +0.000 A 
ATOM     10  C   UNL     1       3.741   6.359  17.980  0.00  0.00    +0.000 A 
ENDROOT
BRANCH   1  11
ATOM     11  C   UNL     1       5.010   4.170  18.249  0.00  0.00    +0.000 C 
BRANCH  11  12
ATOM     12  O   UNL     1       5.013   3.031  19.121  0.00  0.00    +0.000 OA
ATOM     13  H   UNL     1       5.655   2.386  18.778  0.00  0.00    +0.000 HD
ENDBRANCH  11  12
BRANCH  11  14
ATOM     14  C   UNL     1       4.812   3.708  16.789  0.00  0.00    +0.000 C 
BRANCH  14  15
ATOM     15  N   UNL     1       5.798   4.214  15.851  0.00  0.00    +0.000 N 
ATOM     16  C   UNL     1       5.726   4.156  14.486  0.00  0.00    +0.000 A 
ATOM     17  C   UNL     1       6.872   4.775  14.047  0.00  0.00    +0.000 A 
ATOM     18  N   UNL     1       7.612   5.239  15.102  0.00  0.00    +0.000 NA
ATOM     19  C   UNL     1       6.946   4.875  16.176  0.00  0.00    +0.000 A 
ENDBRANCH  14  15
ENDBRANCH  11  14
ENDBRANCH   1  11
TORSDOF 4
ENDMDL
MODEL 5
REMARK VINA RESULT:      -7.1      2.272      3.217
REMARK  Name = 
REMARK  4 active torsions:
REMARK  status: ('A' for Active; 'I' for Inactive)
REMARK    1  A    between atoms: O_1  and  C_2
REMARK    2  A    between atoms: C_2  and  C_3
REMARK    3  A    between atoms: C_2  and  C_9
REMARK    4  A    between atoms: C_3  and  N_4
REMARK                            x       y       z     vdW  Elec       q    Type
REMARK                         _______ _______ _______ _____ _____    ______ ____
ROOT
ATOM      1  C   UNL     1       4.999   4.553  17.592  0.00  0.00    +0.000 A 
ATOM      2  C   UNL     1       4.967   5.462  18.660  0.00  0.00    +0.000 A 
ATOM      3  C   UNL     1       3.900   5.485  19.560  0.00  0.00    +0.000 A 
ATOM      4  C   UNL     1       2.850   4.569  19.445  0.00  0.00    +0.000 A 
ATOM      5  C   UNL     1       1.770   4.586  20.342  0.00  0.00    +0.000 A 
ATOM      6  C   UNL     1       0.736   3.658  20.224  0.00  0.00    +0.000 A 
ATOM      7  C   UNL     1       0.769   2.706  19.210  0.00  0.00    +0.000 A 
ATOM      8  C   UNL     1       1.835   2.682  18.309  0.00  0.00    +0.000 A 
ATOM      9  C   UNL     1       2.883   3.610  18.411  0.00  0.00    +0.000 A 
ATOM     10  C   UNL     1       3.957   3.613  17.503  0.00  0.00    +0.000 A 
ENDROOT
BRANCH   1  11
ATOM     11  C   UNL     1       6.142   4.539  16.589  0.00  0.00    +0.000 C 
BRANCH  11  12
ATOM     12  O   UNL     1       7.377   4.213  17.242  0.00  0.00    +0.000 OA
ATOM     13  H   UNL     1       7.623   4.955  17.818  0.00  0.00    +0.000 HD
ENDBRANCH  11  12
BRANCH  11  14
ATOM     14  C   UNL     1       5.948   3.626  15.359  0.00  0.00    +0.000 C 
BRANCH  14  15
ATOM     15  N   UNL     1       6.562   4.113  14.136  0.00  0.00    +0.000 N 
ATOM     16  C   UNL     1       6.372   3.613  12.876  0.00  0.00    +0.000 A 
ATOM     17  C   UNL     1       7.144   4.407  12.063  0.00  0.00    +0.000 A 
ATOM     18  N   UNL     1       7.761   5.393  12.786  0.00  0.00    +0.000 NA
ATOM     19  C   UNL     1       7.402   5.182  14.033  0.00  0.00    +0.000 A 
ENDBRANCH  14  15
ENDBRANCH  11  14
ENDBRANCH   1  11
TORSDOF 4
ENDMDL
MODEL 6
REMARK VINA RESULT:      -7.0      2.085      3.575
REMARK  Name = 
REMARK  4 active torsions:
REMARK  status: ('A' for Active; 'I' for Inactive)
REMARK    1  A    between atoms: O_1  and  C_2
REMARK    2  A    between atoms: C_2  and  C_3
REMARK    3  A    between atoms: C_2  and  C_9
REMARK    4  A    between atoms: C_3  and  N_4
REMARK                            x       y       z     vdW  Elec       q    Type
REMARK                         _______ _______ _______ _____ _____    ______ ____
ROOT
ATOM      1  C   UNL     1       4.634   5.148  16.884  0.00  0.00    +0.000 A 
ATOM      2  C   UNL     1       4.210   3.831  16.660  0.00  0.00    +0.000 A 
ATOM      3  C   UNL     1       3.262   3.224  17.488  0.00  0.00    +0.000 A 
ATOM      4  C   UNL     1       2.676   3.933  18.541  0.00  0.00    +0.000 A 
ATOM      5  C   UNL     1       1.726   3.333  19.381  0.00  0.00    +0.000 A 
ATOM      6  C   UNL     1       1.140   4.055  20.419  0.00  0.00    +0.000 A 
ATOM      7  C   UNL     1       1.497   5.383  20.630  0.00  0.00    +0.000 A 
ATOM      8  C   UNL     1       2.445   5.991  19.805  0.00  0.00    +0.000 A 
ATOM      9  C   UNL     1       3.047   5.277  18.756  0.00  0.00    +0.000 A 
ATOM     10  C   UNL     1       4.016   5.866  17.924  0.00  0.00    +0.000 A 
ENDROOT
BRANCH   1  11
ATOM     11  C   UNL     1       5.687   5.808  16.008  0.00  0.00    +0.000 C 
BRANCH  11  12
ATOM     12  O   UNL     1       6.190   6.994  16.638  0.00  0.00    +0.000 OA
ATOM     13  H   UNL     1       6.293   6.816  17.587  0.00  0.00    +0.000 HD
ENDBRANCH  11  12
BRANCH  11  14
ATOM     14  C   UNL     1       6.867   4.908  15.578  0.00  0.00    +0.000 C 
BRANCH  14  15
ATOM     15  N   UNL     1       6.873   4.543  14.172  0.00  0.00    +0.000 N 
ATOM     16  C   UNL     1       6.069   3.613  13.570  0.00  0.00    +0.000 A 
ATOM     17  C   UNL     1       6.433   3.639  12.245  0.00  0.00    +0.000 A 
ATOM     18  N   UNL     1       7.402   4.581  12.023  0.00  0.00    +0.000 NA
ATOM     19  C   UNL     1       7.655   5.099  13.204  0.00  0.00    +0.000 A 
ENDBRANCH  14  15
ENDBRANCH  11  14
ENDBRANCH   1  11
TORSDOF 4
ENDMDL
MODEL 7
REMARK VINA RESULT:      -7.0      1.990      2.924
REMARK  Name = 
REMARK  4 active torsions:
REMARK  status: ('A' for Active; 'I' for Inactive)
REMARK    1  A    between atoms: O_1  and  C_2
REMARK    2  A    between atoms: C_2  and  C_3
REMARK    3  A    between atoms: C_2  and  C_9
REMARK    4  A    between atoms: C_3  and  N_4
REMARK                            x       y       z     vdW  Elec       q    Type
REMARK                         _______ _______ _______ _____ _____    ______ ____
ROOT
ATOM      1  C   UNL     1       5.265   5.156  18.791  0.00  0.00    +0.000 A 
ATOM      2  C   UNL     1       4.284   5.912  18.133  0.00  0.00    +0.000 A 
ATOM      3  C   UNL     1       2.927   5.606  18.259  0.00  0.00    +0.000 A 
ATOM      4  C   UNL     1       2.506   4.559  19.085  0.00  0.00    +0.000 A 
ATOM      5  C   UNL     1       1.145   4.240  19.217  0.00  0.00    +0.000 A 
ATOM      6  C   UNL     1       0.738   3.202  20.054  0.00  0.00    +0.000 A 
ATOM      7  C   UNL     1       1.684   2.472  20.767  0.00  0.00    +0.000 A 
ATOM      8  C   UNL     1       3.041   2.776  20.640  0.00  0.00    +0.000 A 
ATOM      9  C   UNL     1       3.469   3.816  19.800  0.00  0.00    +0.000 A 
ATOM     10  C   UNL     1       4.832   4.127  19.646  0.00  0.00    +0.000 A 
ENDROOT
BRANCH   1  11
ATOM     11  C   UNL     1       6.746   5.462  18.636  0.00  0.00    +0.000 C 
BRANCH  11  12
ATOM     12  O   UNL     1       7.390   5.479  19.918  0.00  0.00    +0.000 OA
ATOM     13  H   UNL     1       8.307   5.773  19.795  0.00  0.00    +0.000 HD
ENDBRANCH  11  12
BRANCH  11  14
ATOM     14  C   UNL     1       7.528   4.540  17.674  0.00  0.00    +0.000 C 
BRANCH  14  15
ATOM     15  N   UNL     1       7.041   4.536  16.306  0.00  0.00    +0.000 N 
ATOM     16  C   UNL     1       6.132   3.665  15.769  0.00  0.00    +0.000 A 
ATOM     17  C   UNL     1       5.983   4.072  14.465  0.00  0.00    +0.000 A 
ATOM     18  N   UNL     1       6.743   5.183  14.210  0.00  0.00    +0.000 NA
ATOM     19  C   UNL     1       7.378   5.430  15.334  0.00  0.00    +0.000 A 
ENDBRANCH  14  15
ENDBRANCH  11  14
ENDBRANCH   1  11
TORSDOF 4
ENDMDL
MODEL 8
REMARK VINA RESULT:      -6.9      2.873      5.583
REMARK  Name = 
REMARK  4 active torsions:
REMARK  status: ('A' for Active; 'I' for Inactive)
REMARK    1  A    between atoms: O_1  and  C_2
REMARK    2  A    between atoms: C_2  and  C_3
REMARK    3  A    between atoms: C_2  and  C_9
REMARK    4  A    between atoms: C_3  and  N_4
REMARK                            x       y       z     vdW  Elec       q    Type
REMARK                         _______ _______ _______ _____ _____    ______ ____
ROOT
ATOM      1  C   UNL     1       4.331   3.466  17.576  0.00  0.00    +0.000 A 
ATOM      2  C   UNL     1       4.130   4.269  16.444  0.00  0.00    +0.000 A 
ATOM      3  C   UNL     1       4.882   5.426  16.233  0.00  0.00    +0.000 A 
ATOM      4  C   UNL     1       5.893   5.793  17.127  0.00  0.00    +0.000 A 
ATOM      5  C   UNL     1       6.653   6.955  16.927  0.00  0.00    +0.000 A 
ATOM      6  C   UNL     1       7.666   7.303  17.819  0.00  0.00    +0.000 A 
ATOM      7  C   UNL     1       7.929   6.495  18.921  0.00  0.00    +0.000 A 
ATOM      8  C   UNL     1       7.177   5.339  19.134  0.00  0.00    +0.000 A 
ATOM      9  C   UNL     1       6.151   4.975  18.247  0.00  0.00    +0.000 A 
ATOM     10  C   UNL     1       5.372   3.823  18.454  0.00  0.00    +0.000 A 
ENDROOT
BRANCH   1  11
ATOM     11  C   UNL     1       3.497   2.220  17.831  0.00  0.00    +0.000 C 
BRANCH  11  12
ATOM     12  O   UNL     1       4.233   1.279  18.625  0.00  0.00    +0.000 OA
ATOM     13  H   UNL     1       5.181   1.419  18.463  0.00  0.00    +0.000 HD
ENDBRANCH  11  12
BRANCH  11  14
ATOM     14  C   UNL     1       2.107   2.458  18.463  0.00  0.00    +0.000 C 
BRANCH  14  15
ATOM     15  N   UNL     1       2.129   3.158  19.735  0.00  0.00    +0.000 N 
ATOM     16  C   UNL     1       2.025   4.510  19.920  0.00  0.00    +0.000 A 
ATOM     17  C   UNL     1       2.078   4.684  21.282  0.00  0.00    +0.000 A 
ATOM     18  N   UNL     1       2.170   3.477  21.925  0.00  0.00    +0.000 NA
ATOM     19  C   UNL     1       2.211   2.579  20.966  0.00  0.00    +0.000 A 
ENDBRANCH  14  15
ENDBRANCH  11  14
ENDBRANCH   1  11
TORSDOF 4
ENDMDL
MODEL 9
REMARK VINA RESULT:      -6.8      2.515      4.087
REMARK  Name = 
REMARK  4 active torsions:
REMARK  status: ('A' for Active; 'I' for Inactive)
REMARK    1  A    between atoms: O_1  and  C_2
REMARK    2  A    between atoms: C_2  and  C_3
REMARK    3  A    between atoms: C_2  and  C_9
REMARK    4  A    between atoms: C_3  and  N_4
REMARK                            x       y       z     vdW  Elec       q    Type
REMARK                         _______ _______ _______ _____ _____    ______ ____
ROOT
ATOM      1  C   UNL     1       2.909   5.080  18.824  0.00  0.00    +0.000 A 
ATOM      2  C   UNL     1       2.404   5.135  20.131  0.00  0.00    +0.000 A 
ATOM      3  C   UNL     1       1.862   6.314  20.649  0.00  0.00    +0.000 A 
ATOM      4  C   UNL     1       1.769   7.464  19.859  0.00  0.00    +0.000 A 
ATOM      5  C   UNL     1       1.229   8.654  20.370  0.00  0.00    +0.000 A 
ATOM      6  C   UNL     1       1.130   9.790  19.568  0.00  0.00    +0.000 A 
ATOM      7  C   UNL     1       1.569   9.749  18.248  0.00  0.00    +0.000 A 
ATOM      8  C   UNL     1       2.112   8.572  17.729  0.00  0.00    +0.000 A 
ATOM      9  C   UNL     1       2.222   7.420  18.524  0.00  0.00    +0.000 A 
ATOM     10  C   UNL     1       2.781   6.230  18.025  0.00  0.00    +0.000 A 
ENDROOT
BRANCH   1  11
ATOM     11  C   UNL     1       3.529   3.810  18.260  0.00  0.00    +0.000 C 
BRANCH  11  12
ATOM     12  O   UNL     1       2.549   2.766  18.187  0.00  0.00    +0.000 OA
ATOM     13  H   UNL     1       2.902   2.054  17.628  0.00  0.00    +0.000 HD
ENDBRANCH  11  12
BRANCH  11  14
ATOM     14  C   UNL     1       4.237   3.955  16.896  0.00  0.00    +0.000 C 
BRANCH  14  15
ATOM     15  N   UNL     1       5.659   4.242  16.975  0.00  0.00    +0.000 N 
ATOM     16  C   UNL     1       6.371   4.510  18.112  0.00  0.00    +0.000 A 
ATOM     17  C   UNL     1       7.664   4.694  17.681  0.00  0.00    +0.000 A 
ATOM     18  N   UNL     1       7.759   4.507  16.328  0.00  0.00    +0.000 NA
ATOM     19  C   UNL     1       6.533   4.249  15.929  0.00  0.00    +0.000 A 
ENDBRANCH  14  15
ENDBRANCH  11  14
ENDBRANCH   1  11
TORSDOF 4
ENDMDL
