MODEL 1
REMARK VINA RESULT:      -7.0      0.000      0.000
REMARK  Name = 
REMARK  5 active torsions:
REMARK  status: ('A' for Active; 'I' for Inactive)
REMARK    1  A    between atoms: C_1  and  C_2
REMARK    2  A    between atoms: N_16  and  C_17
REMARK    3  A    between atoms: C_29  and  C_30
REMARK    4  A    between atoms: C_31  and  C_32
REMARK    5  A    between atoms: C_31  and  C_33
REMARK                            x       y       z     vdW  Elec       q    Type
REMARK                         _______ _______ _______ _____ _____    ______ ____
ROOT
ATOM      1  C   UNL     1      -7.450  12.642  21.698  0.00  0.00    +0.000 C 
ATOM      2  C   UNL     1      -6.028  12.842  21.287  0.00  0.00    +0.000 C 
ATOM      3  O   UNL     1      -5.793  13.166  20.123  0.00  0.00    +0.000 OA
ATOM      4  N   UNL     1      -5.040  12.773  22.263  0.00  0.00    +0.000 N 
ATOM      5  C   UNL     1      -5.099  12.472  23.684  0.00  0.00    +0.000 C 
ATOM      6  C   UNL     1      -3.814  13.103  24.289  0.00  0.00    +0.000 C 
ATOM      7  C   UNL     1      -3.332  14.152  23.204  0.00  0.00    +0.000 C 
ATOM      8  C   UNL     1      -4.027  15.458  23.664  0.00  0.00    +0.000 A 
ATOM      9  C   UNL     1      -5.406  15.706  23.534  0.00  0.00    +0.000 A 
ATOM     10  C   UNL     1      -6.010  16.829  24.115  0.00  0.00    +0.000 A 
ATOM     11  C   UNL     1      -5.257  17.735  24.846  0.00  0.00    +0.000 A 
ATOM     12  C   UNL     1      -3.899  17.502  25.010  0.00  0.00    +0.000 A 
ATOM     13  C   UNL     1      -3.279  16.390  24.412  0.00  0.00    +0.000 A 
ATOM     14  N   UNL     1      -1.908  16.196  24.633  0.00  0.00    +0.000 N 
ATOM     15  C   UNL     1      -1.187  15.654  23.506  0.00  0.00    +0.000 C 
ATOM     16  N   UNL     1      -0.893  16.704  22.479  0.00  0.00    +0.000 N 
ATOM     17  C   UNL     1      -1.989  17.605  22.042  0.00  0.00    +0.000 C 
ATOM     18  C   UNL     1      -0.650  15.878  21.339  0.00  0.00    +0.000 A 
ATOM     19  C   UNL     1       0.113  16.239  20.240  0.00  0.00    +0.000 A 
ATOM     20  C   UNL     1       0.194  15.360  19.163  0.00  0.00    +0.000 A 
ATOM     21  C   UNL     1      -0.574  14.194  19.142  0.00  0.00    +0.000 A 
ATOM     22  C   UNL     1      -1.400  13.856  20.227  0.00  0.00    +0.000 A 
ATOM     23  C   UNL     1      -1.346  14.677  21.380  0.00  0.00    +0.000 A 
ATOM     24  C   UNL     1      -1.812  14.390  22.848  0.00  0.00    +0.000 C 
ATOM     25  C   UNL     1      -1.086  13.074  23.158  0.00  0.00    +0.000 C 
ATOM     26  C   UNL     1      -1.700  11.951  22.275  0.00  0.00    +0.000 C 
ATOM     27  N   UNL     1      -2.897  12.299  21.443  0.00  0.00    +0.000 NA
ATOM     28  C   UNL     1      -3.794  13.397  21.953  0.00  0.00    +0.000 C 
ATOM     29  C   UNL     1      -2.471  12.767  20.111  0.00  0.00    +0.000 C 
ATOM     30  H   UNL     1      -1.450  17.057  24.917  0.00  0.00    +0.000 HD
ENDROOT
BRANCH  29  31
ATOM     31  C   UNL     1      -2.452  11.842  18.905  0.00  0.00    +0.000 C 
ATOM     32  C   UNL     1      -1.709  10.826  18.419  0.00  0.00    +0.000 C 
ATOM     33  C   UNL     1      -0.373  10.340  18.885  0.00  0.00    +0.000 C 
ATOM     34  C   UNL     1      -2.311   9.969  17.318  0.00  0.00    +0.000 C 
ENDBRANCH  29  31
TORSDOF 1
ENDMDL
MODEL 2
REMARK VINA RESULT:      -6.7      1.958      2.925
REMARK  Name = 
REMARK  5 active torsions:
REMARK  status: ('A' for Active; 'I' for Inactive)
REMARK    1  A    between atoms: C_1  and  C_2
REMARK    2  A    between atoms: N_16  and  C_17
REMARK    3  A    between atoms: C_29  and  C_30
REMARK    4  A    between atoms: C_31  and  C_32
REMARK    5  A    between atoms: C_31  and  C_33
REMARK                            x       y       z     vdW  Elec       q    Type
REMARK                         _______ _______ _______ _____ _____    ______ ____
ROOT
ATOM      1  C   UNL     1      -6.451  11.908  18.928  0.00  0.00    +0.000 C 
ATOM      2  C   UNL     1      -5.285  12.307  19.771  0.00  0.00    +0.000 C 
ATOM      3  O   UNL     1      -4.220  12.570  19.213  0.00  0.00    +0.000 OA
ATOM      4  N   UNL     1      -5.483  12.481  21.137  0.00  0.00    +0.000 N 
ATOM      5  C   UNL     1      -6.652  12.291  21.980  0.00  0.00    +0.000 C 
ATOM      6  C   UNL     1      -6.398  13.173  23.234  0.00  0.00    +0.000 C 
ATOM      7  C   UNL     1      -5.275  14.196  22.787  0.00  0.00    +0.000 C 
ATOM      8  C   UNL     1      -6.100  15.402  22.273  0.00  0.00    +0.000 A 
ATOM      9  C   UNL     1      -6.821  15.407  21.064  0.00  0.00    +0.000 A 
ATOM     10  C   UNL     1      -7.684  16.458  20.726  0.00  0.00    +0.000 A 
ATOM     11  C   UNL     1      -7.856  17.532  21.586  0.00  0.00    +0.000 A 
ATOM     12  C   UNL     1      -7.176  17.541  22.795  0.00  0.00    +0.000 A 
ATOM     13  C   UNL     1      -6.290  16.502  23.134  0.00  0.00    +0.000 A 
ATOM     14  N   UNL     1      -5.649  16.556  24.379  0.00  0.00    +0.000 N 
ATOM     15  C   UNL     1      -4.296  16.051  24.383  0.00  0.00    +0.000 C 
ATOM     16  N   UNL     1      -3.331  17.049  23.821  0.00  0.00    +0.000 N 
ATOM     17  C   UNL     1      -3.659  17.717  22.538  0.00  0.00    +0.000 C 
ATOM     18  C   UNL     1      -2.242  16.185  23.493  0.00  0.00    +0.000 A 
ATOM     19  C   UNL     1      -0.918  16.577  23.382  0.00  0.00    +0.000 A 
ATOM     20  C   UNL     1       0.027  15.639  22.972  0.00  0.00    +0.000 A 
ATOM     21  C   UNL     1      -0.372  14.364  22.566  0.00  0.00    +0.000 A 
ATOM     22  C   UNL     1      -1.724  13.983  22.613  0.00  0.00    +0.000 A 
ATOM     23  C   UNL     1      -2.647  14.892  23.185  0.00  0.00    +0.000 A 
ATOM     24  C   UNL     1      -4.095  14.652  23.733  0.00  0.00    +0.000 C 
ATOM     25  C   UNL     1      -3.871  13.504  24.725  0.00  0.00    +0.000 C 
ATOM     26  C   UNL     1      -3.486  12.227  23.925  0.00  0.00    +0.000 C 
ATOM     27  N   UNL     1      -3.537  12.304  22.430  0.00  0.00    +0.000 NA
ATOM     28  C   UNL     1      -4.516  13.276  21.823  0.00  0.00    +0.000 C 
ATOM     29  C   UNL     1      -2.228  12.727  21.898  0.00  0.00    +0.000 C 
ATOM     30  H   UNL     1      -5.634  17.501  24.752  0.00  0.00    +0.000 HD
ENDROOT
BRANCH  29  31
ATOM     31  C   UNL     1      -1.216  11.723  21.371  0.00  0.00    +0.000 C 
ATOM     32  C   UNL     1      -0.590  10.602  21.786  0.00  0.00    +0.000 C 
ATOM     33  C   UNL     1      -0.549  10.010  23.160  0.00  0.00    +0.000 C 
ATOM     34  C   UNL     1       0.092   9.739  20.738  0.00  0.00    +0.000 C 
ENDBRANCH  29  31
TORSDOF 1
ENDMDL
MODEL 3
REMARK VINA RESULT:      -6.6      1.576      2.528
REMARK  Name = 
REMARK  5 active torsions:
REMARK  status: ('A' for Active; 'I' for Inactive)
REMARK    1  A    between atoms: C_1  and  C_2
REMARK    2  A    between atoms: N_16  and  C_17
REMARK    3  A    between atoms: C_29  and  C_30
REMARK    4  A    between atoms: C_31  and  C_32
REMARK    5  A    between atoms: C_31  and  C_33
REMARK                            x       y       z     vdW  Elec       q    Type
REMARK                         _______ _______ _______ _____ _____    ______ ____
ROOT
ATOM      1  C   UNL     1      -7.138  12.122  19.410  0.00  0.00    +0.000 C 
ATOM      2  C   UNL     1      -5.845  12.457  20.079  0.00  0.00    +0.000 C 
ATOM      3  O   UNL     1      -4.864  12.698  19.375  0.00  0.00    +0.000 OA
ATOM      4  N   UNL     1      -5.833  12.602  21.462  0.00  0.00    +0.000 N 
ATOM      5  C   UNL     1      -6.870  12.431  22.465  0.00  0.00    +0.000 C 
ATOM      6  C   UNL     1      -6.401  13.269  23.686  0.00  0.00    +0.000 C 
ATOM      7  C   UNL     1      -5.317  14.264  23.099  0.00  0.00    +0.000 C 
ATOM      8  C   UNL     1      -6.162  15.511  22.738  0.00  0.00    +0.000 A 
ATOM      9  C   UNL     1      -7.053  15.574  21.651  0.00  0.00    +0.000 A 
ATOM     10  C   UNL     1      -7.915  16.663  21.467  0.00  0.00    +0.000 A 
ATOM     11  C   UNL     1      -7.916  17.719  22.365  0.00  0.00    +0.000 A 
ATOM     12  C   UNL     1      -7.066  17.672  23.460  0.00  0.00    +0.000 A 
ATOM     13  C   UNL     1      -6.180  16.594  23.641  0.00  0.00    +0.000 A 
ATOM     14  N   UNL     1      -5.361  16.592  24.778  0.00  0.00    +0.000 N 
ATOM     15  C   UNL     1      -4.043  16.041  24.571  0.00  0.00    +0.000 C 
ATOM     16  N   UNL     1      -3.134  17.019  23.893  0.00  0.00    +0.000 N 
ATOM     17  C   UNL     1      -3.621  17.732  22.687  0.00  0.00    +0.000 C 
ATOM     18  C   UNL     1      -2.139  16.126  23.388  0.00  0.00    +0.000 A 
ATOM     19  C   UNL     1      -0.831  16.474  23.091  0.00  0.00    +0.000 A 
ATOM     20  C   UNL     1       0.006  15.515  22.525  0.00  0.00    +0.000 A 
ATOM     21  C   UNL     1      -0.498  14.266  22.156  0.00  0.00    +0.000 A 
ATOM     22  C   UNL     1      -1.842  13.932  22.396  0.00  0.00    +0.000 A 
ATOM     23  C   UNL     1      -2.635  14.857  23.117  0.00  0.00    +0.000 A 
ATOM     24  C   UNL     1      -3.994  14.653  23.868  0.00  0.00    +0.000 C 
ATOM     25  C   UNL     1      -3.670  13.472  24.792  0.00  0.00    +0.000 C 
ATOM     26  C   UNL     1      -3.457  12.204  23.917  0.00  0.00    +0.000 C 
ATOM     27  N   UNL     1      -3.725  12.322  22.448  0.00  0.00    +0.000 NA
ATOM     28  C   UNL     1      -4.745  13.344  22.014  0.00  0.00    +0.000 C 
ATOM     29  C   UNL     1      -2.494  12.713  21.737  0.00  0.00    +0.000 C 
ATOM     30  H   UNL     1      -5.255  17.527  25.164  0.00  0.00    +0.000 HD
ENDROOT
BRANCH  29  31
ATOM     31  C   UNL     1      -1.610  11.689  21.044  0.00  0.00    +0.000 C 
ATOM     32  C   UNL     1      -1.092  11.461  19.819  0.00  0.00    +0.000 C 
ATOM     33  C   UNL     1      -1.419  12.139  18.526  0.00  0.00    +0.000 C 
ATOM     34  C   UNL     1       0.049  10.463  19.705  0.00  0.00    +0.000 C 
ENDBRANCH  29  31
TORSDOF 1
ENDMDL
MODEL 4
REMARK VINA RESULT:      -6.5      2.537      4.348
REMARK  Name = 
REMARK  5 active torsions:
REMARK  status: ('A' for Active; 'I' for Inactive)
REMARK    1  A    between atoms: C_1  and  C_2
REMARK    2  A    between atoms: N_16  and  C_17
REMARK    3  A    between atoms: C_29  and  C_30
REMARK    4  A    between atoms: C_31  and  C_32
REMARK    5  A    between atoms: C_31  and  C_33
REMARK                            x       y       z     vdW  Elec       q    Type
REMARK                         _______ _______ _______ _____ _____    ______ ____
ROOT
ATOM      1  C   UNL     1      -5.405  11.380  17.910  0.00  0.00    +0.000 C 
ATOM      2  C   UNL     1      -4.831  11.950  19.164  0.00  0.00    +0.000 C 
ATOM      3  O   UNL     1      -3.608  12.060  19.254  0.00  0.00    +0.000 OA
ATOM      4  N   UNL     1      -5.703  12.444  20.128  0.00  0.00    +0.000 N 
ATOM      5  C   UNL     1      -7.155  12.475  20.199  0.00  0.00    +0.000 C 
ATOM      6  C   UNL     1      -7.491  13.624  21.190  0.00  0.00    +0.000 C 
ATOM      7  C   UNL     1      -6.171  14.497  21.257  0.00  0.00    +0.000 C 
ATOM      8  C   UNL     1      -6.410  15.559  20.155  0.00  0.00    +0.000 A 
ATOM      9  C   UNL     1      -6.361  15.289  18.775  0.00  0.00    +0.000 A 
ATOM     10  C   UNL     1      -6.749  16.242  17.824  0.00  0.00    +0.000 A 
ATOM     11  C   UNL     1      -7.200  17.491  18.223  0.00  0.00    +0.000 A 
ATOM     12  C   UNL     1      -7.282  17.776  19.578  0.00  0.00    +0.000 A 
ATOM     13  C   UNL     1      -6.874  16.833  20.540  0.00  0.00    +0.000 A 
ATOM     14  N   UNL     1      -7.001  17.171  21.895  0.00  0.00    +0.000 N 
ATOM     15  C   UNL     1      -5.950  16.663  22.744  0.00  0.00    +0.000 C 
ATOM     16  N   UNL     1      -4.703  17.486  22.635  0.00  0.00    +0.000 N 
ATOM     17  C   UNL     1      -4.193  17.837  21.288  0.00  0.00    +0.000 C 
ATOM     18  C   UNL     1      -3.744  16.554  23.137  0.00  0.00    +0.000 A 
ATOM     19  C   UNL     1      -2.527  16.890  23.707  0.00  0.00    +0.000 A 
ATOM     20  C   UNL     1      -1.655  15.869  24.076  0.00  0.00    +0.000 A 
ATOM     21  C   UNL     1      -1.950  14.540  23.766  0.00  0.00    +0.000 A 
ATOM     22  C   UNL     1      -3.155  14.200  23.127  0.00  0.00    +0.000 A 
ATOM     23  C   UNL     1      -4.100  15.231  22.906  0.00  0.00    +0.000 A 
ATOM     24  C   UNL     1      -5.633  15.146  22.592  0.00  0.00    +0.000 C 
ATOM     25  C   UNL     1      -6.142  14.262  23.738  0.00  0.00    +0.000 C 
ATOM     26  C   UNL     1      -5.574  12.827  23.544  0.00  0.00    +0.000 C 
ATOM     27  N   UNL     1      -4.803  12.550  22.289  0.00  0.00    +0.000 NA
ATOM     28  C   UNL     1      -5.154  13.365  21.071  0.00  0.00    +0.000 C 
ATOM     29  C   UNL     1      -3.369  12.817  22.504  0.00  0.00    +0.000 C 
ATOM     30  H   UNL     1      -7.055  18.177  22.026  0.00  0.00    +0.000 HD
ENDROOT
BRANCH  29  31
ATOM     31  C   UNL     1      -2.386  11.703  22.828  0.00  0.00    +0.000 C 
ATOM     32  C   UNL     1      -1.239  11.190  22.338  0.00  0.00    +0.000 C 
ATOM     33  C   UNL     1      -0.570  11.479  21.031  0.00  0.00    +0.000 C 
ATOM     34  C   UNL     1      -0.429  10.273  23.239  0.00  0.00    +0.000 C 
ENDBRANCH  29  31
TORSDOF 1
ENDMDL
MODEL 5
REMARK VINA RESULT:      -6.3      0.823      1.082
REMARK  Name = 
REMARK  5 active torsions:
REMARK  status: ('A' for Active; 'I' for Inactive)
REMARK    1  A    between atoms: C_1  and  C_2
REMARK    2  A    between atoms: N_16  and  C_17
REMARK    3  A    between atoms: C_29  and  C_30
REMARK    4  A    between atoms: C_31  and  C_32
REMARK    5  A    between atoms: C_31  and  C_33
REMARK                            x       y       z     vdW  Elec       q    Type
REMARK                         _______ _______ _______ _____ _____    ______ ____
ROOT
ATOM      1  C   UNL     1      -7.450  13.420  21.482  0.00  0.00    +0.000 C 
ATOM      2  C   UNL     1      -6.003  13.395  21.115  0.00  0.00    +0.000 C 
ATOM      3  O   UNL     1      -5.674  13.781  19.994  0.00  0.00    +0.000 OA
ATOM      4  N   UNL     1      -5.077  13.051  22.094  0.00  0.00    +0.000 N 
ATOM      5  C   UNL     1      -5.237  12.630  23.476  0.00  0.00    +0.000 C 
ATOM      6  C   UNL     1      -3.879  12.952  24.161  0.00  0.00    +0.000 C 
ATOM      7  C   UNL     1      -3.179  13.995  23.195  0.00  0.00    +0.000 C 
ATOM      8  C   UNL     1      -3.641  15.355  23.774  0.00  0.00    +0.000 A 
ATOM      9  C   UNL     1      -4.947  15.864  23.650  0.00  0.00    +0.000 A 
ATOM     10  C   UNL     1      -5.356  17.017  24.333  0.00  0.00    +0.000 A 
ATOM     11  C   UNL     1      -4.475  17.694  25.163  0.00  0.00    +0.000 A 
ATOM     12  C   UNL     1      -3.188  17.201  25.323  0.00  0.00    +0.000 A 
ATOM     13  C   UNL     1      -2.761  16.057  24.624  0.00  0.00    +0.000 A 
ATOM     14  N   UNL     1      -1.456  15.594  24.845  0.00  0.00    +0.000 N 
ATOM     15  C   UNL     1      -0.808  15.041  23.679  0.00  0.00    +0.000 C 
ATOM     16  N   UNL     1      -0.295  16.114  22.769  0.00  0.00    +0.000 N 
ATOM     17  C   UNL     1      -1.194  17.238  22.409  0.00  0.00    +0.000 C 
ATOM     18  C   UNL     1      -0.168  15.371  21.555  0.00  0.00    +0.000 A 
ATOM     19  C   UNL     1       0.683  15.690  20.510  0.00  0.00    +0.000 A 
ATOM     20  C   UNL     1       0.640  14.920  19.350  0.00  0.00    +0.000 A 
ATOM     21  C   UNL     1      -0.326  13.922  19.200  0.00  0.00    +0.000 A 
ATOM     22  C   UNL     1      -1.235  13.638  20.233  0.00  0.00    +0.000 A 
ATOM     23  C   UNL     1      -1.072  14.320  21.463  0.00  0.00    +0.000 A 
ATOM     24  C   UNL     1      -1.630  13.982  22.888  0.00  0.00    +0.000 C 
ATOM     25  C   UNL     1      -1.166  12.532  23.074  0.00  0.00    +0.000 C 
ATOM     26  C   UNL     1      -1.944  11.632  22.072  0.00  0.00    +0.000 C 
ATOM     27  N   UNL     1      -3.029  12.273  21.262  0.00  0.00    +0.000 NA
ATOM     28  C   UNL     1      -3.729  13.462  21.867  0.00  0.00    +0.000 C 
ATOM     29  C   UNL     1      -2.481  12.782  19.991  0.00  0.00    +0.000 C 
ATOM     30  H   UNL     1      -0.859  16.325  25.221  0.00  0.00    +0.000 HD
ENDROOT
BRANCH  29  31
ATOM     31  C   UNL     1      -2.591  11.990  18.697  0.00  0.00    +0.000 C 
ATOM     32  C   UNL     1      -3.543  11.383  17.959  0.00  0.00    +0.000 C 
ATOM     33  C   UNL     1      -4.966  11.097  18.323  0.00  0.00    +0.000 C 
ATOM     34  C   UNL     1      -3.202  11.013  16.525  0.00  0.00    +0.000 C 
ENDBRANCH  29  31
TORSDOF 1
ENDMDL
MODEL 6
REMARK VINA RESULT:      -6.3     10.034     13.294
REMARK  Name = 
REMARK  5 active torsions:
REMARK  status: ('A' for Active; 'I' for Inactive)
REMARK    1  A    between atoms: C_1  and  C_2
REMARK    2  A    between atoms: N_16  and  C_17
REMARK    3  A    between atoms: C_29  and  C_30
REMARK    4  A    between atoms: C_31  and  C_32
REMARK    5  A    between atoms: C_31  and  C_33
REMARK                            x       y       z     vdW  Elec       q    Type
REMARK                         _______ _______ _______ _____ _____    ______ ____
ROOT
ATOM      1  C   UNL     1       9.629  10.800  18.593  0.00  0.00    +0.000 C 
ATOM      2  C   UNL     1       9.392  11.755  19.716  0.00  0.00    +0.000 C 
ATOM      3  O   UNL     1       9.935  11.535  20.799  0.00  0.00    +0.000 OA
ATOM      4  N   UNL     1       8.669  12.915  19.458  0.00  0.00    +0.000 N 
ATOM      5  C   UNL     1       8.004  13.398  18.259  0.00  0.00    +0.000 C 
ATOM      6  C   UNL     1       7.894  14.937  18.445  0.00  0.00    +0.000 C 
ATOM      7  C   UNL     1       8.955  15.283  19.568  0.00  0.00    +0.000 C 
ATOM      8  C   UNL     1      10.226  15.610  18.743  0.00  0.00    +0.000 A 
ATOM      9  C   UNL     1      11.001  14.646  18.073  0.00  0.00    +0.000 A 
ATOM     10  C   UNL     1      12.040  15.009  17.206  0.00  0.00    +0.000 A 
ATOM     11  C   UNL     1      12.333  16.345  16.980  0.00  0.00    +0.000 A 
ATOM     12  C   UNL     1      11.569  17.317  17.609  0.00  0.00    +0.000 A 
ATOM     13  C   UNL     1      10.538  16.963  18.498  0.00  0.00    +0.000 A 
ATOM     14  N   UNL     1       9.787  17.989  19.086  0.00  0.00    +0.000 N 
ATOM     15  C   UNL     1       9.376  17.733  20.446  0.00  0.00    +0.000 C 
ATOM     16  N   UNL     1      10.493  17.968  21.416  0.00  0.00    +0.000 N 
ATOM     17  C   UNL     1      11.825  17.381  21.130  0.00  0.00    +0.000 C 
ATOM     18  C   UNL     1      10.016  17.216  22.533  0.00  0.00    +0.000 A 
ATOM     19  C   UNL     1      10.373  17.435  23.853  0.00  0.00    +0.000 A 
ATOM     20  C   UNL     1       9.892  16.567  24.831  0.00  0.00    +0.000 A 
ATOM     21  C   UNL     1       9.164  15.431  24.471  0.00  0.00    +0.000 A 
ATOM     22  C   UNL     1       8.856  15.169  23.126  0.00  0.00    +0.000 A 
ATOM     23  C   UNL     1       9.212  16.145  22.164  0.00  0.00    +0.000 A 
ATOM     24  C   UNL     1       8.698  16.355  20.699  0.00  0.00    +0.000 C 
ATOM     25  C   UNL     1       7.179  16.410  20.902  0.00  0.00    +0.000 C 
ATOM     26  C   UNL     1       6.688  15.002  21.342  0.00  0.00    +0.000 C 
ATOM     27  N   UNL     1       7.691  13.889  21.352  0.00  0.00    +0.000 NA
ATOM     28  C   UNL     1       8.840  13.990  20.382  0.00  0.00    +0.000 C 
ATOM     29  C   UNL     1       8.338  13.800  22.674  0.00  0.00    +0.000 C 
ATOM     30  H   UNL     1      10.285  18.875  19.068  0.00  0.00    +0.000 HD
ENDROOT
BRANCH  29  31
ATOM     31  C   UNL     1       7.879  12.803  23.725  0.00  0.00    +0.000 C 
ATOM     32  C   UNL     1       6.854  12.639  24.586  0.00  0.00    +0.000 C 
ATOM     33  C   UNL     1       5.786  13.616  24.964  0.00  0.00    +0.000 C 
ATOM     34  C   UNL     1       6.656  11.263  25.202  0.00  0.00    +0.000 C 
ENDBRANCH  29  31
TORSDOF 1
ENDMDL
MODEL 7
REMARK VINA RESULT:      -6.2      2.233      3.207
REMARK  Name = 
REMARK  5 active torsions:
REMARK  status: ('A' for Active; 'I' for Inactive)
REMARK    1  A    between atoms: C_1  and  C_2
REMARK    2  A    between atoms: N_16  and  C_17
REMARK    3  A    between atoms: C_29  and  C_30
REMARK    4  A    between atoms: C_31  and  C_32
REMARK    5  A    between atoms: C_31  and  C_33
REMARK                            x       y       z     vdW  Elec       q    Type
REMARK                         _______ _______ _______ _____ _____    ______ ____
ROOT
ATOM      1  C   UNL     1      -5.542  11.389  17.924  0.00  0.00    +0.000 C 
ATOM      2  C   UNL     1      -4.491  11.873  18.868  0.00  0.00    +0.000 C 
ATOM      3  O   UNL     1      -3.343  12.016  18.446  0.00  0.00    +0.000 OA
ATOM      4  N   UNL     1      -4.875  12.256  20.148  0.00  0.00    +0.000 N 
ATOM      5  C   UNL     1      -6.162  12.231  20.823  0.00  0.00    +0.000 C 
ATOM      6  C   UNL     1      -6.046  13.283  21.962  0.00  0.00    +0.000 C 
ATOM      7  C   UNL     1      -4.817  14.191  21.548  0.00  0.00    +0.000 C 
ATOM      8  C   UNL     1      -5.493  15.331  20.747  0.00  0.00    +0.000 A 
ATOM      9  C   UNL     1      -6.030  15.178  19.455  0.00  0.00    +0.000 A 
ATOM     10  C   UNL     1      -6.778  16.193  18.843  0.00  0.00    +0.000 A 
ATOM     11  C   UNL     1      -7.015  17.389  19.504  0.00  0.00    +0.000 A 
ATOM     12  C   UNL     1      -6.518  17.558  20.788  0.00  0.00    +0.000 A 
ATOM     13  C   UNL     1      -5.747  16.554  21.403  0.00  0.00    +0.000 A 
ATOM     14  N   UNL     1      -5.291  16.774  22.710  0.00  0.00    +0.000 N 
ATOM     15  C   UNL     1      -3.983  16.233  22.991  0.00  0.00    +0.000 C 
ATOM     16  N   UNL     1      -2.894  17.105  22.444  0.00  0.00    +0.000 N 
ATOM     17  C   UNL     1      -2.996  17.583  21.043  0.00  0.00    +0.000 C 
ATOM     18  C   UNL     1      -1.817  16.167  22.412  0.00  0.00    +0.000 A 
ATOM     19  C   UNL     1      -0.471  16.496  22.447  0.00  0.00    +0.000 A 
ATOM     20  C   UNL     1       0.471  15.479  22.324  0.00  0.00    +0.000 A 
ATOM     21  C   UNL     1       0.068  14.170  22.049  0.00  0.00    +0.000 A 
ATOM     22  C   UNL     1      -1.295  13.843  21.946  0.00  0.00    +0.000 A 
ATOM     23  C   UNL     1      -2.242  14.856  22.235  0.00  0.00    +0.000 A 
ATOM     24  C   UNL     1      -3.764  14.746  22.586  0.00  0.00    +0.000 C 
ATOM     25  C   UNL     1      -3.748  13.754  23.755  0.00  0.00    +0.000 C 
ATOM     26  C   UNL     1      -3.320  12.360  23.214  0.00  0.00    +0.000 C 
ATOM     27  N   UNL     1      -3.150  12.213  21.733  0.00  0.00    +0.000 NA
ATOM     28  C   UNL     1      -3.977  13.114  20.852  0.00  0.00    +0.000 C 
ATOM     29  C   UNL     1      -1.757  12.510  21.350  0.00  0.00    +0.000 C 
ATOM     30  H   UNL     1      -5.281  17.763  22.941  0.00  0.00    +0.000 HD
ENDROOT
BRANCH  29  31
ATOM     31  C   UNL     1      -0.734  11.407  21.132  0.00  0.00    +0.000 C 
ATOM     32  C   UNL     1      -0.272  10.312  21.772  0.00  0.00    +0.000 C 
ATOM     33  C   UNL     1      -0.528   9.877  23.180  0.00  0.00    +0.000 C 
ATOM     34  C   UNL     1       0.533   9.306  20.967  0.00  0.00    +0.000 C 
ENDBRANCH  29  31
TORSDOF 1
ENDMDL
MODEL 8
REMARK VINA RESULT:      -6.2      2.142      6.381
REMARK  Name = 
REMARK  5 active torsions:
REMARK  status: ('A' for Active; 'I' for Inactive)
REMARK    1  A    between atoms: C_1  and  C_2
REMARK    2  A    between atoms: N_16  and  C_17
REMARK    3  A    between atoms: C_29  and  C_30
REMARK    4  A    between atoms: C_31  and  C_32
REMARK    5  A    between atoms: C_31  and  C_33
REMARK                            x       y       z     vdW  Elec       q    Type
REMARK                         _______ _______ _______ _____ _____    ______ ____
ROOT
ATOM      1  C   UNL     1      -0.627  18.447  21.211  0.00  0.00    +0.000 C 
ATOM      2  C   UNL     1      -1.583  17.307  21.083  0.00  0.00    +0.000 C 
ATOM      3  O   UNL     1      -2.575  17.449  20.369  0.00  0.00    +0.000 OA
ATOM      4  N   UNL     1      -1.251  16.094  21.678  0.00  0.00    +0.000 N 
ATOM      5  C   UNL     1      -0.120  15.692  22.498  0.00  0.00    +0.000 C 
ATOM      6  C   UNL     1      -0.042  14.147  22.356  0.00  0.00    +0.000 C 
ATOM      7  C   UNL     1      -0.879  13.819  21.053  0.00  0.00    +0.000 C 
ATOM      8  C   UNL     1       0.201  13.841  19.942  0.00  0.00    +0.000 A 
ATOM      9  C   UNL     1       0.812  15.012  19.458  0.00  0.00    +0.000 A 
ATOM     10  C   UNL     1       1.898  14.965  18.575  0.00  0.00    +0.000 A 
ATOM     11  C   UNL     1       2.410  13.748  18.152  0.00  0.00    +0.000 A 
ATOM     12  C   UNL     1       1.843  12.576  18.633  0.00  0.00    +0.000 A 
ATOM     13  C   UNL     1       0.737  12.613  19.502  0.00  0.00    +0.000 A 
ATOM     14  N   UNL     1       0.222  11.397  19.972  0.00  0.00    +0.000 N 
ATOM     15  C   UNL     1      -1.213  11.372  20.131  0.00  0.00    +0.000 C 
ATOM     16  N   UNL     1      -1.913  11.185  18.820  0.00  0.00    +0.000 N 
ATOM     17  C   UNL     1      -1.508  12.025  17.667  0.00  0.00    +0.000 C 
ATOM     18  C   UNL     1      -3.213  11.668  19.161  0.00  0.00    +0.000 A 
ATOM     19  C   UNL     1      -4.389  11.316  18.518  0.00  0.00    +0.000 A 
ATOM     20  C   UNL     1      -5.576  11.932  18.907  0.00  0.00    +0.000 A 
ATOM     21  C   UNL     1      -5.561  12.970  19.841  0.00  0.00    +0.000 A 
ATOM     22  C   UNL     1      -4.361  13.376  20.448  0.00  0.00    +0.000 A 
ATOM     23  C   UNL     1      -3.190  12.631  20.162  0.00  0.00    +0.000 A 
ATOM     24  C   UNL     1      -1.825  12.561  20.927  0.00  0.00    +0.000 C 
ATOM     25  C   UNL     1      -2.278  12.219  22.352  0.00  0.00    +0.000 C 
ATOM     26  C   UNL     1      -3.045  13.441  22.933  0.00  0.00    +0.000 C 
ATOM     27  N   UNL     1      -3.079  14.693  22.111  0.00  0.00    +0.000 NA
ATOM     28  C   UNL     1      -1.921  14.937  21.178  0.00  0.00    +0.000 C 
ATOM     29  C   UNL     1      -4.261  14.690  21.228  0.00  0.00    +0.000 C 
ATOM     30  H   UNL     1       0.487  10.621  19.370  0.00  0.00    +0.000 HD
ENDROOT
BRANCH  29  31
ATOM     31  C   UNL     1      -5.539  15.425  21.599  0.00  0.00    +0.000 C 
ATOM     32  C   UNL     1      -6.491  15.384  22.554  0.00  0.00    +0.000 C 
ATOM     33  C   UNL     1      -6.722  14.336  23.598  0.00  0.00    +0.000 C 
ATOM     34  C   UNL     1      -7.409  16.587  22.694  0.00  0.00    +0.000 C 
ENDBRANCH  29  31
TORSDOF 1
ENDMDL
MODEL 9
REMARK VINA RESULT:      -6.1      2.201      2.821
REMARK  Name = 
REMARK  5 active torsions:
REMARK  status: ('A' for Active; 'I' for Inactive)
REMARK    1  A    between atoms: C_1  and  C_2
REMARK    2  A    between atoms: N_16  and  C_17
REMARK    3  A    between atoms: C_29  and  C_30
REMARK    4  A    between atoms: C_31  and  C_32
REMARK    5  A    between atoms: C_31  and  C_33
REMARK                            x       y       z     vdW  Elec       q    Type
REMARK                         _______ _______ _______ _____ _____    ______ ____
ROOT
ATOM      1  C   UNL     1      -6.610  11.131  18.313  0.00  0.00    +0.000 C 
ATOM      2  C   UNL     1      -5.276  11.666  18.718  0.00  0.00    +0.000 C 
ATOM      3  O   UNL     1      -4.380  11.711  17.875  0.00  0.00    +0.000 OA
ATOM      4  N   UNL     1      -5.137  12.204  19.993  0.00  0.00    +0.000 N 
ATOM      5  C   UNL     1      -6.064  12.312  21.108  0.00  0.00    +0.000 C 
ATOM      6  C   UNL     1      -5.518  13.474  21.982  0.00  0.00    +0.000 C 
ATOM      7  C   UNL     1      -4.544  14.275  21.025  0.00  0.00    +0.000 C 
ATOM      8  C   UNL     1      -5.477  15.351  20.415  0.00  0.00    +0.000 A 
ATOM      9  C   UNL     1      -6.470  15.083  19.456  0.00  0.00    +0.000 A 
ATOM     10  C   UNL     1      -7.396  16.058  19.061  0.00  0.00    +0.000 A 
ATOM     11  C   UNL     1      -7.360  17.328  19.616  0.00  0.00    +0.000 A 
ATOM     12  C   UNL     1      -6.406  17.613  20.583  0.00  0.00    +0.000 A 
ATOM     13  C   UNL     1      -5.458  16.648  20.969  0.00  0.00    +0.000 A 
ATOM     14  N   UNL     1      -4.534  16.988  21.966  0.00  0.00    +0.000 N 
ATOM     15  C   UNL     1      -3.218  16.423  21.786  0.00  0.00    +0.000 C 
ATOM     16  N   UNL     1      -2.425  17.179  20.766  0.00  0.00    +0.000 N 
ATOM     17  C   UNL     1      -3.058  17.506  19.465  0.00  0.00    +0.000 C 
ATOM     18  C   UNL     1      -1.442  16.195  20.434  0.00  0.00    +0.000 A 
ATOM     19  C   UNL     1      -0.188  16.465  19.913  0.00  0.00    +0.000 A 
ATOM     20  C   UNL     1       0.635  15.398  19.559  0.00  0.00    +0.000 A 
ATOM     21  C   UNL     1       0.156  14.087  19.617  0.00  0.00    +0.000 A 
ATOM     22  C   UNL     1      -1.141  13.813  20.082  0.00  0.00    +0.000 A 
ATOM     23  C   UNL     1      -1.903  14.894  20.589  0.00  0.00    +0.000 A 
ATOM     24  C   UNL     1      -3.173  14.892  21.507  0.00  0.00    +0.000 C 
ATOM     25  C   UNL     1      -2.707  14.033  22.690  0.00  0.00    +0.000 C 
ATOM     26  C   UNL     1      -2.520  12.571  22.195  0.00  0.00    +0.000 C 
ATOM     27  N   UNL     1      -2.934  12.256  20.790  0.00  0.00    +0.000 NA
ATOM     28  C   UNL     1      -4.037  13.091  20.193  0.00  0.00    +0.000 C 
ATOM     29  C   UNL     1      -1.796  12.446  19.871  0.00  0.00    +0.000 C 
ATOM     30  H   UNL     1      -4.435  17.996  22.057  0.00  0.00    +0.000 HD
ENDROOT
BRANCH  29  31
ATOM     31  C   UNL     1      -0.936  11.280  19.409  0.00  0.00    +0.000 C 
ATOM     32  C   UNL     1      -0.873  10.415  18.376  0.00  0.00    +0.000 C 
ATOM     33  C   UNL     1      -1.879  10.176  17.294  0.00  0.00    +0.000 C 
ATOM     34  C   UNL     1       0.415   9.631  18.184  0.00  0.00    +0.000 C 
ENDBRANCH  29  31
TORSDOF 1
ENDMDL
