MODEL 1
REMARK VINA RESULT:      -6.9      0.000      0.000
REMARK  Name = 
REMARK  4 active torsions:
REMARK  status: ('A' for Active; 'I' for Inactive)
REMARK    1  A    between atoms: C_7  and  C_8
REMARK    2  A    between atoms: C_8  and  N_9
REMARK    3  A    between atoms: N_9  and  C_10
REMARK    4  A    between atoms: C_10  and  C_11
REMARK                            x       y       z     vdW  Elec       q    Type
REMARK                         _______ _______ _______ _____ _____    ______ ____
ROOT
ATOM      1  C   UNL     1       6.245   4.729  18.378  0.00  0.00    +0.000 C 
ENDROOT
BRANCH   1   8
ATOM      2 CL   UNL     1       1.462   2.607  18.312  0.00  0.00    +0.000 Cl
ATOM      3  C   UNL     1       2.503   3.977  18.256  0.00  0.00    +0.000 A 
ATOM      4  C   UNL     1       1.955   5.250  18.130  0.00  0.00    +0.000 A 
ATOM      5  C   UNL     1       2.805   6.351  18.084  0.00  0.00    +0.000 A 
ATOM      6 CL   UNL     1       2.144   7.933  17.933  0.00  0.00    +0.000 Cl
ATOM      7  C   UNL     1       4.187   6.186  18.160  0.00  0.00    +0.000 A 
ATOM      8  C   UNL     1       4.746   4.902  18.291  0.00  0.00    +0.000 A 
ATOM      9  C   UNL     1       3.886   3.796  18.339  0.00  0.00    +0.000 A 
ENDBRANCH   1   8
BRANCH   1  10
ATOM     10  N   UNL     1       6.769   4.226  17.113  0.00  0.00    +0.000 NA
ATOM     11  H   UNL     1       6.053   3.658  16.656  0.00  0.00    +0.000 HD
BRANCH  10  12
ATOM     12  C   UNL     1       7.124   5.320  16.201  0.00  0.00    +0.000 C 
BRANCH  12  13
ATOM     13  C   UNL     1       7.039   4.882  14.750  0.00  0.00    +0.000 A 
ATOM     14  C   UNL     1       6.120   3.901  14.370  0.00  0.00    +0.000 A 
ATOM     15  C   UNL     1       6.036   3.539  13.030  0.00  0.00    +0.000 A 
ATOM     16  C   UNL     1       6.869   4.157  12.105  0.00  0.00    +0.000 A 
ATOM     17  C   UNL     1       7.756   5.116  12.564  0.00  0.00    +0.000 A 
ATOM     18  N   UNL     1       7.859   5.493  13.858  0.00  0.00    +0.000 NA
ENDBRANCH  12  13
ENDBRANCH  10  12
ENDBRANCH   1  10
TORSDOF 4
ENDMDL
MODEL 2
REMARK VINA RESULT:      -6.9      0.179      2.191
REMARK  Name = 
REMARK  4 active torsions:
REMARK  status: ('A' for Active; 'I' for Inactive)
REMARK    1  A    between atoms: C_7  and  C_8
REMARK    2  A    between atoms: C_8  and  N_9
REMARK    3  A    between atoms: N_9  and  C_10
REMARK    4  A    between atoms: C_10  and  C_11
REMARK                            x       y       z     vdW  Elec       q    Type
REMARK                         _______ _______ _______ _____ _____    ______ ____
ROOT
ATOM      1  C   UNL     1       6.109   4.482  18.317  0.00  0.00    +0.000 C 
ENDROOT
BRANCH   1   8
ATOM      2 CL   UNL     1       2.173   7.910  17.957  0.00  0.00    +0.000 Cl
ATOM      3  C   UNL     1       2.757   6.297  18.106  0.00  0.00    +0.000 A 
ATOM      4  C   UNL     1       1.851   5.243  18.183  0.00  0.00    +0.000 A 
ATOM      5  C   UNL     1       2.333   3.944  18.304  0.00  0.00    +0.000 A 
ATOM      6 CL   UNL     1       1.227   2.628  18.396  0.00  0.00    +0.000 Cl
ATOM      7  C   UNL     1       3.704   3.696  18.352  0.00  0.00    +0.000 A 
ATOM      8  C   UNL     1       4.624   4.757  18.270  0.00  0.00    +0.000 A 
ATOM      9  C   UNL     1       4.133   6.064  18.147  0.00  0.00    +0.000 A 
ENDBRANCH   1   8
BRANCH   1  10
ATOM     10  N   UNL     1       6.588   4.063  17.005  0.00  0.00    +0.000 NA
ATOM     11  H   UNL     1       5.847   3.549  16.527  0.00  0.00    +0.000 HD
BRANCH  10  12
ATOM     12  C   UNL     1       6.947   5.214  16.167  0.00  0.00    +0.000 C 
BRANCH  12  13
ATOM     13  C   UNL     1       6.980   4.840  14.696  0.00  0.00    +0.000 A 
ATOM     14  C   UNL     1       6.118   3.857  14.207  0.00  0.00    +0.000 A 
ATOM     15  C   UNL     1       6.140   3.555  12.849  0.00  0.00    +0.000 A 
ATOM     16  C   UNL     1       7.023   4.232  12.017  0.00  0.00    +0.000 A 
ATOM     17  C   UNL     1       7.850   5.189  12.582  0.00  0.00    +0.000 A 
ATOM     18  N   UNL     1       7.847   5.510  13.895  0.00  0.00    +0.000 NA
ENDBRANCH  12  13
ENDBRANCH  10  12
ENDBRANCH   1  10
TORSDOF 4
ENDMDL
MODEL 3
REMARK VINA RESULT:      -6.8      2.340      4.126
REMARK  Name = 
REMARK  4 active torsions:
REMARK  status: ('A' for Active; 'I' for Inactive)
REMARK    1  A    between atoms: C_7  and  C_8
REMARK    2  A    between atoms: C_8  and  N_9
REMARK    3  A    between atoms: N_9  and  C_10
REMARK    4  A    between atoms: C_10  and  C_11
REMARK                            x       y       z     vdW  Elec       q    Type
REMARK                         _______ _______ _______ _____ _____    ______ ____
ROOT
ATOM      1  C   UNL     1       3.650   4.063  16.876  0.00  0.00    +0.000 C 
ENDROOT
BRANCH   1   8
ATOM      2 CL   UNL     1       1.996   7.810  20.132  0.00  0.00    +0.000 Cl
ATOM      3  C   UNL     1       2.279   6.153  19.763  0.00  0.00    +0.000 A 
ATOM      4  C   UNL     1       1.964   5.176  20.703  0.00  0.00    +0.000 A 
ATOM      5  C   UNL     1       2.198   3.839  20.396  0.00  0.00    +0.000 A 
ATOM      6 CL   UNL     1       1.808   2.618  21.545  0.00  0.00    +0.000 Cl
ATOM      7  C   UNL     1       2.745   3.478  19.165  0.00  0.00    +0.000 A 
ATOM      8  C   UNL     1       3.062   4.460  18.210  0.00  0.00    +0.000 A 
ATOM      9  C   UNL     1       2.823   5.806  18.524  0.00  0.00    +0.000 A 
ENDBRANCH   1   8
BRANCH   1  10
ATOM     10  N   UNL     1       4.984   3.501  17.059  0.00  0.00    +0.000 NA
ATOM     11  H   UNL     1       4.979   2.525  16.760  0.00  0.00    +0.000 HD
BRANCH  10  12
ATOM     12  C   UNL     1       5.986   4.211  16.254  0.00  0.00    +0.000 C 
BRANCH  12  13
ATOM     13  C   UNL     1       6.697   5.277  17.068  0.00  0.00    +0.000 A 
ATOM     14  C   UNL     1       7.265   4.949  18.301  0.00  0.00    +0.000 A 
ATOM     15  C   UNL     1       7.942   5.933  19.014  0.00  0.00    +0.000 A 
ATOM     16  C   UNL     1       8.030   7.215  18.487  0.00  0.00    +0.000 A 
ATOM     17  C   UNL     1       7.435   7.460  17.261  0.00  0.00    +0.000 A 
ATOM     18  N   UNL     1       6.776   6.525  16.541  0.00  0.00    +0.000 NA
ENDBRANCH  12  13
ENDBRANCH  10  12
ENDBRANCH   1  10
TORSDOF 4
ENDMDL
MODEL 4
REMARK VINA RESULT:      -6.8      2.283      3.476
REMARK  Name = 
REMARK  4 active torsions:
REMARK  status: ('A' for Active; 'I' for Inactive)
REMARK    1  A    between atoms: C_7  and  C_8
REMARK    2  A    between atoms: C_8  and  N_9
REMARK    3  A    between atoms: N_9  and  C_10
REMARK    4  A    between atoms: C_10  and  C_11
REMARK                            x       y       z     vdW  Elec       q    Type
REMARK                         _______ _______ _______ _____ _____    ______ ____
ROOT
ATOM      1  C   UNL     1       4.281   3.264  17.414  0.00  0.00    +0.000 C 
ENDROOT
BRANCH   1   8
ATOM      2 CL   UNL     1       1.327   2.688  21.694  0.00  0.00    +0.000 Cl
ATOM      3  C   UNL     1       2.047   3.677  20.483  0.00  0.00    +0.000 A 
ATOM      4  C   UNL     1       1.837   5.053  20.505  0.00  0.00    +0.000 A 
ATOM      5  C   UNL     1       2.422   5.844  19.521  0.00  0.00    +0.000 A 
ATOM      6 CL   UNL     1       2.177   7.547  19.538  0.00  0.00    +0.000 Cl
ATOM      7  C   UNL     1       3.207   5.270  18.522  0.00  0.00    +0.000 A 
ATOM      8  C   UNL     1       3.426   3.881  18.497  0.00  0.00    +0.000 A 
ATOM      9  C   UNL     1       2.835   3.088  19.491  0.00  0.00    +0.000 A 
ENDBRANCH   1   8
BRANCH   1  10
ATOM     10  N   UNL     1       4.577   4.250  16.380  0.00  0.00    +0.000 NA
ATOM     11  H   UNL     1       4.289   5.174  16.707  0.00  0.00    +0.000 HD
BRANCH  10  12
ATOM     12  C   UNL     1       6.013   4.308  16.082  0.00  0.00    +0.000 C 
BRANCH  12  13
ATOM     13  C   UNL     1       6.724   5.311  16.972  0.00  0.00    +0.000 A 
ATOM     14  C   UNL     1       7.283   4.897  18.183  0.00  0.00    +0.000 A 
ATOM     15  C   UNL     1       7.960   5.826  18.965  0.00  0.00    +0.000 A 
ATOM     16  C   UNL     1       8.058   7.141  18.528  0.00  0.00    +0.000 A 
ATOM     17  C   UNL     1       7.471   7.472  17.318  0.00  0.00    +0.000 A 
ATOM     18  N   UNL     1       6.812   6.592  16.531  0.00  0.00    +0.000 NA
ENDBRANCH  12  13
ENDBRANCH  10  12
ENDBRANCH   1  10
TORSDOF 4
ENDMDL
MODEL 5
REMARK VINA RESULT:      -6.8      2.411      4.194
REMARK  Name = 
REMARK  4 active torsions:
REMARK  status: ('A' for Active; 'I' for Inactive)
REMARK    1  A    between atoms: C_7  and  C_8
REMARK    2  A    between atoms: C_8  and  N_9
REMARK    3  A    between atoms: N_9  and  C_10
REMARK    4  A    between atoms: C_10  and  C_11
REMARK                            x       y       z     vdW  Elec       q    Type
REMARK                         _______ _______ _______ _____ _____    ______ ____
ROOT
ATOM      1  C   UNL     1       4.031   3.260  17.195  0.00  0.00    +0.000 C 
ENDROOT
BRANCH   1   8
ATOM      2 CL   UNL     1       2.213   7.613  19.459  0.00  0.00    +0.000 Cl
ATOM      3  C   UNL     1       2.448   5.908  19.445  0.00  0.00    +0.000 A 
ATOM      4  C   UNL     1       1.973   5.140  20.506  0.00  0.00    +0.000 A 
ATOM      5  C   UNL     1       2.170   3.763  20.487  0.00  0.00    +0.000 A 
ATOM      6 CL   UNL     1       1.584   2.799  21.787  0.00  0.00    +0.000 Cl
ATOM      7  C   UNL     1       2.836   3.155  19.423  0.00  0.00    +0.000 A 
ATOM      8  C   UNL     1       3.314   3.924  18.348  0.00  0.00    +0.000 A 
ATOM      9  C   UNL     1       3.113   5.312  18.371  0.00  0.00    +0.000 A 
ENDBRANCH   1   8
BRANCH   1  10
ATOM     10  N   UNL     1       4.636   4.265  16.329  0.00  0.00    +0.000 NA
ATOM     11  H   UNL     1       4.452   5.193  16.714  0.00  0.00    +0.000 HD
BRANCH  10  12
ATOM     12  C   UNL     1       6.092   4.098  16.239  0.00  0.00    +0.000 C 
BRANCH  12  13
ATOM     13  C   UNL     1       6.821   5.098  17.117  0.00  0.00    +0.000 A 
ATOM     14  C   UNL     1       6.938   6.429  16.709  0.00  0.00    +0.000 A 
ATOM     15  C   UNL     1       7.579   7.336  17.545  0.00  0.00    +0.000 A 
ATOM     16  C   UNL     1       8.092   6.897  18.760  0.00  0.00    +0.000 A 
ATOM     17  C   UNL     1       7.939   5.560  19.087  0.00  0.00    +0.000 A 
ATOM     18  N   UNL     1       7.316   4.655  18.300  0.00  0.00    +0.000 NA
ENDBRANCH  12  13
ENDBRANCH  10  12
ENDBRANCH   1  10
TORSDOF 4
ENDMDL
MODEL 6
REMARK VINA RESULT:      -6.8      2.418      3.594
REMARK  Name = 
REMARK  4 active torsions:
REMARK  status: ('A' for Active; 'I' for Inactive)
REMARK    1  A    between atoms: C_7  and  C_8
REMARK    2  A    between atoms: C_8  and  N_9
REMARK    3  A    between atoms: N_9  and  C_10
REMARK    4  A    between atoms: C_10  and  C_11
REMARK                            x       y       z     vdW  Elec       q    Type
REMARK                         _______ _______ _______ _____ _____    ______ ____
ROOT
ATOM      1  C   UNL     1       4.257   3.106  17.504  0.00  0.00    +0.000 C 
ENDROOT
BRANCH   1   8
ATOM      2 CL   UNL     1       1.261   2.651  21.770  0.00  0.00    +0.000 Cl
ATOM      3  C   UNL     1       2.013   3.608  20.553  0.00  0.00    +0.000 A 
ATOM      4  C   UNL     1       1.835   4.989  20.557  0.00  0.00    +0.000 A 
ATOM      5  C   UNL     1       2.445   5.754  19.568  0.00  0.00    +0.000 A 
ATOM      6 CL   UNL     1       2.240   7.463  19.563  0.00  0.00    +0.000 Cl
ATOM      7  C   UNL     1       3.223   5.149  18.581  0.00  0.00    +0.000 A 
ATOM      8  C   UNL     1       3.409   3.756  18.574  0.00  0.00    +0.000 A 
ATOM      9  C   UNL     1       2.793   2.989  19.573  0.00  0.00    +0.000 A 
ENDBRANCH   1   8
BRANCH   1  10
ATOM     10  N   UNL     1       4.563   4.066  16.449  0.00  0.00    +0.000 NA
ATOM     11  H   UNL     1       4.296   5.001  16.761  0.00  0.00    +0.000 HD
BRANCH  10  12
ATOM     12  C   UNL     1       5.997   4.089  16.138  0.00  0.00    +0.000 C 
BRANCH  12  13
ATOM     13  C   UNL     1       6.742   5.069  17.025  0.00  0.00    +0.000 A 
ATOM     14  C   UNL     1       6.794   6.422  16.680  0.00  0.00    +0.000 A 
ATOM     15  C   UNL     1       7.452   7.308  17.525  0.00  0.00    +0.000 A 
ATOM     16  C   UNL     1       8.045   6.828  18.686  0.00  0.00    +0.000 A 
ATOM     17  C   UNL     1       7.953   5.472  18.953  0.00  0.00    +0.000 A 
ATOM     18  N   UNL     1       7.316   4.586  18.155  0.00  0.00    +0.000 NA
ENDBRANCH  12  13
ENDBRANCH  10  12
ENDBRANCH   1  10
TORSDOF 4
ENDMDL
MODEL 7
REMARK VINA RESULT:      -6.6      1.546      1.692
REMARK  Name = 
REMARK  4 active torsions:
REMARK  status: ('A' for Active; 'I' for Inactive)
REMARK    1  A    between atoms: C_7  and  C_8
REMARK    2  A    between atoms: C_8  and  N_9
REMARK    3  A    between atoms: N_9  and  C_10
REMARK    4  A    between atoms: C_10  and  C_11
REMARK                            x       y       z     vdW  Elec       q    Type
REMARK                         _______ _______ _______ _____ _____    ______ ____
ROOT
ATOM      1  C   UNL     1       4.312   3.425  17.301  0.00  0.00    +0.000 C 
ENDROOT
BRANCH   1   8
ATOM      2 CL   UNL     1       1.541   2.723  21.683  0.00  0.00    +0.000 Cl
ATOM      3  C   UNL     1       2.186   3.744  20.456  0.00  0.00    +0.000 A 
ATOM      4  C   UNL     1       1.937   5.113  20.501  0.00  0.00    +0.000 A 
ATOM      5  C   UNL     1       2.461   5.929  19.504  0.00  0.00    +0.000 A 
ATOM      6 CL   UNL     1       2.167   7.625  19.547  0.00  0.00    +0.000 Cl
ATOM      7  C   UNL     1       3.223   5.388  18.469  0.00  0.00    +0.000 A 
ATOM      8  C   UNL     1       3.482   4.006  18.422  0.00  0.00    +0.000 A 
ATOM      9  C   UNL     1       2.952   3.188  19.429  0.00  0.00    +0.000 A 
ENDBRANCH   1   8
BRANCH   1  10
ATOM     10  N   UNL     1       4.664   4.465  16.340  0.00  0.00    +0.000 NA
ATOM     11  H   UNL     1       4.297   5.360  16.668  0.00  0.00    +0.000 HD
BRANCH  10  12
ATOM     12  C   UNL     1       6.119   4.601  16.198  0.00  0.00    +0.000 C 
BRANCH  12  13
ATOM     13  C   UNL     1       6.544   4.522  14.744  0.00  0.00    +0.000 A 
ATOM     14  C   UNL     1       5.875   3.665  13.867  0.00  0.00    +0.000 A 
ATOM     15  C   UNL     1       6.258   3.635  12.531  0.00  0.00    +0.000 A 
ATOM     16  C   UNL     1       7.299   4.450  12.103  0.00  0.00    +0.000 A 
ATOM     17  C   UNL     1       7.914   5.267  13.036  0.00  0.00    +0.000 A 
ATOM     18  N   UNL     1       7.561   5.325  14.340  0.00  0.00    +0.000 NA
ENDBRANCH  12  13
ENDBRANCH  10  12
ENDBRANCH   1  10
TORSDOF 4
ENDMDL
MODEL 8
REMARK VINA RESULT:      -6.6      2.382      4.118
REMARK  Name = 
REMARK  4 active torsions:
REMARK  status: ('A' for Active; 'I' for Inactive)
REMARK    1  A    between atoms: C_7  and  C_8
REMARK    2  A    between atoms: C_8  and  N_9
REMARK    3  A    between atoms: N_9  and  C_10
REMARK    4  A    between atoms: C_10  and  C_11
REMARK                            x       y       z     vdW  Elec       q    Type
REMARK                         _______ _______ _______ _____ _____    ______ ____
ROOT
ATOM      1  C   UNL     1       4.351   4.136  16.662  0.00  0.00    +0.000 C 
ENDROOT
BRANCH   1   8
ATOM      2 CL   UNL     1       0.682   4.310  20.388  0.00  0.00    +0.000 Cl
ATOM      3  C   UNL     1       2.191   3.741  19.786  0.00  0.00    +0.000 A 
ATOM      4  C   UNL     1       2.958   2.877  20.561  0.00  0.00    +0.000 A 
ATOM      5  C   UNL     1       4.177   2.424  20.067  0.00  0.00    +0.000 A 
ATOM      6 CL   UNL     1       5.136   1.350  21.010  0.00  0.00    +0.000 Cl
ATOM      7  C   UNL     1       4.630   2.831  18.812  0.00  0.00    +0.000 A 
ATOM      8  C   UNL     1       3.858   3.702  18.023  0.00  0.00    +0.000 A 
ATOM      9  C   UNL     1       2.630   4.154  18.525  0.00  0.00    +0.000 A 
ENDBRANCH   1   8
BRANCH   1  10
ATOM     10  N   UNL     1       5.569   3.413  16.311  0.00  0.00    +0.000 NA
ATOM     11  H   UNL     1       5.349   2.714  15.600  0.00  0.00    +0.000 HD
BRANCH  10  12
ATOM     12  C   UNL     1       6.590   4.310  15.757  0.00  0.00    +0.000 C 
BRANCH  12  13
ATOM     13  C   UNL     1       7.085   5.297  16.798  0.00  0.00    +0.000 A 
ATOM     14  C   UNL     1       7.584   4.833  18.017  0.00  0.00    +0.000 A 
ATOM     15  C   UNL     1       8.065   5.753  18.943  0.00  0.00    +0.000 A 
ATOM     16  C   UNL     1       8.030   7.108  18.636  0.00  0.00    +0.000 A 
ATOM     17  C   UNL     1       7.514   7.486  17.408  0.00  0.00    +0.000 A 
ATOM     18  N   UNL     1       7.046   6.617  16.484  0.00  0.00    +0.000 NA
ENDBRANCH  12  13
ENDBRANCH  10  12
ENDBRANCH   1  10
TORSDOF 4
ENDMDL
MODEL 9
REMARK VINA RESULT:      -6.6      1.243      2.477
REMARK  Name = 
REMARK  4 active torsions:
REMARK  status: ('A' for Active; 'I' for Inactive)
REMARK    1  A    between atoms: C_7  and  C_8
REMARK    2  A    between atoms: C_8  and  N_9
REMARK    3  A    between atoms: N_9  and  C_10
REMARK    4  A    between atoms: C_10  and  C_11
REMARK                            x       y       z     vdW  Elec       q    Type
REMARK                         _______ _______ _______ _____ _____    ______ ____
ROOT
ATOM      1  C   UNL     1       4.541   5.752  16.914  0.00  0.00    +0.000 C 
ENDROOT
BRANCH   1   8
ATOM      2 CL   UNL     1       1.539   7.111  20.979  0.00  0.00    +0.000 Cl
ATOM      3  C   UNL     1       2.066   5.957  19.815  0.00  0.00    +0.000 A 
ATOM      4  C   UNL     1       1.513   4.680  19.815  0.00  0.00    +0.000 A 
ATOM      5  C   UNL     1       1.947   3.754  18.871  0.00  0.00    +0.000 A 
ATOM      6 CL   UNL     1       1.270   2.172  18.854  0.00  0.00    +0.000 Cl
ATOM      7  C   UNL     1       2.925   4.096  17.938  0.00  0.00    +0.000 A 
ATOM      8  C   UNL     1       3.484   5.386  17.931  0.00  0.00    +0.000 A 
ATOM      9  C   UNL     1       3.043   6.315  18.883  0.00  0.00    +0.000 A 
ENDBRANCH   1   8
BRANCH   1  10
ATOM     10  N   UNL     1       5.453   4.632  16.706  0.00  0.00    +0.000 NA
ATOM     11  H   UNL     1       5.048   3.995  16.019  0.00  0.00    +0.000 HD
BRANCH  10  12
ATOM     12  C   UNL     1       6.752   5.081  16.191  0.00  0.00    +0.000 C 
BRANCH  12  13
ATOM     13  C   UNL     1       6.895   4.781  14.710  0.00  0.00    +0.000 A 
ATOM     14  C   UNL     1       6.075   3.823  14.110  0.00  0.00    +0.000 A 
ATOM     15  C   UNL     1       6.199   3.589  12.745  0.00  0.00    +0.000 A 
ATOM     16  C   UNL     1       7.137   4.307  12.014  0.00  0.00    +0.000 A 
ATOM     17  C   UNL     1       7.916   5.235  12.686  0.00  0.00    +0.000 A 
ATOM     18  N   UNL     1       7.815   5.491  14.009  0.00  0.00    +0.000 NA
ENDBRANCH  12  13
ENDBRANCH  10  12
ENDBRANCH   1  10
TORSDOF 4
ENDMDL
