MODEL 1
REMARK VINA RESULT:      -7.9      0.000      0.000
REMARK  Name = 
REMARK  3 active torsions:
REMARK  status: ('A' for Active; 'I' for Inactive)
REMARK    1  A    between atoms: C_1  and  C_2
REMARK    2  A    between atoms: C_2  and  C_3
REMARK    3  A    between atoms: C_21  and  C_22
REMARK                            x       y       z     vdW  Elec       q    Type
REMARK                         _______ _______ _______ _____ _____    ______ ____
ROOT
ATOM      1  C   UNL     1       1.057  11.100  19.040  0.00  0.00    +0.000 C 
ATOM      2  C   UNL     1       0.899   9.609  18.669  0.00  0.00    +0.000 C 
ATOM      3  C   UNL     1      -0.387   9.470  17.820  0.00  0.00    +0.000 C 
ATOM      4  C   UNL     1       0.693   8.807  19.969  0.00  0.00    +0.000 C 
ATOM      5  C   UNL     1       1.790   7.857  20.363  0.00  0.00    +0.000 C 
ATOM      6  O   UNL     1       1.941   7.545  21.545  0.00  0.00    +0.000 OA
ATOM      7  C   UNL     1       2.633   7.251  19.312  0.00  0.00    +0.000 C 
ATOM      8  C   UNL     1       2.811   7.889  18.145  0.00  0.00    +0.000 C 
ATOM      9  C   UNL     1       2.124   9.189  17.809  0.00  0.00    +0.000 C 
ATOM     10  N   UNL     1       3.683   7.391  17.188  0.00  0.00    +0.000 N 
ATOM     11  C   UNL     1       4.395   6.174  17.316  0.00  0.00    +0.000 A 
ATOM     12  C   UNL     1       4.210   5.419  18.496  0.00  0.00    +0.000 A 
ATOM     13  C   UNL     1       4.796   4.149  18.610  0.00  0.00    +0.000 A 
ATOM     14  C   UNL     1       5.495   3.594  17.549  0.00  0.00    +0.000 A 
ATOM     15  C   UNL     1       5.688   4.315  16.370  0.00  0.00    +0.000 A 
ATOM     16  C   UNL     1       6.396   3.715  15.318  0.00  0.00    +0.000 A 
ATOM     17  C   UNL     1       6.634   4.403  14.132  0.00  0.00    +0.000 A 
ATOM     18  C   UNL     1       6.162   5.699  13.988  0.00  0.00    +0.000 A 
ATOM     19  C   UNL     1       5.433   6.302  15.020  0.00  0.00    +0.000 A 
ATOM     20  C   UNL     1       5.163   5.629  16.238  0.00  0.00    +0.000 A 
ATOM     21  C   UNL     1       3.346   5.960  19.642  0.00  0.00    +0.000 C 
ATOM     22  H   UNL     1       3.962   8.019  16.445  0.00  0.00    +0.000 HD
ENDROOT
BRANCH  21  23
ATOM     23  C   UNL     1       2.366   4.885  20.110  0.00  0.00    +0.000 A 
ATOM     24  C   UNL     1       2.532   4.293  21.378  0.00  0.00    +0.000 A 
ATOM     25  C   UNL     1       1.699   3.252  21.782  0.00  0.00    +0.000 A 
ATOM     26  C   UNL     1       0.698   2.793  20.931  0.00  0.00    +0.000 A 
ATOM     27  C   UNL     1       0.507   3.384  19.681  0.00  0.00    +0.000 A 
ATOM     28  C   UNL     1       1.332   4.432  19.276  0.00  0.00    +0.000 A 
ENDBRANCH  21  23
TORSDOF 1
ENDMDL
MODEL 2
REMARK VINA RESULT:      -7.5      4.432      8.706
REMARK  Name = 
REMARK  3 active torsions:
REMARK  status: ('A' for Active; 'I' for Inactive)
REMARK    1  A    between atoms: C_1  and  C_2
REMARK    2  A    between atoms: C_2  and  C_3
REMARK    3  A    between atoms: C_21  and  C_22
REMARK                            x       y       z     vdW  Elec       q    Type
REMARK                         _______ _______ _______ _____ _____    ______ ____
ROOT
ATOM      1  C   UNL     1       1.873  16.185  19.976  0.00  0.00    +0.000 C 
ATOM      2  C   UNL     1       1.343  14.802  20.415  0.00  0.00    +0.000 C 
ATOM      3  C   UNL     1       1.385  14.751  21.960  0.00  0.00    +0.000 C 
ATOM      4  C   UNL     1       2.306  13.724  19.881  0.00  0.00    +0.000 C 
ATOM      5  C   UNL     1       1.773  12.799  18.822  0.00  0.00    +0.000 C 
ATOM      6  O   UNL     1       2.546  12.251  18.036  0.00  0.00    +0.000 OA
ATOM      7  C   UNL     1       0.326  12.502  18.784  0.00  0.00    +0.000 C 
ATOM      8  C   UNL     1      -0.553  13.390  19.273  0.00  0.00    +0.000 C 
ATOM      9  C   UNL     1      -0.133  14.675  19.942  0.00  0.00    +0.000 C 
ATOM     10  N   UNL     1      -1.919  13.181  19.149  0.00  0.00    +0.000 N 
ATOM     11  C   UNL     1      -2.498  12.025  18.573  0.00  0.00    +0.000 A 
ATOM     12  C   UNL     1      -1.631  11.020  18.089  0.00  0.00    +0.000 A 
ATOM     13  C   UNL     1      -2.160   9.804  17.629  0.00  0.00    +0.000 A 
ATOM     14  C   UNL     1      -3.520   9.549  17.709  0.00  0.00    +0.000 A 
ATOM     15  C   UNL     1      -4.399  10.521  18.188  0.00  0.00    +0.000 A 
ATOM     16  C   UNL     1      -5.767  10.220  18.259  0.00  0.00    +0.000 A 
ATOM     17  C   UNL     1      -6.685  11.165  18.708  0.00  0.00    +0.000 A 
ATOM     18  C   UNL     1      -6.239  12.421  19.092  0.00  0.00    +0.000 A 
ATOM     19  C   UNL     1      -4.874  12.728  19.049  0.00  0.00    +0.000 A 
ATOM     20  C   UNL     1      -3.909  11.788  18.607  0.00  0.00    +0.000 A 
ATOM     21  C   UNL     1      -0.111  11.230  18.095  0.00  0.00    +0.000 C 
ATOM     22  H   UNL     1      -2.525  13.975  19.311  0.00  0.00    +0.000 HD
ENDROOT
BRANCH  21  23
ATOM     23  C   UNL     1       0.584  10.006  18.690  0.00  0.00    +0.000 A 
ATOM     24  C   UNL     1       0.442   9.720  20.062  0.00  0.00    +0.000 A 
ATOM     25  C   UNL     1       1.140   8.659  20.634  0.00  0.00    +0.000 A 
ATOM     26  C   UNL     1       1.981   7.876  19.849  0.00  0.00    +0.000 A 
ATOM     27  C   UNL     1       2.115   8.134  18.484  0.00  0.00    +0.000 A 
ATOM     28  C   UNL     1       1.413   9.189  17.905  0.00  0.00    +0.000 A 
ENDBRANCH  21  23
TORSDOF 1
ENDMDL
MODEL 3
REMARK VINA RESULT:      -6.7      8.547      9.853
REMARK  Name = 
REMARK  3 active torsions:
REMARK  status: ('A' for Active; 'I' for Inactive)
REMARK    1  A    between atoms: C_1  and  C_2
REMARK    2  A    between atoms: C_2  and  C_3
REMARK    3  A    between atoms: C_21  and  C_22
REMARK                            x       y       z     vdW  Elec       q    Type
REMARK                         _______ _______ _______ _____ _____    ______ ____
ROOT
ATOM      1  C   UNL     1       3.104  16.408  17.251  0.00  0.00    +0.000 C 
ATOM      2  C   UNL     1       3.652  15.392  18.277  0.00  0.00    +0.000 C 
ATOM      3  C   UNL     1       2.721  14.158  18.261  0.00  0.00    +0.000 C 
ATOM      4  C   UNL     1       3.567  16.028  19.679  0.00  0.00    +0.000 C 
ATOM      5  C   UNL     1       4.868  16.342  20.364  0.00  0.00    +0.000 C 
ATOM      6  O   UNL     1       4.917  17.229  21.217  0.00  0.00    +0.000 OA
ATOM      7  C   UNL     1       6.063  15.531  20.053  0.00  0.00    +0.000 C 
ATOM      8  C   UNL     1       6.169  14.923  18.862  0.00  0.00    +0.000 C 
ATOM      9  C   UNL     1       5.076  14.961  17.823  0.00  0.00    +0.000 C 
ATOM     10  N   UNL     1       7.327  14.247  18.508  0.00  0.00    +0.000 N 
ATOM     11  C   UNL     1       8.445  14.085  19.361  0.00  0.00    +0.000 A 
ATOM     12  C   UNL     1       8.381  14.650  20.654  0.00  0.00    +0.000 A 
ATOM     13  C   UNL     1       9.411  14.405  21.575  0.00  0.00    +0.000 A 
ATOM     14  C   UNL     1      10.458  13.555  21.255  0.00  0.00    +0.000 A 
ATOM     15  C   UNL     1      10.545  12.978  19.987  0.00  0.00    +0.000 A 
ATOM     16  C   UNL     1      11.617  12.118  19.707  0.00  0.00    +0.000 A 
ATOM     17  C   UNL     1      11.759  11.538  18.450  0.00  0.00    +0.000 A 
ATOM     18  C   UNL     1      10.824  11.812  17.462  0.00  0.00    +0.000 A 
ATOM     19  C   UNL     1       9.735  12.649  17.735  0.00  0.00    +0.000 A 
ATOM     20  C   UNL     1       9.553  13.250  19.006  0.00  0.00    +0.000 A 
ATOM     21  C   UNL     1       7.176  15.502  21.075  0.00  0.00    +0.000 C 
ATOM     22  H   UNL     1       7.449  14.018  17.530  0.00  0.00    +0.000 HD
ENDROOT
BRANCH  21  23
ATOM     23  C   UNL     1       6.667  15.049  22.442  0.00  0.00    +0.000 A 
ATOM     24  C   UNL     1       6.862  15.873  23.568  0.00  0.00    +0.000 A 
ATOM     25  C   UNL     1       6.481  15.434  24.834  0.00  0.00    +0.000 A 
ATOM     26  C   UNL     1       5.904  14.177  24.989  0.00  0.00    +0.000 A 
ATOM     27  C   UNL     1       5.685  13.359  23.881  0.00  0.00    +0.000 A 
ATOM     28  C   UNL     1       6.056  13.796  22.611  0.00  0.00    +0.000 A 
ENDBRANCH  21  23
TORSDOF 1
ENDMDL
MODEL 4
REMARK VINA RESULT:      -6.6      8.746     10.973
REMARK  Name = 
REMARK  3 active torsions:
REMARK  status: ('A' for Active; 'I' for Inactive)
REMARK    1  A    between atoms: C_1  and  C_2
REMARK    2  A    between atoms: C_2  and  C_3
REMARK    3  A    between atoms: C_21  and  C_22
REMARK                            x       y       z     vdW  Elec       q    Type
REMARK                         _______ _______ _______ _____ _____    ______ ____
ROOT
ATOM      1  C   UNL     1       3.143  16.057  17.047  0.00  0.00    +0.000 C 
ATOM      2  C   UNL     1       3.877  15.528  18.298  0.00  0.00    +0.000 C 
ATOM      3  C   UNL     1       2.976  14.456  18.954  0.00  0.00    +0.000 C 
ATOM      4  C   UNL     1       4.029  16.691  19.298  0.00  0.00    +0.000 C 
ATOM      5  C   UNL     1       5.425  17.183  19.564  0.00  0.00    +0.000 C 
ATOM      6  O   UNL     1       5.609  18.339  19.947  0.00  0.00    +0.000 OA
ATOM      7  C   UNL     1       6.559  16.245  19.429  0.00  0.00    +0.000 C 
ATOM      8  C   UNL     1       6.463  15.193  18.602  0.00  0.00    +0.000 C 
ATOM      9  C   UNL     1       5.205  14.863  17.839  0.00  0.00    +0.000 C 
ATOM     10  N   UNL     1       7.552  14.363  18.379  0.00  0.00    +0.000 N 
ATOM     11  C   UNL     1       8.804  14.502  19.025  0.00  0.00    +0.000 A 
ATOM     12  C   UNL     1       8.958  15.555  19.953  0.00  0.00    +0.000 A 
ATOM     13  C   UNL     1      10.137  15.652  20.709  0.00  0.00    +0.000 A 
ATOM     14  C   UNL     1      11.124  14.685  20.607  0.00  0.00    +0.000 A 
ATOM     15  C   UNL     1      10.996  13.630  19.702  0.00  0.00    +0.000 A 
ATOM     16  C   UNL     1      12.016  12.669  19.635  0.00  0.00    +0.000 A 
ATOM     17  C   UNL     1      11.944  11.612  18.732  0.00  0.00    +0.000 A 
ATOM     18  C   UNL     1      10.847  11.508  17.889  0.00  0.00    +0.000 A 
ATOM     19  C   UNL     1       9.810  12.446  17.962  0.00  0.00    +0.000 A 
ATOM     20  C   UNL     1       9.845  13.530  18.875  0.00  0.00    +0.000 A 
ATOM     21  C   UNL     1       7.833  16.575  20.171  0.00  0.00    +0.000 C 
ATOM     22  H   UNL     1       7.505  13.742  17.581  0.00  0.00    +0.000 HD
ENDROOT
BRANCH  21  23
ATOM     23  C   UNL     1       7.577  16.761  21.666  0.00  0.00    +0.000 A 
ATOM     24  C   UNL     1       7.986  17.950  22.301  0.00  0.00    +0.000 A 
ATOM     25  C   UNL     1       7.837  18.098  23.679  0.00  0.00    +0.000 A 
ATOM     26  C   UNL     1       7.282  17.067  24.432  0.00  0.00    +0.000 A 
ATOM     27  C   UNL     1       6.853  15.892  23.813  0.00  0.00    +0.000 A 
ATOM     28  C   UNL     1       6.991  15.743  22.435  0.00  0.00    +0.000 A 
ENDBRANCH  21  23
TORSDOF 1
ENDMDL
MODEL 5
REMARK VINA RESULT:      -6.6      6.044     11.268
REMARK  Name = 
REMARK  3 active torsions:
REMARK  status: ('A' for Active; 'I' for Inactive)
REMARK    1  A    between atoms: C_1  and  C_2
REMARK    2  A    between atoms: C_2  and  C_3
REMARK    3  A    between atoms: C_21  and  C_22
REMARK                            x       y       z     vdW  Elec       q    Type
REMARK                         _______ _______ _______ _____ _____    ______ ____
ROOT
ATOM      1  C   UNL     1       1.205   9.928  19.203  0.00  0.00    +0.000 C 
ATOM      2  C   UNL     1       0.550  11.304  19.450  0.00  0.00    +0.000 C 
ATOM      3  C   UNL     1       1.346  12.356  18.642  0.00  0.00    +0.000 C 
ATOM      4  C   UNL     1       0.697  11.649  20.945  0.00  0.00    +0.000 C 
ATOM      5  C   UNL     1      -0.566  11.699  21.759  0.00  0.00    +0.000 C 
ATOM      6  O   UNL     1      -0.524  11.503  22.974  0.00  0.00    +0.000 OA
ATOM      7  C   UNL     1      -1.838  12.054  21.098  0.00  0.00    +0.000 C 
ATOM      8  C   UNL     1      -2.003  11.813  19.788  0.00  0.00    +0.000 C 
ATOM      9  C   UNL     1      -0.909  11.252  18.915  0.00  0.00    +0.000 C 
ATOM     10  N   UNL     1      -3.225  12.038  19.172  0.00  0.00    +0.000 N 
ATOM     11  C   UNL     1      -4.357  12.584  19.824  0.00  0.00    +0.000 A 
ATOM     12  C   UNL     1      -4.237  12.917  21.192  0.00  0.00    +0.000 A 
ATOM     13  C   UNL     1      -5.291  13.577  21.844  0.00  0.00    +0.000 A 
ATOM     14  C   UNL     1      -6.420  13.971  21.144  0.00  0.00    +0.000 A 
ATOM     15  C   UNL     1      -6.563  13.660  19.790  0.00  0.00    +0.000 A 
ATOM     16  C   UNL     1      -7.719  14.082  19.117  0.00  0.00    +0.000 A 
ATOM     17  C   UNL     1      -7.916  13.776  17.774  0.00  0.00    +0.000 A 
ATOM     18  C   UNL     1      -6.955  13.044  17.092  0.00  0.00    +0.000 A 
ATOM     19  C   UNL     1      -5.785  12.637  17.745  0.00  0.00    +0.000 A 
ATOM     20  C   UNL     1      -5.545  12.939  19.109  0.00  0.00    +0.000 A 
ATOM     21  C   UNL     1      -2.952  12.597  21.964  0.00  0.00    +0.000 C 
ATOM     22  H   UNL     1      -3.368  11.622  18.261  0.00  0.00    +0.000 HD
ENDROOT
BRANCH  21  23
ATOM     23  C   UNL     1      -2.497  13.822  22.756  0.00  0.00    +0.000 A 
ATOM     24  C   UNL     1      -2.669  13.854  24.153  0.00  0.00    +0.000 A 
ATOM     25  C   UNL     1      -2.340  14.999  24.876  0.00  0.00    +0.000 A 
ATOM     26  C   UNL     1      -1.837  16.116  24.216  0.00  0.00    +0.000 A 
ATOM     27  C   UNL     1      -1.640  16.091  22.835  0.00  0.00    +0.000 A 
ATOM     28  C   UNL     1      -1.960  14.946  22.109  0.00  0.00    +0.000 A 
ENDBRANCH  21  23
TORSDOF 1
ENDMDL
MODEL 6
REMARK VINA RESULT:      -6.6      6.360      8.599
REMARK  Name = 
REMARK  3 active torsions:
REMARK  status: ('A' for Active; 'I' for Inactive)
REMARK    1  A    between atoms: C_1  and  C_2
REMARK    2  A    between atoms: C_2  and  C_3
REMARK    3  A    between atoms: C_21  and  C_22
REMARK                            x       y       z     vdW  Elec       q    Type
REMARK                         _______ _______ _______ _____ _____    ______ ____
ROOT
ATOM      1  C   UNL     1      -3.712  16.226  23.146  0.00  0.00    +0.000 C 
ATOM      2  C   UNL     1      -3.551  14.702  22.962  0.00  0.00    +0.000 C 
ATOM      3  C   UNL     1      -4.654  14.008  23.796  0.00  0.00    +0.000 C 
ATOM      4  C   UNL     1      -2.187  14.285  23.546  0.00  0.00    +0.000 C 
ATOM      5  C   UNL     1      -1.152  13.792  22.574  0.00  0.00    +0.000 C 
ATOM      6  O   UNL     1       0.045  13.884  22.848  0.00  0.00    +0.000 OA
ATOM      7  C   UNL     1      -1.589  13.137  21.323  0.00  0.00    +0.000 C 
ATOM      8  C   UNL     1      -2.785  13.434  20.794  0.00  0.00    +0.000 C 
ATOM      9  C   UNL     1      -3.766  14.368  21.458  0.00  0.00    +0.000 C 
ATOM     10  N   UNL     1      -3.169  12.913  19.567  0.00  0.00    +0.000 N 
ATOM     11  C   UNL     1      -2.393  12.002  18.811  0.00  0.00    +0.000 A 
ATOM     12  C   UNL     1      -1.145  11.600  19.337  0.00  0.00    +0.000 A 
ATOM     13  C   UNL     1      -0.402  10.603  18.685  0.00  0.00    +0.000 A 
ATOM     14  C   UNL     1      -0.911   9.957  17.569  0.00  0.00    +0.000 A 
ATOM     15  C   UNL     1      -2.144  10.330  17.032  0.00  0.00    +0.000 A 
ATOM     16  C   UNL     1      -2.626   9.646  15.906  0.00  0.00    +0.000 A 
ATOM     17  C   UNL     1      -3.839   9.998  15.320  0.00  0.00    +0.000 A 
ATOM     18  C   UNL     1      -4.581  11.038  15.860  0.00  0.00    +0.000 A 
ATOM     19  C   UNL     1      -4.124  11.713  16.999  0.00  0.00    +0.000 A 
ATOM     20  C   UNL     1      -2.899  11.377  17.627  0.00  0.00    +0.000 A 
ATOM     21  C   UNL     1      -0.608  12.216  20.635  0.00  0.00    +0.000 C 
ATOM     22  H   UNL     1      -3.958  13.347  19.106  0.00  0.00    +0.000 HD
ENDROOT
BRANCH  21  23
ATOM     23  C   UNL     1      -0.121  11.115  21.575  0.00  0.00    +0.000 A 
ATOM     24  C   UNL     1       1.139  10.522  21.363  0.00  0.00    +0.000 A 
ATOM     25  C   UNL     1       1.558   9.458  22.159  0.00  0.00    +0.000 A 
ATOM     26  C   UNL     1       0.730   8.978  23.169  0.00  0.00    +0.000 A 
ATOM     27  C   UNL     1      -0.512   9.570  23.406  0.00  0.00    +0.000 A 
ATOM     28  C   UNL     1      -0.932  10.640  22.618  0.00  0.00    +0.000 A 
ENDBRANCH  21  23
TORSDOF 1
ENDMDL
MODEL 7
REMARK VINA RESULT:      -6.5      6.763     10.426
REMARK  Name = 
REMARK  3 active torsions:
REMARK  status: ('A' for Active; 'I' for Inactive)
REMARK    1  A    between atoms: C_1  and  C_2
REMARK    2  A    between atoms: C_2  and  C_3
REMARK    3  A    between atoms: C_21  and  C_22
REMARK                            x       y       z     vdW  Elec       q    Type
REMARK                         _______ _______ _______ _____ _____    ______ ____
ROOT
ATOM      1  C   UNL     1      -6.785  14.593  22.446  0.00  0.00    +0.000 C 
ATOM      2  C   UNL     1      -5.784  14.020  21.419  0.00  0.00    +0.000 C 
ATOM      3  C   UNL     1      -6.600  13.443  20.239  0.00  0.00    +0.000 C 
ATOM      4  C   UNL     1      -5.025  12.853  22.081  0.00  0.00    +0.000 C 
ATOM      5  C   UNL     1      -3.556  13.053  22.333  0.00  0.00    +0.000 C 
ATOM      6  O   UNL     1      -2.993  12.423  23.229  0.00  0.00    +0.000 OA
ATOM      7  C   UNL     1      -2.788  13.954  21.450  0.00  0.00    +0.000 C 
ATOM      8  C   UNL     1      -3.408  14.962  20.817  0.00  0.00    +0.000 C 
ATOM      9  C   UNL     1      -4.897  15.187  20.900  0.00  0.00    +0.000 C 
ATOM     10  N   UNL     1      -2.689  15.884  20.071  0.00  0.00    +0.000 N 
ATOM     11  C   UNL     1      -1.291  15.819  19.859  0.00  0.00    +0.000 A 
ATOM     12  C   UNL     1      -0.580  14.750  20.449  0.00  0.00    +0.000 A 
ATOM     13  C   UNL     1       0.783  14.575  20.161  0.00  0.00    +0.000 A 
ATOM     14  C   UNL     1       1.424  15.398  19.248  0.00  0.00    +0.000 A 
ATOM     15  C   UNL     1       0.744  16.458  18.646  0.00  0.00    +0.000 A 
ATOM     16  C   UNL     1       1.429  17.262  17.722  0.00  0.00    +0.000 A 
ATOM     17  C   UNL     1       0.801  18.345  17.114  0.00  0.00    +0.000 A 
ATOM     18  C   UNL     1      -0.521  18.630  17.425  0.00  0.00    +0.000 A 
ATOM     19  C   UNL     1      -1.224  17.821  18.326  0.00  0.00    +0.000 A 
ATOM     20  C   UNL     1      -0.620  16.705  18.958  0.00  0.00    +0.000 A 
ATOM     21  C   UNL     1      -1.291  13.755  21.374  0.00  0.00    +0.000 C 
ATOM     22  H   UNL     1      -3.160  16.743  19.819  0.00  0.00    +0.000 HD
ENDROOT
BRANCH  21  23
ATOM     23  C   UNL     1      -0.939  12.323  20.974  0.00  0.00    +0.000 A 
ATOM     24  C   UNL     1      -0.112  11.547  21.810  0.00  0.00    +0.000 A 
ATOM     25  C   UNL     1       0.288  10.273  21.416  0.00  0.00    +0.000 A 
ATOM     26  C   UNL     1      -0.131   9.761  20.191  0.00  0.00    +0.000 A 
ATOM     27  C   UNL     1      -0.968  10.509  19.362  0.00  0.00    +0.000 A 
ATOM     28  C   UNL     1      -1.378  11.781  19.755  0.00  0.00    +0.000 A 
ENDBRANCH  21  23
TORSDOF 1
ENDMDL
MODEL 8
REMARK VINA RESULT:      -6.5      9.722     11.051
REMARK  Name = 
REMARK  3 active torsions:
REMARK  status: ('A' for Active; 'I' for Inactive)
REMARK    1  A    between atoms: C_1  and  C_2
REMARK    2  A    between atoms: C_2  and  C_3
REMARK    3  A    between atoms: C_21  and  C_22
REMARK                            x       y       z     vdW  Elec       q    Type
REMARK                         _______ _______ _______ _____ _____    ______ ____
ROOT
ATOM      1  C   UNL     1       6.961  11.830  26.843  0.00  0.00    +0.000 C 
ATOM      2  C   UNL     1       7.511  12.991  25.986  0.00  0.00    +0.000 C 
ATOM      3  C   UNL     1       8.480  13.811  26.870  0.00  0.00    +0.000 C 
ATOM      4  C   UNL     1       6.333  13.909  25.603  0.00  0.00    +0.000 C 
ATOM      5  C   UNL     1       5.956  13.960  24.148  0.00  0.00    +0.000 C 
ATOM      6  O   UNL     1       4.808  14.263  23.820  0.00  0.00    +0.000 OA
ATOM      7  C   UNL     1       6.991  13.712  23.124  0.00  0.00    +0.000 C 
ATOM      8  C   UNL     1       8.057  12.953  23.418  0.00  0.00    +0.000 C 
ATOM      9  C   UNL     1       8.302  12.384  24.793  0.00  0.00    +0.000 C 
ATOM     10  N   UNL     1       8.984  12.619  22.442  0.00  0.00    +0.000 N 
ATOM     11  C   UNL     1       8.933  13.081  21.105  0.00  0.00    +0.000 A 
ATOM     12  C   UNL     1       7.868  13.933  20.738  0.00  0.00    +0.000 A 
ATOM     13  C   UNL     1       7.848  14.515  19.461  0.00  0.00    +0.000 A 
ATOM     14  C   UNL     1       8.899  14.321  18.579  0.00  0.00    +0.000 A 
ATOM     15  C   UNL     1       9.967  13.489  18.917  0.00  0.00    +0.000 A 
ATOM     16  C   UNL     1      11.014  13.325  17.998  0.00  0.00    +0.000 A 
ATOM     17  C   UNL     1      12.089  12.488  18.280  0.00  0.00    +0.000 A 
ATOM     18  C   UNL     1      12.126  11.808  19.489  0.00  0.00    +0.000 A 
ATOM     19  C   UNL     1      11.100  11.981  20.426  0.00  0.00    +0.000 A 
ATOM     20  C   UNL     1       9.994  12.833  20.177  0.00  0.00    +0.000 A 
ATOM     21  C   UNL     1       6.748  14.258  21.735  0.00  0.00    +0.000 C 
ATOM     22  H   UNL     1       9.624  11.864  22.650  0.00  0.00    +0.000 HD
ENDROOT
BRANCH  21  23
ATOM     23  C   UNL     1       6.493  15.764  21.763  0.00  0.00    +0.000 A 
ATOM     24  C   UNL     1       7.414  16.616  22.402  0.00  0.00    +0.000 A 
ATOM     25  C   UNL     1       7.151  17.980  22.511  0.00  0.00    +0.000 A 
ATOM     26  C   UNL     1       5.973  18.504  21.987  0.00  0.00    +0.000 A 
ATOM     27  C   UNL     1       5.061  17.676  21.333  0.00  0.00    +0.000 A 
ATOM     28  C   UNL     1       5.323  16.313  21.213  0.00  0.00    +0.000 A 
ENDBRANCH  21  23
TORSDOF 1
ENDMDL
MODEL 9
REMARK VINA RESULT:      -6.4      8.793     11.970
REMARK  Name = 
REMARK  3 active torsions:
REMARK  status: ('A' for Active; 'I' for Inactive)
REMARK    1  A    between atoms: C_1  and  C_2
REMARK    2  A    between atoms: C_2  and  C_3
REMARK    3  A    between atoms: C_21  and  C_22
REMARK                            x       y       z     vdW  Elec       q    Type
REMARK                         _______ _______ _______ _____ _____    ______ ____
ROOT
ATOM      1  C   UNL     1      12.020  11.516  19.188  0.00  0.00    +0.000 C 
ATOM      2  C   UNL     1      10.535  11.915  19.327  0.00  0.00    +0.000 C 
ATOM      3  C   UNL     1       9.709  10.981  18.412  0.00  0.00    +0.000 C 
ATOM      4  C   UNL     1      10.369  13.355  18.802  0.00  0.00    +0.000 C 
ATOM      5  C   UNL     1      10.008  14.410  19.811  0.00  0.00    +0.000 C 
ATOM      6  O   UNL     1      10.304  15.588  19.604  0.00  0.00    +0.000 OA
ATOM      7  C   UNL     1       9.238  14.028  21.012  0.00  0.00    +0.000 C 
ATOM      8  C   UNL     1       9.315  12.775  21.487  0.00  0.00    +0.000 C 
ATOM      9  C   UNL     1      10.106  11.688  20.804  0.00  0.00    +0.000 C 
ATOM     10  N   UNL     1       8.686  12.424  22.673  0.00  0.00    +0.000 N 
ATOM     11  C   UNL     1       7.881  13.302  23.436  0.00  0.00    +0.000 A 
ATOM     12  C   UNL     1       7.708  14.623  22.965  0.00  0.00    +0.000 A 
ATOM     13  C   UNL     1       6.817  15.487  23.620  0.00  0.00    +0.000 A 
ATOM     14  C   UNL     1       6.050  15.038  24.684  0.00  0.00    +0.000 A 
ATOM     15  C   UNL     1       6.195  13.737  25.167  0.00  0.00    +0.000 A 
ATOM     16  C   UNL     1       5.395  13.320  26.241  0.00  0.00    +0.000 A 
ATOM     17  C   UNL     1       5.521  12.040  26.773  0.00  0.00    +0.000 A 
ATOM     18  C   UNL     1       6.449  11.164  26.230  0.00  0.00    +0.000 A 
ATOM     19  C   UNL     1       7.238  11.558  25.142  0.00  0.00    +0.000 A 
ATOM     20  C   UNL     1       7.131  12.850  24.569  0.00  0.00    +0.000 A 
ATOM     21  C   UNL     1       8.458  15.112  21.720  0.00  0.00    +0.000 C 
ATOM     22  H   UNL     1       8.967  11.554  23.105  0.00  0.00    +0.000 HD
ENDROOT
BRANCH  21  23
ATOM     23  C   UNL     1       7.492  15.816  20.769  0.00  0.00    +0.000 A 
ATOM     24  C   UNL     1       6.595  15.054  19.994  0.00  0.00    +0.000 A 
ATOM     25  C   UNL     1       5.769  15.676  19.060  0.00  0.00    +0.000 A 
ATOM     26  C   UNL     1       5.829  17.056  18.891  0.00  0.00    +0.000 A 
ATOM     27  C   UNL     1       6.696  17.826  19.666  0.00  0.00    +0.000 A 
ATOM     28  C   UNL     1       7.518  17.210  20.608  0.00  0.00    +0.000 A 
ENDBRANCH  21  23
TORSDOF 1
ENDMDL
