MODEL 1
REMARK VINA RESULT:      -8.6      0.000      0.000
REMARK  Name = 
REMARK  10 active torsions:
REMARK  status: ('A' for Active; 'I' for Inactive)
REMARK    1  A    between atoms: C_1  and  C_2
REMARK    2  A    between atoms: C_5  and  S_6
REMARK    3  A    between atoms: S_6  and  C_7
REMARK    4  A    between atoms: C_7  and  C_8
REMARK    5  A    between atoms: CA_9  and  C_10
REMARK    6  A    between atoms: C_10  and  OXT_12
REMARK    7  A    between atoms: CA_16  and  N_17
REMARK    8  A    between atoms: C_18  and  C_20
REMARK    9  A    between atoms: C_20  and  O_21
REMARK   10  A    between atoms: O_21  and  C_22
REMARK                            x       y       z     vdW  Elec       q    Type
REMARK                         _______ _______ _______ _____ _____    ______ ____
ROOT
ATOM      1  C   UNL     1       4.341   3.978  18.516  0.00  0.00    +0.000 C 
ATOM      2  CA  UNL     1       3.695   3.174  19.399  0.00  0.00    +0.000 C 
ATOM      3  N   UNL     1       2.403   3.420  19.890  0.00  0.00    +0.000 N 
ATOM      4  C   UNL     1       2.388   4.003  21.150  0.00  0.00    +0.000 C 
ATOM      5  O   UNL     1       2.591   3.562  22.259  0.00  0.00    +0.000 OA
ATOM      6  CA  UNL     1       2.285   5.424  20.480  0.00  0.00    +0.000 C 
ATOM      7  C   UNL     1       1.613   4.569  19.366  0.00  0.00    +0.000 C 
ATOM      8  S   UNL     1       1.902   4.918  17.631  0.00  0.00    +0.000 S 
ATOM      9  C   UNL     1       3.674   5.033  17.678  0.00  0.00    +0.000 C 
ENDROOT
BRANCH   6  10
ATOM     10  N   UNL     1       1.510   6.457  21.197  0.00  0.00    +0.000 N 
ATOM     11  C   UNL     1       1.446   7.755  20.749  0.00  0.00    +0.000 C 
ATOM     12  O   UNL     1       1.874   8.107  19.654  0.00  0.00    +0.000 OA
ATOM     13  H   UNL     1       1.213   6.271  22.151  0.00  0.00    +0.000 HD
BRANCH  11  14
ATOM     14  C   UNL     1       0.837   8.732  21.724  0.00  0.00    +0.000 C 
BRANCH  14  15
ATOM     15  O   UNL     1      -0.445   9.077  21.218  0.00  0.00    +0.000 OA
BRANCH  15  16
ATOM     16  C   UNL     1      -0.473  10.187  20.422  0.00  0.00    +0.000 A 
ATOM     17  C   UNL     1      -1.016  10.241  19.137  0.00  0.00    +0.000 A 
ATOM     18  C   UNL     1      -0.965  11.443  18.416  0.00  0.00    +0.000 A 
ATOM     19  C   UNL     1      -0.380  12.576  18.987  0.00  0.00    +0.000 A 
ATOM     20  F   UNL     1      -0.345  13.713  18.291  0.00  0.00    +0.000 F 
ATOM     21  C   UNL     1       0.149  12.527  20.269  0.00  0.00    +0.000 A 
ATOM     22  C   UNL     1       0.106  11.328  20.986  0.00  0.00    +0.000 A 
ENDBRANCH  15  16
ENDBRANCH  14  15
ENDBRANCH  11  14
ENDBRANCH   6  10
BRANCH   2  23
ATOM     23  C   UNL     1       4.387   2.015  20.047  0.00  0.00    +0.000 C 
ATOM     24  O   UNL     1       4.917   1.979  21.140  0.00  0.00    +0.000 OA
BRANCH  23  25
ATOM     25  OXT UNL     1       4.429   0.976  19.188  0.00  0.00    +0.000 OA
ATOM     26  HXT UNL     1       3.951   0.250  19.635  0.00  0.00    +0.000 HD
ENDBRANCH  23  25
ENDBRANCH   2  23
BRANCH   1  27
ATOM     27  C   UNL     1       5.853   4.087  18.410  0.00  0.00    +0.000 C 
BRANCH  27  28
ATOM     28  S   UNL     1       6.455   5.661  17.779  0.00  0.00    +0.000 S 
BRANCH  28  33
ATOM     29  C   UNL     1       6.368   3.629  12.619  0.00  0.00    +0.000 C 
ATOM     30  C   UNL     1       6.661   4.338  13.890  0.00  0.00    +0.000 A 
ATOM     31  N   UNL     1       7.585   5.263  14.045  0.00  0.00    +0.000 NA
ATOM     32  N   UNL     1       7.606   5.762  15.333  0.00  0.00    +0.000 NA
ATOM     33  C   UNL     1       6.695   5.198  16.102  0.00  0.00    +0.000 A 
ATOM     34  S   UNL     1       5.756   4.002  15.314  0.00  0.00    +0.000 S 
ENDBRANCH  28  33
ENDBRANCH  27  28
ENDBRANCH   1  27
TORSDOF 9
ENDMDL
MODEL 2
REMARK VINA RESULT:      -8.6      1.324      1.657
REMARK  Name = 
REMARK  10 active torsions:
REMARK  status: ('A' for Active; 'I' for Inactive)
REMARK    1  A    between atoms: C_1  and  C_2
REMARK    2  A    between atoms: C_5  and  S_6
REMARK    3  A    between atoms: S_6  and  C_7
REMARK    4  A    between atoms: C_7  and  C_8
REMARK    5  A    between atoms: CA_9  and  C_10
REMARK    6  A    between atoms: C_10  and  OXT_12
REMARK    7  A    between atoms: CA_16  and  N_17
REMARK    8  A    between atoms: C_18  and  C_20
REMARK    9  A    between atoms: C_20  and  O_21
REMARK   10  A    between atoms: O_21  and  C_22
REMARK                            x       y       z     vdW  Elec       q    Type
REMARK                         _______ _______ _______ _____ _____    ______ ____
ROOT
ATOM      1  C   UNL     1       4.158   3.601  18.304  0.00  0.00    +0.000 C 
ATOM      2  CA  UNL     1       3.628   2.869  19.317  0.00  0.00    +0.000 C 
ATOM      3  N   UNL     1       2.374   3.115  19.896  0.00  0.00    +0.000 N 
ATOM      4  C   UNL     1       2.441   3.825  21.088  0.00  0.00    +0.000 C 
ATOM      5  O   UNL     1       2.760   3.509  22.213  0.00  0.00    +0.000 OA
ATOM      6  CA  UNL     1       2.213   5.164  20.292  0.00  0.00    +0.000 C 
ATOM      7  C   UNL     1       1.489   4.173  19.335  0.00  0.00    +0.000 C 
ATOM      8  S   UNL     1       1.610   4.352  17.555  0.00  0.00    +0.000 S 
ATOM      9  C   UNL     1       3.371   4.538  17.429  0.00  0.00    +0.000 C 
ENDROOT
BRANCH   6  10
ATOM     10  N   UNL     1       1.456   6.235  20.970  0.00  0.00    +0.000 N 
ATOM     11  C   UNL     1       1.547   7.549  20.574  0.00  0.00    +0.000 C 
ATOM     12  O   UNL     1       2.115   7.899  19.543  0.00  0.00    +0.000 OA
ATOM     13  H   UNL     1       1.046   6.043  21.880  0.00  0.00    +0.000 HD
BRANCH  11  14
ATOM     14  C   UNL     1       0.922   8.541  21.522  0.00  0.00    +0.000 C 
BRANCH  14  15
ATOM     15  O   UNL     1       0.092   9.392  20.743  0.00  0.00    +0.000 OA
BRANCH  15  16
ATOM     16  C   UNL     1      -0.475  10.430  21.426  0.00  0.00    +0.000 A 
ATOM     17  C   UNL     1      -0.874  10.389  22.763  0.00  0.00    +0.000 A 
ATOM     18  C   UNL     1      -1.461  11.523  23.344  0.00  0.00    +0.000 A 
ATOM     19  C   UNL     1      -1.637  12.685  22.586  0.00  0.00    +0.000 A 
ATOM     20  F   UNL     1      -2.192  13.757  23.154  0.00  0.00    +0.000 F 
ATOM     21  C   UNL     1      -1.229  12.730  21.260  0.00  0.00    +0.000 A 
ATOM     22  C   UNL     1      -0.651  11.599  20.679  0.00  0.00    +0.000 A 
ENDBRANCH  15  16
ENDBRANCH  14  15
ENDBRANCH  11  14
ENDBRANCH   6  10
BRANCH   2  23
ATOM     23  C   UNL     1       4.428   1.810  20.012  0.00  0.00    +0.000 C 
ATOM     24  O   UNL     1       5.003   1.891  21.080  0.00  0.00    +0.000 OA
BRANCH  23  25
ATOM     25  OXT UNL     1       4.511   0.718  19.226  0.00  0.00    +0.000 OA
ATOM     26  HXT UNL     1       4.796  -0.006  19.818  0.00  0.00    +0.000 HD
ENDBRANCH  23  25
ENDBRANCH   2  23
BRANCH   1  27
ATOM     27  C   UNL     1       5.647   3.756  18.050  0.00  0.00    +0.000 C 
BRANCH  27  28
ATOM     28  S   UNL     1       6.169   5.419  17.600  0.00  0.00    +0.000 S 
BRANCH  28  33
ATOM     29  C   UNL     1       6.754   3.859  12.310  0.00  0.00    +0.000 C 
ATOM     30  C   UNL     1       6.875   4.453  13.666  0.00  0.00    +0.000 A 
ATOM     31  N   UNL     1       7.754   5.369  14.014  0.00  0.00    +0.000 NA
ATOM     32  N   UNL     1       7.607   5.751  15.334  0.00  0.00    +0.000 NA
ATOM     33  C   UNL     1       6.622   5.111  15.932  0.00  0.00    +0.000 A 
ATOM     34  S   UNL     1       5.810   3.982  14.932  0.00  0.00    +0.000 S 
ENDBRANCH  28  33
ENDBRANCH  27  28
ENDBRANCH   1  27
TORSDOF 9
ENDMDL
MODEL 3
REMARK VINA RESULT:      -8.3      1.203      1.470
REMARK  Name = 
REMARK  10 active torsions:
REMARK  status: ('A' for Active; 'I' for Inactive)
REMARK    1  A    between atoms: C_1  and  C_2
REMARK    2  A    between atoms: C_5  and  S_6
REMARK    3  A    between atoms: S_6  and  C_7
REMARK    4  A    between atoms: C_7  and  C_8
REMARK    5  A    between atoms: CA_9  and  C_10
REMARK    6  A    between atoms: C_10  and  OXT_12
REMARK    7  A    between atoms: CA_16  and  N_17
REMARK    8  A    between atoms: C_18  and  C_20
REMARK    9  A    between atoms: C_20  and  O_21
REMARK   10  A    between atoms: O_21  and  C_22
REMARK                            x       y       z     vdW  Elec       q    Type
REMARK                         _______ _______ _______ _____ _____    ______ ____
ROOT
ATOM      1  C   UNL     1       4.404   4.318  18.461  0.00  0.00    +0.000 C 
ATOM      2  CA  UNL     1       3.690   3.430  19.201  0.00  0.00    +0.000 C 
ATOM      3  N   UNL     1       2.392   3.667  19.680  0.00  0.00    +0.000 N 
ATOM      4  C   UNL     1       2.355   4.068  21.009  0.00  0.00    +0.000 C 
ATOM      5  O   UNL     1       2.497   3.466  22.050  0.00  0.00    +0.000 OA
ATOM      6  CA  UNL     1       2.339   5.572  20.544  0.00  0.00    +0.000 C 
ATOM      7  C   UNL     1       1.674   4.915  19.300  0.00  0.00    +0.000 C 
ATOM      8  S   UNL     1       2.044   5.489  17.642  0.00  0.00    +0.000 S 
ATOM      9  C   UNL     1       3.816   5.510  17.761  0.00  0.00    +0.000 C 
ENDROOT
BRANCH   6  10
ATOM     10  N   UNL     1       1.583   6.531  21.375  0.00  0.00    +0.000 N 
ATOM     11  C   UNL     1       1.412   7.841  20.996  0.00  0.00    +0.000 C 
ATOM     12  O   UNL     1       1.719   8.261  19.884  0.00  0.00    +0.000 OA
ATOM     13  H   UNL     1       1.386   6.289  22.343  0.00  0.00    +0.000 HD
BRANCH  11  14
ATOM     14  C   UNL     1       0.848   8.742  22.066  0.00  0.00    +0.000 C 
BRANCH  14  15
ATOM     15  O   UNL     1      -0.270   9.410  21.497  0.00  0.00    +0.000 OA
BRANCH  15  16
ATOM     16  C   UNL     1      -0.289  10.763  21.681  0.00  0.00    +0.000 A 
ATOM     17  C   UNL     1       0.448  11.685  20.935  0.00  0.00    +0.000 A 
ATOM     18  C   UNL     1       0.352  13.052  21.237  0.00  0.00    +0.000 A 
ATOM     19  C   UNL     1      -0.482  13.482  22.273  0.00  0.00    +0.000 A 
ATOM     20  F   UNL     1      -0.568  14.785  22.544  0.00  0.00    +0.000 F 
ATOM     21  C   UNL     1      -1.225  12.567  23.007  0.00  0.00    +0.000 A 
ATOM     22  C   UNL     1      -1.124  11.205  22.712  0.00  0.00    +0.000 A 
ENDBRANCH  15  16
ENDBRANCH  14  15
ENDBRANCH  11  14
ENDBRANCH   6  10
BRANCH   2  23
ATOM     23  C   UNL     1       4.306   2.160  19.699  0.00  0.00    +0.000 C 
ATOM     24  O   UNL     1       4.993   2.003  20.690  0.00  0.00    +0.000 OA
BRANCH  23  25
ATOM     25  OXT UNL     1       4.066   1.166  18.821  0.00  0.00    +0.000 OA
ATOM     26  HXT UNL     1       3.099   1.024  18.847  0.00  0.00    +0.000 HD
ENDBRANCH  23  25
ENDBRANCH   2  23
BRANCH   1  27
ATOM     27  C   UNL     1       5.922   4.367  18.420  0.00  0.00    +0.000 C 
BRANCH  27  28
ATOM     28  S   UNL     1       6.610   5.860  17.687  0.00  0.00    +0.000 S 
BRANCH  28  33
ATOM     29  C   UNL     1       6.257   3.513  12.674  0.00  0.00    +0.000 C 
ATOM     30  C   UNL     1       6.614   4.300  13.882  0.00  0.00    +0.000 A 
ATOM     31  N   UNL     1       7.541   5.234  13.930  0.00  0.00    +0.000 NA
ATOM     32  N   UNL     1       7.628   5.811  15.181  0.00  0.00    +0.000 NA
ATOM     33  C   UNL     1       6.763   5.295  16.032  0.00  0.00    +0.000 A 
ATOM     34  S   UNL     1       5.788   4.052  15.370  0.00  0.00    +0.000 S 
ENDBRANCH  28  33
ENDBRANCH  27  28
ENDBRANCH   1  27
TORSDOF 9
ENDMDL
MODEL 4
REMARK VINA RESULT:      -8.1      1.929      2.741
REMARK  Name = 
REMARK  10 active torsions:
REMARK  status: ('A' for Active; 'I' for Inactive)
REMARK    1  A    between atoms: C_1  and  C_2
REMARK    2  A    between atoms: C_5  and  S_6
REMARK    3  A    between atoms: S_6  and  C_7
REMARK    4  A    between atoms: C_7  and  C_8
REMARK    5  A    between atoms: CA_9  and  C_10
REMARK    6  A    between atoms: C_10  and  OXT_12
REMARK    7  A    between atoms: CA_16  and  N_17
REMARK    8  A    between atoms: C_18  and  C_20
REMARK    9  A    between atoms: C_20  and  O_21
REMARK   10  A    between atoms: O_21  and  C_22
REMARK                            x       y       z     vdW  Elec       q    Type
REMARK                         _______ _______ _______ _____ _____    ______ ____
ROOT
ATOM      1  C   UNL     1       4.514   4.185  18.682  0.00  0.00    +0.000 C 
ATOM      2  CA  UNL     1       3.761   3.307  19.393  0.00  0.00    +0.000 C 
ATOM      3  N   UNL     1       2.426   3.532  19.764  0.00  0.00    +0.000 N 
ATOM      4  C   UNL     1       2.279   3.974  21.072  0.00  0.00    +0.000 C 
ATOM      5  O   UNL     1       2.351   3.408  22.140  0.00  0.00    +0.000 OA
ATOM      6  CA  UNL     1       2.272   5.462  20.558  0.00  0.00    +0.000 C 
ATOM      7  C   UNL     1       1.717   4.752  19.289  0.00  0.00    +0.000 C 
ATOM      8  S   UNL     1       2.203   5.281  17.646  0.00  0.00    +0.000 S 
ATOM      9  C   UNL     1       3.960   5.343  17.899  0.00  0.00    +0.000 C 
ENDROOT
BRANCH   6  10
ATOM     10  N   UNL     1       1.437   6.430  21.297  0.00  0.00    +0.000 N 
ATOM     11  C   UNL     1       1.386   7.759  20.946  0.00  0.00    +0.000 C 
ATOM     12  O   UNL     1       1.883   8.197  19.913  0.00  0.00    +0.000 OA
ATOM     13  H   UNL     1       1.079   6.169  22.211  0.00  0.00    +0.000 HD
BRANCH  11  14
ATOM     14  C   UNL     1       0.700   8.653  21.949  0.00  0.00    +0.000 C 
BRANCH  14  15
ATOM     15  O   UNL     1      -0.258   9.420  21.231  0.00  0.00    +0.000 OA
BRANCH  15  16
ATOM     16  C   UNL     1      -0.262  10.755  21.518  0.00  0.00    +0.000 A 
ATOM     17  C   UNL     1       0.527  11.715  20.883  0.00  0.00    +0.000 A 
ATOM     18  C   UNL     1       0.441  13.056  21.285  0.00  0.00    +0.000 A 
ATOM     19  C   UNL     1      -0.435  13.423  22.311  0.00  0.00    +0.000 A 
ATOM     20  F   UNL     1      -0.510  14.703  22.679  0.00  0.00    +0.000 F 
ATOM     21  C   UNL     1      -1.229  12.471  22.935  0.00  0.00    +0.000 A 
ATOM     22  C   UNL     1      -1.138  11.134  22.540  0.00  0.00    +0.000 A 
ENDBRANCH  15  16
ENDBRANCH  14  15
ENDBRANCH  11  14
ENDBRANCH   6  10
BRANCH   2  23
ATOM     23  C   UNL     1       4.359   2.065  19.979  0.00  0.00    +0.000 C 
ATOM     24  O   UNL     1       4.934   1.946  21.044  0.00  0.00    +0.000 OA
BRANCH  23  25
ATOM     25  OXT UNL     1       4.256   1.053  19.096  0.00  0.00    +0.000 OA
ATOM     26  HXT UNL     1       4.777   0.320  19.479  0.00  0.00    +0.000 HD
ENDBRANCH  23  25
ENDBRANCH   2  23
BRANCH   1  27
ATOM     27  C   UNL     1       6.029   4.265  18.755  0.00  0.00    +0.000 C 
BRANCH  27  28
ATOM     28  S   UNL     1       6.846   4.601  17.187  0.00  0.00    +0.000 S 
BRANCH  28  33
ATOM     29  C   UNL     1       8.865   9.478  18.889  0.00  0.00    +0.000 C 
ATOM     30  C   UNL     1       8.173   8.360  18.201  0.00  0.00    +0.000 A 
ATOM     31  N   UNL     1       7.480   8.469  17.086  0.00  0.00    +0.000 NA
ATOM     32  N   UNL     1       6.975   7.253  16.670  0.00  0.00    +0.000 NA
ATOM     33  C   UNL     1       7.307   6.269  17.483  0.00  0.00    +0.000 A 
ATOM     34  S   UNL     1       8.247   6.760  18.828  0.00  0.00    +0.000 S 
ENDBRANCH  28  33
ENDBRANCH  27  28
ENDBRANCH   1  27
TORSDOF 9
ENDMDL
MODEL 5
REMARK VINA RESULT:      -8.0      0.974      1.391
REMARK  Name = 
REMARK  10 active torsions:
REMARK  status: ('A' for Active; 'I' for Inactive)
REMARK    1  A    between atoms: C_1  and  C_2
REMARK    2  A    between atoms: C_5  and  S_6
REMARK    3  A    between atoms: S_6  and  C_7
REMARK    4  A    between atoms: C_7  and  C_8
REMARK    5  A    between atoms: CA_9  and  C_10
REMARK    6  A    between atoms: C_10  and  OXT_12
REMARK    7  A    between atoms: CA_16  and  N_17
REMARK    8  A    between atoms: C_18  and  C_20
REMARK    9  A    between atoms: C_20  and  O_21
REMARK   10  A    between atoms: O_21  and  C_22
REMARK                            x       y       z     vdW  Elec       q    Type
REMARK                         _______ _______ _______ _____ _____    ______ ____
ROOT
ATOM      1  C   UNL     1       4.088   3.761  18.311  0.00  0.00    +0.000 C 
ATOM      2  CA  UNL     1       3.564   2.976  19.287  0.00  0.00    +0.000 C 
ATOM      3  N   UNL     1       2.305   3.181  19.873  0.00  0.00    +0.000 N 
ATOM      4  C   UNL     1       2.363   3.833  21.098  0.00  0.00    +0.000 C 
ATOM      5  O   UNL     1       2.682   3.466  22.207  0.00  0.00    +0.000 OA
ATOM      6  CA  UNL     1       2.124   5.207  20.366  0.00  0.00    +0.000 C 
ATOM      7  C   UNL     1       1.412   4.257  19.361  0.00  0.00    +0.000 C 
ATOM      8  S   UNL     1       1.535   4.522  17.592  0.00  0.00    +0.000 S 
ATOM      9  C   UNL     1       3.295   4.731  17.480  0.00  0.00    +0.000 C 
ENDROOT
BRANCH   6  10
ATOM     10  N   UNL     1       1.355   6.237  21.094  0.00  0.00    +0.000 N 
ATOM     11  C   UNL     1       1.486   7.576  20.807  0.00  0.00    +0.000 C 
ATOM     12  O   UNL     1       2.108   7.994  19.835  0.00  0.00    +0.000 OA
ATOM     13  H   UNL     1       0.900   5.983  21.966  0.00  0.00    +0.000 HD
BRANCH  11  14
ATOM     14  C   UNL     1       0.836   8.503  21.804  0.00  0.00    +0.000 C 
BRANCH  14  15
ATOM     15  O   UNL     1       1.173   9.829  21.416  0.00  0.00    +0.000 OA
BRANCH  15  16
ATOM     16  C   UNL     1       0.109  10.640  21.145  0.00  0.00    +0.000 A 
ATOM     17  C   UNL     1      -0.477  11.525  22.051  0.00  0.00    +0.000 A 
ATOM     18  C   UNL     1      -1.581  12.293  21.651  0.00  0.00    +0.000 A 
ATOM     19  C   UNL     1      -2.082  12.172  20.352  0.00  0.00    +0.000 A 
ATOM     20  F   UNL     1      -3.129  12.914  19.984  0.00  0.00    +0.000 F 
ATOM     21  C   UNL     1      -1.492  11.302  19.447  0.00  0.00    +0.000 A 
ATOM     22  C   UNL     1      -0.398  10.531  19.846  0.00  0.00    +0.000 A 
ENDBRANCH  15  16
ENDBRANCH  14  15
ENDBRANCH  11  14
ENDBRANCH   6  10
BRANCH   2  23
ATOM     23  C   UNL     1       4.372   1.892  19.931  0.00  0.00    +0.000 C 
ATOM     24  O   UNL     1       4.483   0.735  19.577  0.00  0.00    +0.000 OA
BRANCH  23  25
ATOM     25  OXT UNL     1       4.926   2.358  21.068  0.00  0.00    +0.000 OA
ATOM     26  HXT UNL     1       4.741   1.677  21.745  0.00  0.00    +0.000 HD
ENDBRANCH  23  25
ENDBRANCH   2  23
BRANCH   1  27
ATOM     27  C   UNL     1       5.577   3.942  18.069  0.00  0.00    +0.000 C 
BRANCH  27  28
ATOM     28  S   UNL     1       6.062   5.592  17.538  0.00  0.00    +0.000 S 
BRANCH  28  33
ATOM     29  C   UNL     1       6.749   3.844  12.319  0.00  0.00    +0.000 C 
ATOM     30  C   UNL     1       6.856   4.467  13.663  0.00  0.00    +0.000 A 
ATOM     31  N   UNL     1       7.784   5.329  14.025  0.00  0.00    +0.000 NA
ATOM     32  N   UNL     1       7.611   5.757  15.327  0.00  0.00    +0.000 NA
ATOM     33  C   UNL     1       6.559   5.206  15.899  0.00  0.00    +0.000 A 
ATOM     34  S   UNL     1       5.711   4.108  14.894  0.00  0.00    +0.000 S 
ENDBRANCH  28  33
ENDBRANCH  27  28
ENDBRANCH   1  27
TORSDOF 9
ENDMDL
MODEL 6
REMARK VINA RESULT:      -7.9      1.827      2.081
REMARK  Name = 
REMARK  10 active torsions:
REMARK  status: ('A' for Active; 'I' for Inactive)
REMARK    1  A    between atoms: C_1  and  C_2
REMARK    2  A    between atoms: C_5  and  S_6
REMARK    3  A    between atoms: S_6  and  C_7
REMARK    4  A    between atoms: C_7  and  C_8
REMARK    5  A    between atoms: CA_9  and  C_10
REMARK    6  A    between atoms: C_10  and  OXT_12
REMARK    7  A    between atoms: CA_16  and  N_17
REMARK    8  A    between atoms: C_18  and  C_20
REMARK    9  A    between atoms: C_20  and  O_21
REMARK   10  A    between atoms: O_21  and  C_22
REMARK                            x       y       z     vdW  Elec       q    Type
REMARK                         _______ _______ _______ _____ _____    ______ ____
ROOT
ATOM      1  C   UNL     1       4.459   4.947  18.322  0.00  0.00    +0.000 C 
ATOM      2  CA  UNL     1       3.298   4.256  18.452  0.00  0.00    +0.000 C 
ATOM      3  N   UNL     1       2.048   4.850  18.690  0.00  0.00    +0.000 N 
ATOM      4  C   UNL     1       1.659   4.810  20.022  0.00  0.00    +0.000 C 
ATOM      5  O   UNL     1       1.232   3.920  20.724  0.00  0.00    +0.000 OA
ATOM      6  CA  UNL     1       2.260   6.250  20.231  0.00  0.00    +0.000 C 
ATOM      7  C   UNL     1       1.921   6.333  18.714  0.00  0.00    +0.000 C 
ATOM      8  S   UNL     1       3.014   7.174  17.568  0.00  0.00    +0.000 S 
ATOM      9  C   UNL     1       4.546   6.427  18.068  0.00  0.00    +0.000 C 
ENDROOT
BRANCH   6  10
ATOM     10  N   UNL     1       1.579   7.135  21.198  0.00  0.00    +0.000 N 
ATOM     11  C   UNL     1       1.378   8.471  20.940  0.00  0.00    +0.000 C 
ATOM     12  O   UNL     1       1.590   8.980  19.843  0.00  0.00    +0.000 OA
ATOM     13  H   UNL     1       1.465   6.816  22.156  0.00  0.00    +0.000 HD
BRANCH  11  14
ATOM     14  C   UNL     1       0.909   9.280  22.123  0.00  0.00    +0.000 C 
BRANCH  14  15
ATOM     15  O   UNL     1       0.959  10.647  21.735  0.00  0.00    +0.000 OA
BRANCH  15  16
ATOM     16  C   UNL     1      -0.230  11.314  21.815  0.00  0.00    +0.000 A 
ATOM     17  C   UNL     1      -0.704  12.227  20.871  0.00  0.00    +0.000 A 
ATOM     18  C   UNL     1      -1.938  12.860  21.081  0.00  0.00    +0.000 A 
ATOM     19  C   UNL     1      -2.686  12.570  22.226  0.00  0.00    +0.000 A 
ATOM     20  F   UNL     1      -3.861  13.175  22.409  0.00  0.00    +0.000 F 
ATOM     21  C   UNL     1      -2.222  11.654  23.159  0.00  0.00    +0.000 A 
ATOM     22  C   UNL     1      -0.989  11.029  22.954  0.00  0.00    +0.000 A 
ENDBRANCH  15  16
ENDBRANCH  14  15
ENDBRANCH  11  14
ENDBRANCH   6  10
BRANCH   2  23
ATOM     23  C   UNL     1       3.285   2.760  18.501  0.00  0.00    +0.000 C 
ATOM     24  O   UNL     1       3.857   2.035  19.291  0.00  0.00    +0.000 OA
BRANCH  23  25
ATOM     25  OXT UNL     1       2.592   2.278  17.449  0.00  0.00    +0.000 OA
ATOM     26  HXT UNL     1       2.970   2.722  16.665  0.00  0.00    +0.000 HD
ENDBRANCH  23  25
ENDBRANCH   2  23
BRANCH   1  27
ATOM     27  C   UNL     1       5.832   4.378  18.637  0.00  0.00    +0.000 C 
BRANCH  27  28
ATOM     28  S   UNL     1       7.214   5.349  18.017  0.00  0.00    +0.000 S 
BRANCH  28  33
ATOM     29  C   UNL     1       5.915   3.604  12.916  0.00  0.00    +0.000 C 
ATOM     30  C   UNL     1       6.467   4.279  14.117  0.00  0.00    +0.000 A 
ATOM     31  N   UNL     1       7.277   5.317  14.097  0.00  0.00    +0.000 NA
ATOM     32  N   UNL     1       7.602   5.744  15.370  0.00  0.00    +0.000 NA
ATOM     33  C   UNL     1       7.024   5.015  16.304  0.00  0.00    +0.000 A 
ATOM     34  S   UNL     1       6.053   3.741  15.697  0.00  0.00    +0.000 S 
ENDBRANCH  28  33
ENDBRANCH  27  28
ENDBRANCH   1  27
TORSDOF 9
ENDMDL
MODEL 7
REMARK VINA RESULT:      -7.8      1.481      2.343
REMARK  Name = 
REMARK  10 active torsions:
REMARK  status: ('A' for Active; 'I' for Inactive)
REMARK    1  A    between atoms: C_1  and  C_2
REMARK    2  A    between atoms: C_5  and  S_6
REMARK    3  A    between atoms: S_6  and  C_7
REMARK    4  A    between atoms: C_7  and  C_8
REMARK    5  A    between atoms: CA_9  and  C_10
REMARK    6  A    between atoms: C_10  and  OXT_12
REMARK    7  A    between atoms: CA_16  and  N_17
REMARK    8  A    between atoms: C_18  and  C_20
REMARK    9  A    between atoms: C_20  and  O_21
REMARK   10  A    between atoms: O_21  and  C_22
REMARK                            x       y       z     vdW  Elec       q    Type
REMARK                         _______ _______ _______ _____ _____    ______ ____
ROOT
ATOM      1  C   UNL     1       4.163   3.494  18.344  0.00  0.00    +0.000 C 
ATOM      2  CA  UNL     1       3.638   2.737  19.341  0.00  0.00    +0.000 C 
ATOM      3  N   UNL     1       2.348   2.910  19.867  0.00  0.00    +0.000 N 
ATOM      4  C   UNL     1       2.325   3.628  21.056  0.00  0.00    +0.000 C 
ATOM      5  O   UNL     1       2.617   3.337  22.194  0.00  0.00    +0.000 OA
ATOM      6  CA  UNL     1       2.050   4.948  20.241  0.00  0.00    +0.000 C 
ATOM      7  C   UNL     1       1.426   3.911  19.263  0.00  0.00    +0.000 C 
ATOM      8  S   UNL     1       1.608   4.088  17.488  0.00  0.00    +0.000 S 
ATOM      9  C   UNL     1       3.359   4.378  17.432  0.00  0.00    +0.000 C 
ENDROOT
BRANCH   6  10
ATOM     10  N   UNL     1       1.204   5.975  20.881  0.00  0.00    +0.000 N 
ATOM     11  C   UNL     1       1.437   7.318  20.703  0.00  0.00    +0.000 C 
ATOM     12  O   UNL     1       2.239   7.756  19.883  0.00  0.00    +0.000 OA
ATOM     13  H   UNL     1       0.591   5.698  21.643  0.00  0.00    +0.000 HD
BRANCH  11  14
ATOM     14  C   UNL     1       0.655   8.224  21.623  0.00  0.00    +0.000 C 
BRANCH  14  15
ATOM     15  O   UNL     1       1.265   9.506  21.557  0.00  0.00    +0.000 OA
BRANCH  15  16
ATOM     16  C   UNL     1       0.685  10.378  20.681  0.00  0.00    +0.000 A 
ATOM     17  C   UNL     1       1.143  11.669  20.412  0.00  0.00    +0.000 A 
ATOM     18  C   UNL     1       0.444  12.473  19.500  0.00  0.00    +0.000 A 
ATOM     19  C   UNL     1      -0.699  11.978  18.864  0.00  0.00    +0.000 A 
ATOM     20  F   UNL     1      -1.349  12.753  17.995  0.00  0.00    +0.000 F 
ATOM     21  C   UNL     1      -1.147  10.691  19.122  0.00  0.00    +0.000 A 
ATOM     22  C   UNL     1      -0.456   9.891  20.036  0.00  0.00    +0.000 A 
ENDBRANCH  15  16
ENDBRANCH  14  15
ENDBRANCH  11  14
ENDBRANCH   6  10
BRANCH   2  23
ATOM     23  C   UNL     1       4.470   1.731  20.074  0.00  0.00    +0.000 C 
ATOM     24  O   UNL     1       5.007   1.855  21.157  0.00  0.00    +0.000 OA
BRANCH  23  25
ATOM     25  OXT UNL     1       4.634   0.634  19.307  0.00  0.00    +0.000 OA
ATOM     26  HXT UNL     1       5.168   0.930  18.543  0.00  0.00    +0.000 HD
ENDBRANCH  23  25
ENDBRANCH   2  23
BRANCH   1  27
ATOM     27  C   UNL     1       5.650   3.737  18.149  0.00  0.00    +0.000 C 
BRANCH  27  28
ATOM     28  S   UNL     1       6.110   4.347  16.520  0.00  0.00    +0.000 S 
BRANCH  28  33
ATOM     29  C   UNL     1       8.596   8.834  18.629  0.00  0.00    +0.000 C 
ATOM     30  C   UNL     1       7.764   7.857  17.882  0.00  0.00    +0.000 A 
ATOM     31  N   UNL     1       6.952   8.159  16.889  0.00  0.00    +0.000 NA
ATOM     32  N   UNL     1       6.332   7.038  16.371  0.00  0.00    +0.000 NA
ATOM     33  C   UNL     1       6.699   5.933  16.988  0.00  0.00    +0.000 A 
ATOM     34  S   UNL     1       7.818   6.181  18.262  0.00  0.00    +0.000 S 
ENDBRANCH  28  33
ENDBRANCH  27  28
ENDBRANCH   1  27
TORSDOF 9
ENDMDL
MODEL 8
REMARK VINA RESULT:      -7.7      1.739      2.514
REMARK  Name = 
REMARK  10 active torsions:
REMARK  status: ('A' for Active; 'I' for Inactive)
REMARK    1  A    between atoms: C_1  and  C_2
REMARK    2  A    between atoms: C_5  and  S_6
REMARK    3  A    between atoms: S_6  and  C_7
REMARK    4  A    between atoms: C_7  and  C_8
REMARK    5  A    between atoms: CA_9  and  C_10
REMARK    6  A    between atoms: C_10  and  OXT_12
REMARK    7  A    between atoms: CA_16  and  N_17
REMARK    8  A    between atoms: C_18  and  C_20
REMARK    9  A    between atoms: C_20  and  O_21
REMARK   10  A    between atoms: O_21  and  C_22
REMARK                            x       y       z     vdW  Elec       q    Type
REMARK                         _______ _______ _______ _____ _____    ______ ____
ROOT
ATOM      1  C   UNL     1       3.889   3.293  18.078  0.00  0.00    +0.000 C 
ATOM      2  CA  UNL     1       3.433   2.592  19.148  0.00  0.00    +0.000 C 
ATOM      3  N   UNL     1       2.248   2.890  19.839  0.00  0.00    +0.000 N 
ATOM      4  C   UNL     1       2.453   3.610  21.009  0.00  0.00    +0.000 C 
ATOM      5  O   UNL     1       2.866   3.295  22.102  0.00  0.00    +0.000 OA
ATOM      6  CA  UNL     1       2.197   4.948  20.218  0.00  0.00    +0.000 C 
ATOM      7  C   UNL     1       1.352   3.972  19.348  0.00  0.00    +0.000 C 
ATOM      8  S   UNL     1       1.309   4.126  17.562  0.00  0.00    +0.000 S 
ATOM      9  C   UNL     1       3.057   4.247  17.268  0.00  0.00    +0.000 C 
ENDROOT
BRANCH   6  10
ATOM     10  N   UNL     1       1.545   6.053  20.948  0.00  0.00    +0.000 N 
ATOM     11  C   UNL     1       1.694   7.364  20.561  0.00  0.00    +0.000 C 
ATOM     12  O   UNL     1       2.226   7.694  19.505  0.00  0.00    +0.000 OA
ATOM     13  H   UNL     1       1.175   5.873  21.878  0.00  0.00    +0.000 HD
BRANCH  11  14
ATOM     14  C   UNL     1       1.185   8.379  21.554  0.00  0.00    +0.000 C 
BRANCH  14  15
ATOM     15  O   UNL     1       1.043   9.608  20.854  0.00  0.00    +0.000 OA
BRANCH  15  16
ATOM     16  C   UNL     1       0.025  10.407  21.289  0.00  0.00    +0.000 A 
ATOM     17  C   UNL     1      -0.630  11.366  20.515  0.00  0.00    +0.000 A 
ATOM     18  C   UNL     1      -1.652  12.137  21.089  0.00  0.00    +0.000 A 
ATOM     19  C   UNL     1      -2.011  11.938  22.425  0.00  0.00    +0.000 A 
ATOM     20  F   UNL     1      -2.989  12.674  22.955  0.00  0.00    +0.000 F 
ATOM     21  C   UNL     1      -1.369  10.976  23.192  0.00  0.00    +0.000 A 
ATOM     22  C   UNL     1      -0.346  10.213  22.623  0.00  0.00    +0.000 A 
ENDBRANCH  15  16
ENDBRANCH  14  15
ENDBRANCH  11  14
ENDBRANCH   6  10
BRANCH   2  23
ATOM     23  C   UNL     1       4.258   1.514  19.779  0.00  0.00    +0.000 C 
ATOM     24  O   UNL     1       4.949   1.591  20.776  0.00  0.00    +0.000 OA
BRANCH  23  25
ATOM     25  OXT UNL     1       4.207   0.402  19.018  0.00  0.00    +0.000 OA
ATOM     26  HXT UNL     1       5.098   0.005  19.080  0.00  0.00    +0.000 HD
ENDBRANCH  23  25
ENDBRANCH   2  23
BRANCH   1  27
ATOM     27  C   UNL     1       5.353   3.392  17.683  0.00  0.00    +0.000 C 
BRANCH  27  28
ATOM     28  S   UNL     1       5.654   4.150  16.078  0.00  0.00    +0.000 S 
BRANCH  28  33
ATOM     29  C   UNL     1       8.390   8.192  18.712  0.00  0.00    +0.000 C 
ATOM     30  C   UNL     1       7.775   7.261  17.732  0.00  0.00    +0.000 A 
ATOM     31  N   UNL     1       7.985   7.282  16.433  0.00  0.00    +0.000 NA
ATOM     32  N   UNL     1       7.298   6.277  15.781  0.00  0.00    +0.000 NA
ATOM     33  C   UNL     1       6.596   5.532  16.612  0.00  0.00    +0.000 A 
ATOM     34  S   UNL     1       6.709   6.015  18.252  0.00  0.00    +0.000 S 
ENDBRANCH  28  33
ENDBRANCH  27  28
ENDBRANCH   1  27
TORSDOF 9
ENDMDL
MODEL 9
REMARK VINA RESULT:      -7.7      1.984      2.362
REMARK  Name = 
REMARK  10 active torsions:
REMARK  status: ('A' for Active; 'I' for Inactive)
REMARK    1  A    between atoms: C_1  and  C_2
REMARK    2  A    between atoms: C_5  and  S_6
REMARK    3  A    between atoms: S_6  and  C_7
REMARK    4  A    between atoms: C_7  and  C_8
REMARK    5  A    between atoms: CA_9  and  C_10
REMARK    6  A    between atoms: C_10  and  OXT_12
REMARK    7  A    between atoms: CA_16  and  N_17
REMARK    8  A    between atoms: C_18  and  C_20
REMARK    9  A    between atoms: C_20  and  O_21
REMARK   10  A    between atoms: O_21  and  C_22
REMARK                            x       y       z     vdW  Elec       q    Type
REMARK                         _______ _______ _______ _____ _____    ______ ____
ROOT
ATOM      1  C   UNL     1       4.435   4.959  18.322  0.00  0.00    +0.000 C 
ATOM      2  CA  UNL     1       3.235   4.335  18.445  0.00  0.00    +0.000 C 
ATOM      3  N   UNL     1       2.022   4.999  18.688  0.00  0.00    +0.000 N 
ATOM      4  C   UNL     1       1.630   4.970  20.020  0.00  0.00    +0.000 C 
ATOM      5  O   UNL     1       1.152   4.101  20.714  0.00  0.00    +0.000 OA
ATOM      6  CA  UNL     1       2.314   6.371  20.242  0.00  0.00    +0.000 C 
ATOM      7  C   UNL     1       1.982   6.487  18.726  0.00  0.00    +0.000 C 
ATOM      8  S   UNL     1       3.122   7.273  17.587  0.00  0.00    +0.000 S 
ATOM      9  C   UNL     1       4.607   6.433  18.081  0.00  0.00    +0.000 C 
ENDROOT
BRANCH   6  10
ATOM     10  N   UNL     1       1.685   7.286  21.216  0.00  0.00    +0.000 N 
ATOM     11  C   UNL     1       1.330   8.570  20.879  0.00  0.00    +0.000 C 
ATOM     12  O   UNL     1       1.350   8.989  19.725  0.00  0.00    +0.000 OA
ATOM     13  H   UNL     1       1.726   7.050  22.204  0.00  0.00    +0.000 HD
BRANCH  11  14
ATOM     14  C   UNL     1       0.945   9.447  22.044  0.00  0.00    +0.000 C 
BRANCH  14  15
ATOM     15  O   UNL     1       0.793  10.766  21.536  0.00  0.00    +0.000 OA
BRANCH  15  16
ATOM     16  C   UNL     1      -0.213  11.493  22.106  0.00  0.00    +0.000 A 
ATOM     17  C   UNL     1      -1.261  10.961  22.859  0.00  0.00    +0.000 A 
ATOM     18  C   UNL     1      -2.244  11.817  23.376  0.00  0.00    +0.000 A 
ATOM     19  C   UNL     1      -2.166  13.193  23.142  0.00  0.00    +0.000 A 
ATOM     20  F   UNL     1      -3.105  13.995  23.646  0.00  0.00    +0.000 F 
ATOM     21  C   UNL     1      -1.117  13.725  22.405  0.00  0.00    +0.000 A 
ATOM     22  C   UNL     1      -0.142  12.871  21.883  0.00  0.00    +0.000 A 
ENDBRANCH  15  16
ENDBRANCH  14  15
ENDBRANCH  11  14
ENDBRANCH   6  10
BRANCH   2  23
ATOM     23  C   UNL     1       3.135   2.842  18.481  0.00  0.00    +0.000 C 
ATOM     24  O   UNL     1       2.728   2.101  17.607  0.00  0.00    +0.000 OA
BRANCH  23  25
ATOM     25  OXT UNL     1       3.491   2.394  19.702  0.00  0.00    +0.000 OA
ATOM     26  HXT UNL     1       3.142   1.483  19.755  0.00  0.00    +0.000 HD
ENDBRANCH  23  25
ENDBRANCH   2  23
BRANCH   1  27
ATOM     27  C   UNL     1       5.772   4.308  18.632  0.00  0.00    +0.000 C 
BRANCH  27  28
ATOM     28  S   UNL     1       7.211   5.222  18.055  0.00  0.00    +0.000 S 
BRANCH  28  33
ATOM     29  C   UNL     1       5.948   3.616  12.899  0.00  0.00    +0.000 C 
ATOM     30  C   UNL     1       6.491   4.258  14.122  0.00  0.00    +0.000 A 
ATOM     31  N   UNL     1       7.300   5.298  14.136  0.00  0.00    +0.000 NA
ATOM     32  N   UNL     1       7.615   5.691  15.422  0.00  0.00    +0.000 NA
ATOM     33  C   UNL     1       7.032   4.936  16.332  0.00  0.00    +0.000 A 
ATOM     34  S   UNL     1       6.067   3.677  15.684  0.00  0.00    +0.000 S 
ENDBRANCH  28  33
ENDBRANCH  27  28
ENDBRANCH   1  27
TORSDOF 9
ENDMDL
