MODEL 1
REMARK VINA RESULT:      -9.2      0.000      0.000
REMARK  Name = 
REMARK  6 active torsions:
REMARK  status: ('A' for Active; 'I' for Inactive)
REMARK    1  A    between atoms: C_1  and  C_2
REMARK    2  A    between atoms: C_4  and  C_5
REMARK    3  A    between atoms: C_11  and  C_12
REMARK    4  A    between atoms: N_14  and  C_15
REMARK    5  A    between atoms: C_19  and  O_20
REMARK    6  A    between atoms: O_20  and  C_21
REMARK                            x       y       z     vdW  Elec       q    Type
REMARK                         _______ _______ _______ _____ _____    ______ ____
ROOT
ATOM      1  C   UNL     1       1.631   7.358  20.361  0.00  0.00    +0.000 C 
ATOM      2  O   UNL     1       1.251   7.242  21.520  0.00  0.00    +0.000 OA
ATOM      3  N   UNL     1       2.208   6.326  19.643  0.00  0.00    +0.000 N 
ATOM      4  H   UNL     1       2.204   6.433  18.638  0.00  0.00    +0.000 HD
ENDROOT
BRANCH   1  11
ATOM      5  C   UNL     1      -0.523  11.957  19.801  0.00  0.00    +0.000 A 
ATOM      6  N   UNL     1      -0.348  12.878  18.837  0.00  0.00    +0.000 NA
ATOM      7  N   UNL     1       0.594  12.359  18.043  0.00  0.00    +0.000 N 
ATOM      8  C   UNL     1       1.027  11.113  18.414  0.00  0.00    +0.000 A 
ATOM      9  C   UNL     1       1.973  10.244  17.860  0.00  0.00    +0.000 A 
ATOM     10  C   UNL     1       2.170   9.007  18.496  0.00  0.00    +0.000 A 
ATOM     11  C   UNL     1       1.443   8.657  19.642  0.00  0.00    +0.000 A 
ATOM     12  C   UNL     1       0.515   9.560  20.183  0.00  0.00    +0.000 A 
ATOM     13  C   UNL     1       0.307  10.813  19.561  0.00  0.00    +0.000 A 
ATOM     14  H   UNL     1       0.905  12.898  17.247  0.00  0.00    +0.000 HD
BRANCH   5  18
ATOM     15  C   UNL     1      -5.101  13.124  21.445  0.00  0.00    +0.000 C 
ATOM     16  C   UNL     1      -3.672  12.746  21.694  0.00  0.00    +0.000 A 
ATOM     17  C   UNL     1      -2.806  12.510  20.632  0.00  0.00    +0.000 A 
ATOM     18  C   UNL     1      -1.476  12.167  20.893  0.00  0.00    +0.000 A 
ATOM     19  C   UNL     1      -1.072  12.038  22.222  0.00  0.00    +0.000 A 
ATOM     20  C   UNL     1      -1.999  12.285  23.218  0.00  0.00    +0.000 A 
ATOM     21  N   UNL     1      -3.281  12.644  22.984  0.00  0.00    +0.000 NA
ENDBRANCH   5  18
ENDBRANCH   1  11
BRANCH   3  22
ATOM     22  C   UNL     1       2.346   4.974  20.203  0.00  0.00    +0.000 C 
ATOM     23  C   UNL     1       1.232   4.033  19.736  0.00  0.00    +0.000 C 
ATOM     24  C   UNL     1       1.327   3.734  18.238  0.00  0.00    +0.000 C 
ATOM     25  C   UNL     1       2.719   3.251  17.811  0.00  0.00    +0.000 C 
ATOM     26  C   UNL     1       3.844   4.167  18.321  0.00  0.00    +0.000 C 
ATOM     27  C   UNL     1       3.693   4.339  19.844  0.00  0.00    +0.000 C 
BRANCH  26  28
ATOM     28  O   UNL     1       5.117   3.595  17.969  0.00  0.00    +0.000 OA
BRANCH  28  29
ATOM     29  C   UNL     1       5.661   4.017  16.779  0.00  0.00    +0.000 A 
ATOM     30  C   UNL     1       4.983   3.969  15.553  0.00  0.00    +0.000 A 
ATOM     31  C   UNL     1       5.577   4.426  14.382  0.00  0.00    +0.000 A 
ATOM     32  C   UNL     1       6.861   4.935  14.425  0.00  0.00    +0.000 A 
ATOM     33  F   UNL     1       7.430   5.360  13.287  0.00  0.00    +0.000 F 
ATOM     34  C   UNL     1       7.563   5.009  15.621  0.00  0.00    +0.000 A 
ATOM     35  C   UNL     1       6.957   4.553  16.793  0.00  0.00    +0.000 A 
ATOM     36  F   UNL     1       7.656   4.616  17.935  0.00  0.00    +0.000 F 
ENDBRANCH  28  29
ENDBRANCH  26  28
ENDBRANCH   3  22
TORSDOF 5
ENDMDL
MODEL 2
REMARK VINA RESULT:      -9.2      1.614      1.994
REMARK  Name = 
REMARK  6 active torsions:
REMARK  status: ('A' for Active; 'I' for Inactive)
REMARK    1  A    between atoms: C_1  and  C_2
REMARK    2  A    between atoms: C_4  and  C_5
REMARK    3  A    between atoms: C_11  and  C_12
REMARK    4  A    between atoms: N_14  and  C_15
REMARK    5  A    between atoms: C_19  and  O_20
REMARK    6  A    between atoms: O_20  and  C_21
REMARK                            x       y       z     vdW  Elec       q    Type
REMARK                         _______ _______ _______ _____ _____    ______ ____
ROOT
ATOM      1  C   UNL     1       1.413   7.734  20.673  0.00  0.00    +0.000 C 
ATOM      2  O   UNL     1       1.498   7.794  21.894  0.00  0.00    +0.000 OA
ATOM      3  N   UNL     1       1.645   6.578  19.951  0.00  0.00    +0.000 N 
ATOM      4  H   UNL     1       1.263   6.560  19.015  0.00  0.00    +0.000 HD
ENDROOT
BRANCH   1  11
ATOM      5  C   UNL     1      -1.369  11.968  20.012  0.00  0.00    +0.000 A 
ATOM      6  N   UNL     1      -1.386  12.835  18.985  0.00  0.00    +0.000 NA
ATOM      7  N   UNL     1      -0.442  12.387  18.151  0.00  0.00    +0.000 N 
ATOM      8  C   UNL     1       0.179  11.236  18.560  0.00  0.00    +0.000 A 
ATOM      9  C   UNL     1       1.190  10.459  17.986  0.00  0.00    +0.000 A 
ATOM     10  C   UNL     1       1.595   9.305  18.677  0.00  0.00    +0.000 A 
ATOM     11  C   UNL     1       1.003   8.945  19.895  0.00  0.00    +0.000 A 
ATOM     12  C   UNL     1       0.004   9.757  20.454  0.00  0.00    +0.000 A 
ATOM     13  C   UNL     1      -0.413  10.926  19.776  0.00  0.00    +0.000 A 
ATOM     14  H   UNL     1      -0.262  12.905  17.302  0.00  0.00    +0.000 HD
BRANCH   5  18
ATOM     15  C   UNL     1      -5.808  13.200  21.961  0.00  0.00    +0.000 C 
ATOM     16  C   UNL     1      -4.389  12.739  22.111  0.00  0.00    +0.000 A 
ATOM     17  C   UNL     1      -3.583  12.553  20.994  0.00  0.00    +0.000 A 
ATOM     18  C   UNL     1      -2.262  12.130  21.162  0.00  0.00    +0.000 A 
ATOM     19  C   UNL     1      -1.807  11.872  22.455  0.00  0.00    +0.000 A 
ATOM     20  C   UNL     1      -2.676  12.077  23.512  0.00  0.00    +0.000 A 
ATOM     21  N   UNL     1      -3.948  12.512  23.369  0.00  0.00    +0.000 NA
ENDBRANCH   5  18
ENDBRANCH   1  11
BRANCH   3  22
ATOM     22  C   UNL     1       1.947   5.298  20.610  0.00  0.00    +0.000 C 
ATOM     23  C   UNL     1       0.991   4.181  20.179  0.00  0.00    +0.000 C 
ATOM     24  C   UNL     1       1.184   3.799  18.709  0.00  0.00    +0.000 C 
ATOM     25  C   UNL     1       2.645   3.489  18.358  0.00  0.00    +0.000 C 
ATOM     26  C   UNL     1       3.612   4.586  18.833  0.00  0.00    +0.000 C 
ATOM     27  C   UNL     1       3.381   4.836  20.335  0.00  0.00    +0.000 C 
BRANCH  26  28
ATOM     28  O   UNL     1       4.965   4.175  18.559  0.00  0.00    +0.000 OA
BRANCH  28  29
ATOM     29  C   UNL     1       5.867   5.186  18.327  0.00  0.00    +0.000 A 
ATOM     30  C   UNL     1       6.993   5.424  19.128  0.00  0.00    +0.000 A 
ATOM     31  C   UNL     1       7.881   6.452  18.836  0.00  0.00    +0.000 A 
ATOM     32  C   UNL     1       7.651   7.258  17.737  0.00  0.00    +0.000 A 
ATOM     33  F   UNL     1       8.507   8.257  17.472  0.00  0.00    +0.000 F 
ATOM     34  C   UNL     1       6.552   7.051  16.914  0.00  0.00    +0.000 A 
ATOM     35  C   UNL     1       5.668   6.012  17.211  0.00  0.00    +0.000 A 
ATOM     36  F   UNL     1       4.604   5.837  16.415  0.00  0.00    +0.000 F 
ENDBRANCH  28  29
ENDBRANCH  26  28
ENDBRANCH   3  22
TORSDOF 5
ENDMDL
MODEL 3
REMARK VINA RESULT:      -9.0      4.308     11.053
REMARK  Name = 
REMARK  6 active torsions:
REMARK  status: ('A' for Active; 'I' for Inactive)
REMARK    1  A    between atoms: C_1  and  C_2
REMARK    2  A    between atoms: C_4  and  C_5
REMARK    3  A    between atoms: C_11  and  C_12
REMARK    4  A    between atoms: N_14  and  C_15
REMARK    5  A    between atoms: C_19  and  O_20
REMARK    6  A    between atoms: O_20  and  C_21
REMARK                            x       y       z     vdW  Elec       q    Type
REMARK                         _______ _______ _______ _____ _____    ______ ____
ROOT
ATOM      1  C   UNL     1       1.949   8.961  18.627  0.00  0.00    +0.000 C 
ATOM      2  O   UNL     1       2.325   9.257  17.499  0.00  0.00    +0.000 OA
ATOM      3  N   UNL     1       1.296   9.843  19.467  0.00  0.00    +0.000 N 
ATOM      4  H   UNL     1       0.776   9.425  20.227  0.00  0.00    +0.000 HD
ENDROOT
BRANCH   1  11
ATOM      5  C   UNL     1       4.327   4.438  18.622  0.00  0.00    +0.000 A 
ATOM      6  N   UNL     1       4.102   3.346  19.373  0.00  0.00    +0.000 NA
ATOM      7  N   UNL     1       3.124   3.710  20.209  0.00  0.00    +0.000 N 
ATOM      8  C   UNL     1       2.661   4.985  20.022  0.00  0.00    +0.000 A 
ATOM      9  C   UNL     1       1.665   5.727  20.667  0.00  0.00    +0.000 A 
ATOM     10  C   UNL     1       1.427   7.033  20.207  0.00  0.00    +0.000 A 
ATOM     11  C   UNL     1       2.158   7.570  19.139  0.00  0.00    +0.000 A 
ATOM     12  C   UNL     1       3.163   6.806  18.527  0.00  0.00    +0.000 A 
ATOM     13  C   UNL     1       3.423   5.491  18.979  0.00  0.00    +0.000 A 
ATOM     14  H   UNL     1       2.800   3.040  20.893  0.00  0.00    +0.000 HD
BRANCH   5  18
ATOM     15  C   UNL     1       5.723   3.967  13.841  0.00  0.00    +0.000 C 
ATOM     16  C   UNL     1       6.043   4.206  15.286  0.00  0.00    +0.000 A 
ATOM     17  C   UNL     1       5.032   4.233  16.241  0.00  0.00    +0.000 A 
ATOM     18  C   UNL     1       5.359   4.449  17.582  0.00  0.00    +0.000 A 
ATOM     19  C   UNL     1       6.697   4.668  17.913  0.00  0.00    +0.000 A 
ATOM     20  C   UNL     1       7.639   4.630  16.900  0.00  0.00    +0.000 A 
ATOM     21  N   UNL     1       7.344   4.396  15.603  0.00  0.00    +0.000 NA
ENDBRANCH   5  18
ENDBRANCH   1  11
BRANCH   3  22
ATOM     22  C   UNL     1       0.935  11.202  19.037  0.00  0.00    +0.000 C 
ATOM     23  C   UNL     1      -0.415  11.247  18.315  0.00  0.00    +0.000 C 
ATOM     24  C   UNL     1      -1.577  10.927  19.257  0.00  0.00    +0.000 C 
ATOM     25  C   UNL     1      -1.566  11.779  20.533  0.00  0.00    +0.000 C 
ATOM     26  C   UNL     1      -0.198  11.777  21.233  0.00  0.00    +0.000 C 
ATOM     27  C   UNL     1       0.883  12.182  20.214  0.00  0.00    +0.000 C 
BRANCH  26  28
ATOM     28  O   UNL     1      -0.238  12.675  22.357  0.00  0.00    +0.000 OA
BRANCH  28  29
ATOM     29  C   UNL     1      -1.489  13.061  22.776  0.00  0.00    +0.000 A 
ATOM     30  C   UNL     1      -2.008  14.351  22.595  0.00  0.00    +0.000 A 
ATOM     31  C   UNL     1      -3.288  14.681  23.026  0.00  0.00    +0.000 A 
ATOM     32  C   UNL     1      -4.065  13.722  23.646  0.00  0.00    +0.000 A 
ATOM     33  F   UNL     1      -5.293  14.054  24.071  0.00  0.00    +0.000 F 
ATOM     34  C   UNL     1      -3.591  12.430  23.837  0.00  0.00    +0.000 A 
ATOM     35  C   UNL     1      -2.307  12.106  23.396  0.00  0.00    +0.000 A 
ATOM     36  F   UNL     1      -1.861  10.859  23.604  0.00  0.00    +0.000 F 
ENDBRANCH  28  29
ENDBRANCH  26  28
ENDBRANCH   3  22
TORSDOF 5
ENDMDL
MODEL 4
REMARK VINA RESULT:      -9.0      4.218     10.058
REMARK  Name = 
REMARK  6 active torsions:
REMARK  status: ('A' for Active; 'I' for Inactive)
REMARK    1  A    between atoms: C_1  and  C_2
REMARK    2  A    between atoms: C_4  and  C_5
REMARK    3  A    between atoms: C_11  and  C_12
REMARK    4  A    between atoms: N_14  and  C_15
REMARK    5  A    between atoms: C_19  and  O_20
REMARK    6  A    between atoms: O_20  and  C_21
REMARK                            x       y       z     vdW  Elec       q    Type
REMARK                         _______ _______ _______ _____ _____    ______ ____
ROOT
ATOM      1  C   UNL     1       1.665   9.287  18.446  0.00  0.00    +0.000 C 
ATOM      2  O   UNL     1       2.089   9.673  17.364  0.00  0.00    +0.000 OA
ATOM      3  N   UNL     1       0.800  10.027  19.232  0.00  0.00    +0.000 N 
ATOM      4  H   UNL     1       0.288   9.507  19.933  0.00  0.00    +0.000 HD
ENDROOT
BRANCH   1  11
ATOM      5  C   UNL     1       4.469   5.018  18.299  0.00  0.00    +0.000 A 
ATOM      6  N   UNL     1       4.417   3.927  19.082  0.00  0.00    +0.000 NA
ATOM      7  N   UNL     1       3.482   4.211  19.994  0.00  0.00    +0.000 N 
ATOM      8  C   UNL     1       2.881   5.432  19.830  0.00  0.00    +0.000 A 
ATOM      9  C   UNL     1       1.874   6.087  20.547  0.00  0.00    +0.000 A 
ATOM     10  C   UNL     1       1.470   7.353  20.092  0.00  0.00    +0.000 A 
ATOM     11  C   UNL     1       2.052   7.935  18.958  0.00  0.00    +0.000 A 
ATOM     12  C   UNL     1       3.073   7.259  18.272  0.00  0.00    +0.000 A 
ATOM     13  C   UNL     1       3.498   5.986  18.718  0.00  0.00    +0.000 A 
ATOM     14  H   UNL     1       3.284   3.528  20.711  0.00  0.00    +0.000 HD
BRANCH   5  18
ATOM     15  C   UNL     1       5.836   3.803  13.643  0.00  0.00    +0.000 C 
ATOM     16  C   UNL     1       6.079   4.512  14.942  0.00  0.00    +0.000 A 
ATOM     17  C   UNL     1       5.149   4.443  15.972  0.00  0.00    +0.000 A 
ATOM     18  C   UNL     1       5.404   5.107  17.175  0.00  0.00    +0.000 A 
ATOM     19  C   UNL     1       6.578   5.853  17.286  0.00  0.00    +0.000 A 
ATOM     20  C   UNL     1       7.448   5.874  16.209  0.00  0.00    +0.000 A 
ATOM     21  N   UNL     1       7.229   5.215  15.050  0.00  0.00    +0.000 NA
ENDBRANCH   5  18
ENDBRANCH   1  11
BRANCH   3  22
ATOM     22  C   UNL     1       0.261  11.320  18.787  0.00  0.00    +0.000 C 
ATOM     23  C   UNL     1      -0.944  11.768  19.620  0.00  0.00    +0.000 C 
ATOM     24  C   UNL     1      -0.550  12.101  21.061  0.00  0.00    +0.000 C 
ATOM     25  C   UNL     1       0.622  13.088  21.149  0.00  0.00    +0.000 C 
ATOM     26  C   UNL     1       1.814  12.666  20.274  0.00  0.00    +0.000 C 
ATOM     27  C   UNL     1       1.317  12.429  18.836  0.00  0.00    +0.000 C 
BRANCH  26  28
ATOM     28  O   UNL     1       2.827  13.688  20.329  0.00  0.00    +0.000 OA
BRANCH  28  29
ATOM     29  C   UNL     1       2.705  14.709  19.417  0.00  0.00    +0.000 A 
ATOM     30  C   UNL     1       1.810  15.778  19.559  0.00  0.00    +0.000 A 
ATOM     31  C   UNL     1       1.742  16.792  18.611  0.00  0.00    +0.000 A 
ATOM     32  C   UNL     1       2.569  16.747  17.505  0.00  0.00    +0.000 A 
ATOM     33  F   UNL     1       2.485  17.723  16.589  0.00  0.00    +0.000 F 
ATOM     34  C   UNL     1       3.475  15.709  17.331  0.00  0.00    +0.000 A 
ATOM     35  C   UNL     1       3.542  14.698  18.291  0.00  0.00    +0.000 A 
ATOM     36  F   UNL     1       4.411  13.696  18.098  0.00  0.00    +0.000 F 
ENDBRANCH  28  29
ENDBRANCH  26  28
ENDBRANCH   3  22
TORSDOF 5
ENDMDL
MODEL 5
REMARK VINA RESULT:      -9.0      1.902      2.434
REMARK  Name = 
REMARK  6 active torsions:
REMARK  status: ('A' for Active; 'I' for Inactive)
REMARK    1  A    between atoms: C_1  and  C_2
REMARK    2  A    between atoms: C_4  and  C_5
REMARK    3  A    between atoms: C_11  and  C_12
REMARK    4  A    between atoms: N_14  and  C_15
REMARK    5  A    between atoms: C_19  and  O_20
REMARK    6  A    between atoms: O_20  and  C_21
REMARK                            x       y       z     vdW  Elec       q    Type
REMARK                         _______ _______ _______ _____ _____    ______ ____
ROOT
ATOM      1  C   UNL     1       1.394   8.186  20.594  0.00  0.00    +0.000 C 
ATOM      2  O   UNL     1       1.648   8.327  21.784  0.00  0.00    +0.000 OA
ATOM      3  N   UNL     1       1.718   7.048  19.877  0.00  0.00    +0.000 N 
ATOM      4  H   UNL     1       1.210   6.913  19.013  0.00  0.00    +0.000 HD
ENDROOT
BRANCH   1  11
ATOM      5  C   UNL     1      -1.438  12.435  20.412  0.00  0.00    +0.000 A 
ATOM      6  N   UNL     1      -1.927  13.099  19.349  0.00  0.00    +0.000 NA
ATOM      7  N   UNL     1      -1.453  12.434  18.291  0.00  0.00    +0.000 N 
ATOM      8  C   UNL     1      -0.701  11.332  18.601  0.00  0.00    +0.000 A 
ATOM      9  C   UNL     1      -0.047  10.386  17.804  0.00  0.00    +0.000 A 
ATOM     10  C   UNL     1       0.640   9.348  18.458  0.00  0.00    +0.000 A 
ATOM     11  C   UNL     1       0.664   9.264  19.856  0.00  0.00    +0.000 A 
ATOM     12  C   UNL     1       0.013  10.240  20.626  0.00  0.00    +0.000 A 
ATOM     13  C   UNL     1      -0.678  11.295  19.988  0.00  0.00    +0.000 A 
ATOM     14  H   UNL     1      -1.680  12.773  17.366  0.00  0.00    +0.000 HD
BRANCH   5  18
ATOM     15  C   UNL     1      -4.317  12.414  24.502  0.00  0.00    +0.000 C 
ATOM     16  C   UNL     1      -3.110  12.883  23.747  0.00  0.00    +0.000 A 
ATOM     17  C   UNL     1      -2.849  12.413  22.465  0.00  0.00    +0.000 A 
ATOM     18  C   UNL     1      -1.721  12.872  21.780  0.00  0.00    +0.000 A 
ATOM     19  C   UNL     1      -0.870  13.768  22.428  0.00  0.00    +0.000 A 
ATOM     20  C   UNL     1      -1.200  14.182  23.707  0.00  0.00    +0.000 A 
ATOM     21  N   UNL     1      -2.301  13.768  24.373  0.00  0.00    +0.000 NA
ENDBRANCH   5  18
ENDBRANCH   1  11
BRANCH   3  22
ATOM     22  C   UNL     1       2.338   5.878  20.516  0.00  0.00    +0.000 C 
ATOM     23  C   UNL     1       1.402   4.666  20.543  0.00  0.00    +0.000 C 
ATOM     24  C   UNL     1       1.136   4.118  19.139  0.00  0.00    +0.000 C 
ATOM     25  C   UNL     1       2.423   3.849  18.347  0.00  0.00    +0.000 C 
ATOM     26  C   UNL     1       3.385   5.047  18.360  0.00  0.00    +0.000 C 
ATOM     27  C   UNL     1       3.638   5.466  19.820  0.00  0.00    +0.000 C 
BRANCH  26  28
ATOM     28  O   UNL     1       4.605   4.683  17.688  0.00  0.00    +0.000 OA
BRANCH  28  29
ATOM     29  C   UNL     1       5.694   5.483  17.936  0.00  0.00    +0.000 A 
ATOM     30  C   UNL     1       6.683   5.181  18.883  0.00  0.00    +0.000 A 
ATOM     31  C   UNL     1       7.773   6.020  19.081  0.00  0.00    +0.000 A 
ATOM     32  C   UNL     1       7.885   7.177  18.334  0.00  0.00    +0.000 A 
ATOM     33  F   UNL     1       8.933   7.988  18.542  0.00  0.00    +0.000 F 
ATOM     34  C   UNL     1       6.931   7.509  17.380  0.00  0.00    +0.000 A 
ATOM     35  C   UNL     1       5.843   6.657  17.183  0.00  0.00    +0.000 A 
ATOM     36  F   UNL     1       4.924   7.002  16.271  0.00  0.00    +0.000 F 
ENDBRANCH  28  29
ENDBRANCH  26  28
ENDBRANCH   3  22
TORSDOF 5
ENDMDL
MODEL 6
REMARK VINA RESULT:      -9.0      4.340     10.126
REMARK  Name = 
REMARK  6 active torsions:
REMARK  status: ('A' for Active; 'I' for Inactive)
REMARK    1  A    between atoms: C_1  and  C_2
REMARK    2  A    between atoms: C_4  and  C_5
REMARK    3  A    between atoms: C_11  and  C_12
REMARK    4  A    between atoms: N_14  and  C_15
REMARK    5  A    between atoms: C_19  and  O_20
REMARK    6  A    between atoms: O_20  and  C_21
REMARK                            x       y       z     vdW  Elec       q    Type
REMARK                         _______ _______ _______ _____ _____    ______ ____
ROOT
ATOM      1  C   UNL     1       1.751   9.019  18.445  0.00  0.00    +0.000 C 
ATOM      2  O   UNL     1       2.209   9.476  17.405  0.00  0.00    +0.000 OA
ATOM      3  N   UNL     1       0.813   9.680  19.218  0.00  0.00    +0.000 N 
ATOM      4  H   UNL     1       0.293   9.105  19.867  0.00  0.00    +0.000 HD
ENDROOT
BRANCH   1  11
ATOM      5  C   UNL     1       4.616   4.802  18.111  0.00  0.00    +0.000 A 
ATOM      6  N   UNL     1       4.606   3.693  18.871  0.00  0.00    +0.000 NA
ATOM      7  N   UNL     1       3.699   3.942  19.819  0.00  0.00    +0.000 N 
ATOM      8  C   UNL     1       3.073   5.156  19.702  0.00  0.00    +0.000 A 
ATOM      9  C   UNL     1       2.081   5.779  20.467  0.00  0.00    +0.000 A 
ATOM     10  C   UNL     1       1.642   7.048  20.053  0.00  0.00    +0.000 A 
ATOM     11  C   UNL     1       2.177   7.663  18.914  0.00  0.00    +0.000 A 
ATOM     12  C   UNL     1       3.184   7.019  18.179  0.00  0.00    +0.000 A 
ATOM     13  C   UNL     1       3.644   5.744  18.584  0.00  0.00    +0.000 A 
ATOM     14  H   UNL     1       3.535   3.241  20.528  0.00  0.00    +0.000 HD
BRANCH   5  18
ATOM     15  C   UNL     1       5.862   3.682  13.398  0.00  0.00    +0.000 C 
ATOM     16  C   UNL     1       6.128   4.382  14.697  0.00  0.00    +0.000 A 
ATOM     17  C   UNL     1       5.234   4.274  15.756  0.00  0.00    +0.000 A 
ATOM     18  C   UNL     1       5.510   4.930  16.958  0.00  0.00    +0.000 A 
ATOM     19  C   UNL     1       6.667   5.705  17.041  0.00  0.00    +0.000 A 
ATOM     20  C   UNL     1       7.500   5.763  15.938  0.00  0.00    +0.000 A 
ATOM     21  N   UNL     1       7.262   5.114  14.777  0.00  0.00    +0.000 NA
ENDBRANCH   5  18
ENDBRANCH   1  11
BRANCH   3  22
ATOM     22  C   UNL     1       0.236  10.968  18.806  0.00  0.00    +0.000 C 
ATOM     23  C   UNL     1      -1.120  11.238  19.465  0.00  0.00    +0.000 C 
ATOM     24  C   UNL     1      -0.988  11.453  20.975  0.00  0.00    +0.000 C 
ATOM     25  C   UNL     1       0.063  12.510  21.340  0.00  0.00    +0.000 C 
ATOM     26  C   UNL     1       1.410  12.270  20.639  0.00  0.00    +0.000 C 
ATOM     27  C   UNL     1       1.167  12.142  19.124  0.00  0.00    +0.000 C 
BRANCH  26  28
ATOM     28  O   UNL     1       2.305  13.355  20.949  0.00  0.00    +0.000 OA
BRANCH  28  29
ATOM     29  C   UNL     1       2.532  14.258  19.939  0.00  0.00    +0.000 A 
ATOM     30  C   UNL     1       3.548  14.118  18.983  0.00  0.00    +0.000 A 
ATOM     31  C   UNL     1       3.720  15.056  17.972  0.00  0.00    +0.000 A 
ATOM     32  C   UNL     1       2.878  16.150  17.907  0.00  0.00    +0.000 A 
ATOM     33  F   UNL     1       3.062  17.057  16.936  0.00  0.00    +0.000 F 
ATOM     34  C   UNL     1       1.854  16.321  18.830  0.00  0.00    +0.000 A 
ATOM     35  C   UNL     1       1.684  15.370  19.838  0.00  0.00    +0.000 A 
ATOM     36  F   UNL     1       0.701  15.560  20.729  0.00  0.00    +0.000 F 
ENDBRANCH  28  29
ENDBRANCH  26  28
ENDBRANCH   3  22
TORSDOF 5
ENDMDL
MODEL 7
REMARK VINA RESULT:      -8.8      1.035      1.408
REMARK  Name = 
REMARK  6 active torsions:
REMARK  status: ('A' for Active; 'I' for Inactive)
REMARK    1  A    between atoms: C_1  and  C_2
REMARK    2  A    between atoms: C_4  and  C_5
REMARK    3  A    between atoms: C_11  and  C_12
REMARK    4  A    between atoms: N_14  and  C_15
REMARK    5  A    between atoms: C_19  and  O_20
REMARK    6  A    between atoms: O_20  and  C_21
REMARK                            x       y       z     vdW  Elec       q    Type
REMARK                         _______ _______ _______ _____ _____    ______ ____
ROOT
ATOM      1  C   UNL     1       1.500   7.495  20.519  0.00  0.00    +0.000 C 
ATOM      2  O   UNL     1       0.852   7.340  21.547  0.00  0.00    +0.000 OA
ATOM      3  N   UNL     1       2.281   6.502  19.955  0.00  0.00    +0.000 N 
ATOM      4  H   UNL     1       2.519   6.630  18.980  0.00  0.00    +0.000 HD
ENDROOT
BRANCH   1  11
ATOM      5  C   UNL     1       0.147  12.407  20.125  0.00  0.00    +0.000 A 
ATOM      6  N   UNL     1       0.331  13.271  19.113  0.00  0.00    +0.000 NA
ATOM      7  N   UNL     1       1.027  12.582  18.204  0.00  0.00    +0.000 N 
ATOM      8  C   UNL     1       1.282  11.281  18.550  0.00  0.00    +0.000 A 
ATOM      9  C   UNL     1       1.956  10.248  17.889  0.00  0.00    +0.000 A 
ATOM     10  C   UNL     1       2.026   9.001  18.534  0.00  0.00    +0.000 A 
ATOM     11  C   UNL     1       1.438   8.800  19.789  0.00  0.00    +0.000 A 
ATOM     12  C   UNL     1       0.785   9.863  20.433  0.00  0.00    +0.000 A 
ATOM     13  C   UNL     1       0.710  11.128  19.804  0.00  0.00    +0.000 A 
ATOM     14  H   UNL     1       1.300  13.047  17.350  0.00  0.00    +0.000 HD
BRANCH   5  18
ATOM     15  C   UNL     1      -0.678  15.618  23.870  0.00  0.00    +0.000 C 
ATOM     16  C   UNL     1      -0.959  14.329  23.159  0.00  0.00    +0.000 A 
ATOM     17  C   UNL     1      -0.293  14.010  21.981  0.00  0.00    +0.000 A 
ATOM     18  C   UNL     1      -0.568  12.798  21.342  0.00  0.00    +0.000 A 
ATOM     19  C   UNL     1      -1.536  11.959  21.897  0.00  0.00    +0.000 A 
ATOM     20  C   UNL     1      -2.156  12.356  23.069  0.00  0.00    +0.000 A 
ATOM     21  N   UNL     1      -1.883  13.511  23.713  0.00  0.00    +0.000 NA
ENDBRANCH   5  18
ENDBRANCH   1  11
BRANCH   3  22
ATOM     22  C   UNL     1       2.336   5.145  20.517  0.00  0.00    +0.000 C 
ATOM     23  C   UNL     1       1.181   4.265  20.030  0.00  0.00    +0.000 C 
ATOM     24  C   UNL     1       1.287   3.959  18.534  0.00  0.00    +0.000 C 
ATOM     25  C   UNL     1       2.659   3.402  18.132  0.00  0.00    +0.000 C 
ATOM     26  C   UNL     1       3.822   4.257  18.662  0.00  0.00    +0.000 C 
ATOM     27  C   UNL     1       3.653   4.439  20.182  0.00  0.00    +0.000 C 
BRANCH  26  28
ATOM     28  O   UNL     1       5.069   3.618  18.333  0.00  0.00    +0.000 OA
BRANCH  28  29
ATOM     29  C   UNL     1       5.671   4.032  17.169  0.00  0.00    +0.000 A 
ATOM     30  C   UNL     1       5.380   3.493  15.908  0.00  0.00    +0.000 A 
ATOM     31  C   UNL     1       6.010   3.963  14.761  0.00  0.00    +0.000 A 
ATOM     32  C   UNL     1       6.941   4.978  14.863  0.00  0.00    +0.000 A 
ATOM     33  F   UNL     1       7.553   5.415  13.752  0.00  0.00    +0.000 F 
ATOM     34  C   UNL     1       7.252   5.544  16.093  0.00  0.00    +0.000 A 
ATOM     35  C   UNL     1       6.610   5.071  17.239  0.00  0.00    +0.000 A 
ATOM     36  F   UNL     1       6.934   5.617  18.419  0.00  0.00    +0.000 F 
ENDBRANCH  28  29
ENDBRANCH  26  28
ENDBRANCH   3  22
TORSDOF 5
ENDMDL
MODEL 8
REMARK VINA RESULT:      -8.7      1.792      2.394
REMARK  Name = 
REMARK  6 active torsions:
REMARK  status: ('A' for Active; 'I' for Inactive)
REMARK    1  A    between atoms: C_1  and  C_2
REMARK    2  A    between atoms: C_4  and  C_5
REMARK    3  A    between atoms: C_11  and  C_12
REMARK    4  A    between atoms: N_14  and  C_15
REMARK    5  A    between atoms: C_19  and  O_20
REMARK    6  A    between atoms: O_20  and  C_21
REMARK                            x       y       z     vdW  Elec       q    Type
REMARK                         _______ _______ _______ _____ _____    ______ ____
ROOT
ATOM      1  C   UNL     1       1.413   7.909  20.695  0.00  0.00    +0.000 C 
ATOM      2  O   UNL     1       1.427   7.942  21.920  0.00  0.00    +0.000 OA
ATOM      3  N   UNL     1       1.741   6.783  19.961  0.00  0.00    +0.000 N 
ATOM      4  H   UNL     1       1.413   6.771  19.005  0.00  0.00    +0.000 HD
ENDROOT
BRANCH   1  11
ATOM      5  C   UNL     1      -0.903  12.445  20.289  0.00  0.00    +0.000 A 
ATOM      6  N   UNL     1      -1.047  13.246  19.219  0.00  0.00    +0.000 NA
ATOM      7  N   UNL     1      -0.379  12.624  18.242  0.00  0.00    +0.000 N 
ATOM      8  C   UNL     1       0.171  11.423  18.605  0.00  0.00    +0.000 A 
ATOM      9  C   UNL     1       0.922  10.480  17.894  0.00  0.00    +0.000 A 
ATOM     10  C   UNL     1       1.328   9.322  18.578  0.00  0.00    +0.000 A 
ATOM     11  C   UNL     1       0.989   9.119  19.923  0.00  0.00    +0.000 A 
ATOM     12  C   UNL     1       0.251  10.093  20.612  0.00  0.00    +0.000 A 
ATOM     13  C   UNL     1      -0.161  11.268  19.943  0.00  0.00    +0.000 A 
ATOM     14  H   UNL     1      -0.335  13.062  17.332  0.00  0.00    +0.000 HD
BRANCH   5  18
ATOM     15  C   UNL     1      -1.022  15.291  24.402  0.00  0.00    +0.000 C 
ATOM     16  C   UNL     1      -1.537  14.148  23.579  0.00  0.00    +0.000 A 
ATOM     17  C   UNL     1      -0.991  13.871  22.330  0.00  0.00    +0.000 A 
ATOM     18  C   UNL     1      -1.484  12.796  21.587  0.00  0.00    +0.000 A 
ATOM     19  C   UNL     1      -2.541  12.053  22.115  0.00  0.00    +0.000 A 
ATOM     20  C   UNL     1      -3.030  12.400  23.362  0.00  0.00    +0.000 A 
ATOM     21  N   UNL     1      -2.547  13.419  24.105  0.00  0.00    +0.000 NA
ENDBRANCH   5  18
ENDBRANCH   1  11
BRANCH   3  22
ATOM     22  C   UNL     1       2.066   5.503  20.607  0.00  0.00    +0.000 C 
ATOM     23  C   UNL     1       1.067   4.399  20.248  0.00  0.00    +0.000 C 
ATOM     24  C   UNL     1       1.156   4.006  18.772  0.00  0.00    +0.000 C 
ATOM     25  C   UNL     1       2.585   3.671  18.326  0.00  0.00    +0.000 C 
ATOM     26  C   UNL     1       3.598   4.755  18.728  0.00  0.00    +0.000 C 
ATOM     27  C   UNL     1       3.472   5.017  20.240  0.00  0.00    +0.000 C 
BRANCH  26  28
ATOM     28  O   UNL     1       4.924   4.323  18.368  0.00  0.00    +0.000 OA
BRANCH  28  29
ATOM     29  C   UNL     1       5.870   5.312  18.247  0.00  0.00    +0.000 A 
ATOM     30  C   UNL     1       7.011   5.401  19.057  0.00  0.00    +0.000 A 
ATOM     31  C   UNL     1       7.944   6.416  18.879  0.00  0.00    +0.000 A 
ATOM     32  C   UNL     1       7.744   7.358  17.888  0.00  0.00    +0.000 A 
ATOM     33  F   UNL     1       8.643   8.342  17.734  0.00  0.00    +0.000 F 
ATOM     34  C   UNL     1       6.630   7.301  17.059  0.00  0.00    +0.000 A 
ATOM     35  C   UNL     1       5.702   6.274  17.241  0.00  0.00    +0.000 A 
ATOM     36  F   UNL     1       4.625   6.244  16.443  0.00  0.00    +0.000 F 
ENDBRANCH  28  29
ENDBRANCH  26  28
ENDBRANCH   3  22
TORSDOF 5
ENDMDL
MODEL 9
REMARK VINA RESULT:      -8.7      4.414     11.085
REMARK  Name = 
REMARK  6 active torsions:
REMARK  status: ('A' for Active; 'I' for Inactive)
REMARK    1  A    between atoms: C_1  and  C_2
REMARK    2  A    between atoms: C_4  and  C_5
REMARK    3  A    between atoms: C_11  and  C_12
REMARK    4  A    between atoms: N_14  and  C_15
REMARK    5  A    between atoms: C_19  and  O_20
REMARK    6  A    between atoms: O_20  and  C_21
REMARK                            x       y       z     vdW  Elec       q    Type
REMARK                         _______ _______ _______ _____ _____    ______ ____
ROOT
ATOM      1  C   UNL     1       2.023   8.877  18.589  0.00  0.00    +0.000 C 
ATOM      2  O   UNL     1       2.228   9.231  17.434  0.00  0.00    +0.000 OA
ATOM      3  N   UNL     1       1.496   9.712  19.558  0.00  0.00    +0.000 N 
ATOM      4  H   UNL     1       1.095   9.251  20.364  0.00  0.00    +0.000 HD
ENDROOT
BRANCH   1  11
ATOM      5  C   UNL     1       4.513   4.441  18.117  0.00  0.00    +0.000 A 
ATOM      6  N   UNL     1       4.379   3.300  18.816  0.00  0.00    +0.000 NA
ATOM      7  N   UNL     1       3.464   3.582  19.747  0.00  0.00    +0.000 N 
ATOM      8  C   UNL     1       2.952   4.851  19.677  0.00  0.00    +0.000 A 
ATOM      9  C   UNL     1       1.992   5.521  20.443  0.00  0.00    +0.000 A 
ATOM     10  C   UNL     1       1.683   6.844  20.084  0.00  0.00    +0.000 A 
ATOM     11  C   UNL     1       2.310   7.466  18.997  0.00  0.00    +0.000 A 
ATOM     12  C   UNL     1       3.283   6.772  18.261  0.00  0.00    +0.000 A 
ATOM     13  C   UNL     1       3.613   5.442  18.610  0.00  0.00    +0.000 A 
ATOM     14  H   UNL     1       3.214   2.863  20.412  0.00  0.00    +0.000 HD
BRANCH   5  18
ATOM     15  C   UNL     1       5.705   3.705  13.315  0.00  0.00    +0.000 C 
ATOM     16  C   UNL     1       6.046   4.179  14.696  0.00  0.00    +0.000 A 
ATOM     17  C   UNL     1       5.110   4.105  15.722  0.00  0.00    +0.000 A 
ATOM     18  C   UNL     1       5.457   4.546  17.002  0.00  0.00    +0.000 A 
ATOM     19  C   UNL     1       6.729   5.083  17.197  0.00  0.00    +0.000 A 
ATOM     20  C   UNL     1       7.598   5.125  16.121  0.00  0.00    +0.000 A 
ATOM     21  N   UNL     1       7.289   4.678  14.884  0.00  0.00    +0.000 NA
ENDBRANCH   5  18
ENDBRANCH   1  11
BRANCH   3  22
ATOM     22  C   UNL     1       1.071  11.085  19.252  0.00  0.00    +0.000 C 
ATOM     23  C   UNL     1      -0.261  11.129  18.497  0.00  0.00    +0.000 C 
ATOM     24  C   UNL     1      -1.427  10.656  19.368  0.00  0.00    +0.000 C 
ATOM     25  C   UNL     1      -1.495  11.377  20.721  0.00  0.00    +0.000 C 
ATOM     26  C   UNL     1      -0.146  11.378  21.458  0.00  0.00    +0.000 C 
ATOM     27  C   UNL     1       0.935  11.939  20.517  0.00  0.00    +0.000 C 
BRANCH  26  28
ATOM     28  O   UNL     1      -0.265  12.157  22.663  0.00  0.00    +0.000 OA
BRANCH  28  29
ATOM     29  C   UNL     1      -1.494  12.730  22.893  0.00  0.00    +0.000 A 
ATOM     30  C   UNL     1      -2.576  12.047  23.465  0.00  0.00    +0.000 A 
ATOM     31  C   UNL     1      -3.792  12.683  23.689  0.00  0.00    +0.000 A 
ATOM     32  C   UNL     1      -3.940  14.012  23.340  0.00  0.00    +0.000 A 
ATOM     33  F   UNL     1      -5.122  14.612  23.547  0.00  0.00    +0.000 F 
ATOM     34  C   UNL     1      -2.889  14.726  22.778  0.00  0.00    +0.000 A 
ATOM     35  C   UNL     1      -1.670  14.081  22.563  0.00  0.00    +0.000 A 
ATOM     36  F   UNL     1      -0.672  14.781  22.004  0.00  0.00    +0.000 F 
ENDBRANCH  28  29
ENDBRANCH  26  28
ENDBRANCH   3  22
TORSDOF 5
ENDMDL
