MODEL 1
REMARK VINA RESULT:      -8.1      0.000      0.000
REMARK  Name = 
REMARK  7 active torsions:
REMARK  status: ('A' for Active; 'I' for Inactive)
REMARK    1  A    between atoms: C_2  and  C_3
REMARK    2  A    between atoms: C_3  and  C_4
REMARK    3  A    between atoms: C_4  and  N_5
REMARK    4  A    between atoms: N_8  and  C_9
REMARK    5  A    between atoms: N_17  and  N_18
REMARK    6  A    between atoms: C_19  and  C_21
REMARK    7  A    between atoms: C_21  and  C_22
REMARK                            x       y       z     vdW  Elec       q    Type
REMARK                         _______ _______ _______ _____ _____    ______ ____
ROOT
ATOM      1  O   UNL     1       1.764   6.086  19.220  0.00  0.00    +0.000 OA
ATOM      2  C   UNL     1       1.762   5.790  20.415  0.00  0.00    +0.000 C 
ATOM      3  N   UNL     1       1.728   6.717  21.422  0.00  0.00    +0.000 N 
ATOM      4  H   UNL     1       1.711   6.434  22.412  0.00  0.00    +0.000 HD
ENDROOT
BRANCH   3   5
ATOM      5  N   UNL     1       1.811   8.079  21.164  0.00  0.00    +0.000 N 
ATOM      6  C   UNL     1       0.636   8.803  21.241  0.00  0.00    +0.000 C 
ATOM      7  O   UNL     1      -0.431   8.300  21.598  0.00  0.00    +0.000 OA
ATOM      8  H   UNL     1       2.686   8.431  20.776  0.00  0.00    +0.000 HD
BRANCH   6   9
ATOM      9  C   UNL     1       0.745  10.252  20.826  0.00  0.00    +0.000 C 
BRANCH   9  10
ATOM     10  C   UNL     1      -0.220  10.574  19.710  0.00  0.00    +0.000 A 
ATOM     11  C   UNL     1      -1.390  11.293  20.015  0.00  0.00    +0.000 A 
ATOM     12  C   UNL     1      -2.364  11.517  19.041  0.00  0.00    +0.000 A 
ATOM     13  C   UNL     1      -2.187  11.025  17.752  0.00  0.00    +0.000 A 
ATOM     14  C   UNL     1      -1.025  10.324  17.430  0.00  0.00    +0.000 A 
ATOM     15  C   UNL     1      -0.046  10.102  18.401  0.00  0.00    +0.000 A 
ATOM     16 CL   UNL     1       1.366   9.223  17.930  0.00  0.00    +0.000 Cl
ENDBRANCH   9  10
ENDBRANCH   6   9
ENDBRANCH   3   5
BRANCH   2  17
ATOM     17  C   UNL     1       1.681   4.351  20.892  0.00  0.00    +0.000 C 
BRANCH  17  18
ATOM     18  C   UNL     1       1.167   3.354  19.839  0.00  0.00    +0.000 C 
BRANCH  18  19
ATOM     19  N   UNL     1       2.161   2.334  19.434  0.00  0.00    +0.000 NA
ATOM     20  C   UNL     1       2.303   2.200  17.968  0.00  0.00    +0.000 C 
ATOM     21  C   UNL     1       2.808   3.481  17.292  0.00  0.00    +0.000 C 
ATOM     22  N   UNL     1       4.123   3.846  17.828  0.00  0.00    +0.000 N 
ATOM     23  C   UNL     1       4.302   3.798  19.290  0.00  0.00    +0.000 C 
ATOM     24  C   UNL     1       3.517   2.637  19.968  0.00  0.00    +0.000 C 
BRANCH  22  25
ATOM     25  C   UNL     1       5.137   4.050  16.909  0.00  0.00    +0.000 A 
ATOM     26  C   UNL     1       6.410   4.467  17.347  0.00  0.00    +0.000 A 
ATOM     27  C   UNL     1       7.403   4.879  16.465  0.00  0.00    +0.000 A 
ATOM     28  C   UNL     1       7.163   4.849  15.098  0.00  0.00    +0.000 A 
ATOM     29  C   UNL     1       5.944   4.362  14.628  0.00  0.00    +0.000 A 
ATOM     30  C   UNL     1       4.947   3.957  15.529  0.00  0.00    +0.000 A 
ENDBRANCH  22  25
ENDBRANCH  18  19
ENDBRANCH  17  18
ENDBRANCH   2  17
TORSDOF 7
ENDMDL
MODEL 2
REMARK VINA RESULT:      -7.9      6.500      8.613
REMARK  Name = 
REMARK  7 active torsions:
REMARK  status: ('A' for Active; 'I' for Inactive)
REMARK    1  A    between atoms: C_2  and  C_3
REMARK    2  A    between atoms: C_3  and  C_4
REMARK    3  A    between atoms: C_4  and  N_5
REMARK    4  A    between atoms: N_8  and  C_9
REMARK    5  A    between atoms: N_17  and  N_18
REMARK    6  A    between atoms: C_19  and  C_21
REMARK    7  A    between atoms: C_21  and  C_22
REMARK                            x       y       z     vdW  Elec       q    Type
REMARK                         _______ _______ _______ _____ _____    ______ ____
ROOT
ATOM      1  O   UNL     1       8.466   6.906  19.073  0.00  0.00    +0.000 OA
ATOM      2  C   UNL     1       8.045   7.727  18.258  0.00  0.00    +0.000 C 
ATOM      3  N   UNL     1       8.381   9.054  18.282  0.00  0.00    +0.000 N 
ATOM      4  H   UNL     1       8.024   9.711  17.574  0.00  0.00    +0.000 HD
ENDROOT
BRANCH   3   5
ATOM      5  N   UNL     1       9.140   9.597  19.310  0.00  0.00    +0.000 N 
ATOM      6  C   UNL     1       9.359  10.962  19.273  0.00  0.00    +0.000 C 
ATOM      7  O   UNL     1       8.848  11.692  18.423  0.00  0.00    +0.000 OA
ATOM      8  H   UNL     1       9.625   8.947  19.929  0.00  0.00    +0.000 HD
BRANCH   6   9
ATOM      9  C   UNL     1      10.296  11.491  20.333  0.00  0.00    +0.000 C 
BRANCH   9  10
ATOM     10  C   UNL     1      10.778  12.881  19.990  0.00  0.00    +0.000 A 
ATOM     11  C   UNL     1      11.550  13.062  18.828  0.00  0.00    +0.000 A 
ATOM     12  C   UNL     1      12.111  14.304  18.530  0.00  0.00    +0.000 A 
ATOM     13  C   UNL     1      11.914  15.382  19.387  0.00  0.00    +0.000 A 
ATOM     14  C   UNL     1      11.138  15.223  20.535  0.00  0.00    +0.000 A 
ATOM     15  C   UNL     1      10.570  13.982  20.834  0.00  0.00    +0.000 A 
ATOM     16 CL   UNL     1       9.624  13.859  22.275  0.00  0.00    +0.000 Cl
ENDBRANCH   9  10
ENDBRANCH   6   9
ENDBRANCH   3   5
BRANCH   2  17
ATOM     17  C   UNL     1       7.194   7.323  17.068  0.00  0.00    +0.000 C 
BRANCH  17  18
ATOM     18  C   UNL     1       7.138   5.808  16.804  0.00  0.00    +0.000 C 
BRANCH  18  19
ATOM     19  N   UNL     1       5.955   5.371  16.028  0.00  0.00    +0.000 NA
ATOM     20  C   UNL     1       5.461   4.031  16.411  0.00  0.00    +0.000 C 
ATOM     21  C   UNL     1       4.981   3.959  17.866  0.00  0.00    +0.000 C 
ATOM     22  N   UNL     1       3.884   4.908  18.080  0.00  0.00    +0.000 N 
ATOM     23  C   UNL     1       4.044   6.270  17.540  0.00  0.00    +0.000 C 
ATOM     24  C   UNL     1       4.810   6.309  16.185  0.00  0.00    +0.000 C 
BRANCH  22  25
ATOM     25  C   UNL     1       2.719   4.402  18.629  0.00  0.00    +0.000 A 
ATOM     26  C   UNL     1       2.295   4.838  19.901  0.00  0.00    +0.000 A 
ATOM     27  C   UNL     1       1.252   4.225  20.588  0.00  0.00    +0.000 A 
ATOM     28  C   UNL     1       0.568   3.170  19.999  0.00  0.00    +0.000 A 
ATOM     29  C   UNL     1       0.908   2.770  18.708  0.00  0.00    +0.000 A 
ATOM     30  C   UNL     1       1.967   3.390  18.028  0.00  0.00    +0.000 A 
ENDBRANCH  22  25
ENDBRANCH  18  19
ENDBRANCH  17  18
ENDBRANCH   2  17
TORSDOF 7
ENDMDL
MODEL 3
REMARK VINA RESULT:      -7.8      2.071      2.833
REMARK  Name = 
REMARK  7 active torsions:
REMARK  status: ('A' for Active; 'I' for Inactive)
REMARK    1  A    between atoms: C_2  and  C_3
REMARK    2  A    between atoms: C_3  and  C_4
REMARK    3  A    between atoms: C_4  and  N_5
REMARK    4  A    between atoms: N_8  and  C_9
REMARK    5  A    between atoms: N_17  and  N_18
REMARK    6  A    between atoms: C_19  and  C_21
REMARK    7  A    between atoms: C_21  and  C_22
REMARK                            x       y       z     vdW  Elec       q    Type
REMARK                         _______ _______ _______ _____ _____    ______ ____
ROOT
ATOM      1  O   UNL     1       2.162   3.632  22.095  0.00  0.00    +0.000 OA
ATOM      2  C   UNL     1       1.649   3.590  20.976  0.00  0.00    +0.000 C 
ATOM      3  N   UNL     1       1.092   4.680  20.362  0.00  0.00    +0.000 N 
ATOM      4  H   UNL     1       0.686   4.614  19.418  0.00  0.00    +0.000 HD
ENDROOT
BRANCH   3   5
ATOM      5  N   UNL     1       0.963   5.900  21.012  0.00  0.00    +0.000 N 
ATOM      6  C   UNL     1       1.723   6.950  20.530  0.00  0.00    +0.000 C 
ATOM      7  O   UNL     1       2.426   6.851  19.523  0.00  0.00    +0.000 OA
ATOM      8  H   UNL     1       0.453   5.909  21.895  0.00  0.00    +0.000 HD
BRANCH   6   9
ATOM      9  C   UNL     1       1.653   8.220  21.344  0.00  0.00    +0.000 C 
BRANCH   9  10
ATOM     10  C   UNL     1       0.725   9.227  20.705  0.00  0.00    +0.000 A 
ATOM     11  C   UNL     1       0.831   9.462  19.323  0.00  0.00    +0.000 A 
ATOM     12  C   UNL     1       0.075  10.461  18.709  0.00  0.00    +0.000 A 
ATOM     13  C   UNL     1      -0.794  11.242  19.465  0.00  0.00    +0.000 A 
ATOM     14  C   UNL     1      -0.922  11.010  20.834  0.00  0.00    +0.000 A 
ATOM     15  C   UNL     1      -0.170  10.007  21.452  0.00  0.00    +0.000 A 
ATOM     16 CL   UNL     1      -0.379   9.780  23.152  0.00  0.00    +0.000 Cl
ENDBRANCH   9  10
ENDBRANCH   6   9
ENDBRANCH   3   5
BRANCH   2  17
ATOM     17  C   UNL     1       1.685   2.341  20.116  0.00  0.00    +0.000 C 
BRANCH  17  18
ATOM     18  C   UNL     1       1.539   2.597  18.606  0.00  0.00    +0.000 C 
BRANCH  18  19
ATOM     19  N   UNL     1       2.772   2.347  17.826  0.00  0.00    +0.000 NA
ATOM     20  C   UNL     1       3.124   3.453  16.910  0.00  0.00    +0.000 C 
ATOM     21  C   UNL     1       3.421   4.769  17.639  0.00  0.00    +0.000 C 
ATOM     22  N   UNL     1       4.548   4.589  18.559  0.00  0.00    +0.000 N 
ATOM     23  C   UNL     1       4.547   3.387  19.412  0.00  0.00    +0.000 C 
ATOM     24  C   UNL     1       3.953   2.132  18.707  0.00  0.00    +0.000 C 
BRANCH  22  25
ATOM     25  C   UNL     1       5.601   5.478  18.438  0.00  0.00    +0.000 A 
ATOM     26  C   UNL     1       5.564   6.480  17.448  0.00  0.00    +0.000 A 
ATOM     27  C   UNL     1       6.668   7.270  17.147  0.00  0.00    +0.000 A 
ATOM     28  C   UNL     1       7.846   7.106  17.864  0.00  0.00    +0.000 A 
ATOM     29  C   UNL     1       7.889   6.181  18.906  0.00  0.00    +0.000 A 
ATOM     30  C   UNL     1       6.771   5.385  19.195  0.00  0.00    +0.000 A 
ENDBRANCH  22  25
ENDBRANCH  18  19
ENDBRANCH  17  18
ENDBRANCH   2  17
TORSDOF 7
ENDMDL
MODEL 4
REMARK VINA RESULT:      -7.8      7.254      9.957
REMARK  Name = 
REMARK  7 active torsions:
REMARK  status: ('A' for Active; 'I' for Inactive)
REMARK    1  A    between atoms: C_2  and  C_3
REMARK    2  A    between atoms: C_3  and  C_4
REMARK    3  A    between atoms: C_4  and  N_5
REMARK    4  A    between atoms: N_8  and  C_9
REMARK    5  A    between atoms: N_17  and  N_18
REMARK    6  A    between atoms: C_19  and  C_21
REMARK    7  A    between atoms: C_21  and  C_22
REMARK                            x       y       z     vdW  Elec       q    Type
REMARK                         _______ _______ _______ _____ _____    ______ ____
ROOT
ATOM      1  O   UNL     1       8.437   7.368  18.816  0.00  0.00    +0.000 OA
ATOM      2  C   UNL     1       8.055   8.081  17.888  0.00  0.00    +0.000 C 
ATOM      3  N   UNL     1       7.210   7.647  16.902  0.00  0.00    +0.000 N 
ATOM      4  H   UNL     1       6.897   8.275  16.149  0.00  0.00    +0.000 HD
ENDROOT
BRANCH   3   5
ATOM      5  N   UNL     1       6.809   6.320  16.816  0.00  0.00    +0.000 N 
ATOM      6  C   UNL     1       5.493   6.086  16.461  0.00  0.00    +0.000 C 
ATOM      7  O   UNL     1       4.718   6.993  16.155  0.00  0.00    +0.000 OA
ATOM      8  H   UNL     1       7.450   5.612  17.175  0.00  0.00    +0.000 HD
BRANCH   6   9
ATOM      9  C   UNL     1       5.064   4.638  16.506  0.00  0.00    +0.000 C 
BRANCH   9  10
ATOM     10  C   UNL     1       3.997   4.418  17.553  0.00  0.00    +0.000 A 
ATOM     11  C   UNL     1       2.701   4.068  17.133  0.00  0.00    +0.000 A 
ATOM     12  C   UNL     1       1.657   3.964  18.053  0.00  0.00    +0.000 A 
ATOM     13  C   UNL     1       1.889   4.211  19.402  0.00  0.00    +0.000 A 
ATOM     14  C   UNL     1       3.173   4.542  19.836  0.00  0.00    +0.000 A 
ATOM     15  C   UNL     1       4.221   4.643  18.918  0.00  0.00    +0.000 A 
ATOM     16 CL   UNL     1       5.784   5.061  19.528  0.00  0.00    +0.000 Cl
ENDBRANCH   9  10
ENDBRANCH   6   9
ENDBRANCH   3   5
BRANCH   2  17
ATOM     17  C   UNL     1       8.398   9.557  17.808  0.00  0.00    +0.000 C 
BRANCH  17  18
ATOM     18  C   UNL     1       8.953  10.159  19.111  0.00  0.00    +0.000 C 
BRANCH  18  19
ATOM     19  N   UNL     1      10.288  10.784  18.969  0.00  0.00    +0.000 NA
ATOM     20  C   UNL     1      10.440  11.570  17.725  0.00  0.00    +0.000 C 
ATOM     21  C   UNL     1       9.476  12.759  17.641  0.00  0.00    +0.000 C 
ATOM     22  N   UNL     1       9.707  13.672  18.766  0.00  0.00    +0.000 N 
ATOM     23  C   UNL     1       9.854  13.078  20.107  0.00  0.00    +0.000 C 
ATOM     24  C   UNL     1      10.592  11.708  20.095  0.00  0.00    +0.000 C 
BRANCH  22  25
ATOM     25  C   UNL     1       9.928  15.001  18.455  0.00  0.00    +0.000 A 
ATOM     26  C   UNL     1       8.923  15.958  18.702  0.00  0.00    +0.000 A 
ATOM     27  C   UNL     1       9.006  17.264  18.232  0.00  0.00    +0.000 A 
ATOM     28  C   UNL     1      10.131  17.669  17.526  0.00  0.00    +0.000 A 
ATOM     29  C   UNL     1      11.181  16.772  17.338  0.00  0.00    +0.000 A 
ATOM     30  C   UNL     1      11.081  15.454  17.810  0.00  0.00    +0.000 A 
ENDBRANCH  22  25
ENDBRANCH  18  19
ENDBRANCH  17  18
ENDBRANCH   2  17
TORSDOF 7
ENDMDL
MODEL 5
REMARK VINA RESULT:      -7.8      6.542      8.205
REMARK  Name = 
REMARK  7 active torsions:
REMARK  status: ('A' for Active; 'I' for Inactive)
REMARK    1  A    between atoms: C_2  and  C_3
REMARK    2  A    between atoms: C_3  and  C_4
REMARK    3  A    between atoms: C_4  and  N_5
REMARK    4  A    between atoms: N_8  and  C_9
REMARK    5  A    between atoms: N_17  and  N_18
REMARK    6  A    between atoms: C_19  and  C_21
REMARK    7  A    between atoms: C_21  and  C_22
REMARK                            x       y       z     vdW  Elec       q    Type
REMARK                         _______ _______ _______ _____ _____    ______ ____
ROOT
ATOM      1  O   UNL     1       7.918  10.178  17.804  0.00  0.00    +0.000 OA
ATOM      2  C   UNL     1       8.555   9.444  18.560  0.00  0.00    +0.000 C 
ATOM      3  N   UNL     1       9.329   9.910  19.588  0.00  0.00    +0.000 N 
ATOM      4  H   UNL     1       9.836   9.267  20.212  0.00  0.00    +0.000 HD
ENDROOT
BRANCH   3   5
ATOM      5  N   UNL     1       9.545  11.268  19.783  0.00  0.00    +0.000 N 
ATOM      6  C   UNL     1      10.763  11.775  19.369  0.00  0.00    +0.000 C 
ATOM      7  O   UNL     1      11.600  11.089  18.780  0.00  0.00    +0.000 OA
ATOM      8  H   UNL     1       8.873  11.772  20.362  0.00  0.00    +0.000 HD
BRANCH   6   9
ATOM      9  C   UNL     1      11.009  13.224  19.718  0.00  0.00    +0.000 C 
BRANCH   9  10
ATOM     10  C   UNL     1       9.767  14.056  19.500  0.00  0.00    +0.000 A 
ATOM     11  C   UNL     1       9.416  14.416  18.188  0.00  0.00    +0.000 A 
ATOM     12  C   UNL     1       8.343  15.275  17.945  0.00  0.00    +0.000 A 
ATOM     13  C   UNL     1       7.609  15.790  19.009  0.00  0.00    +0.000 A 
ATOM     14  C   UNL     1       7.935  15.429  20.316  0.00  0.00    +0.000 A 
ATOM     15  C   UNL     1       9.005  14.565  20.562  0.00  0.00    +0.000 A 
ATOM     16 CL   UNL     1       9.352  14.165  22.207  0.00  0.00    +0.000 Cl
ENDBRANCH   9  10
ENDBRANCH   6   9
ENDBRANCH   3   5
BRANCH   2  17
ATOM     17  C   UNL     1       8.453   7.932  18.494  0.00  0.00    +0.000 C 
BRANCH  17  18
ATOM     18  C   UNL     1       7.497   7.399  17.413  0.00  0.00    +0.000 C 
BRANCH  18  19
ATOM     19  N   UNL     1       7.552   5.931  17.225  0.00  0.00    +0.000 NA
ATOM     20  C   UNL     1       6.999   5.171  18.368  0.00  0.00    +0.000 C 
ATOM     21  C   UNL     1       5.510   5.446  18.611  0.00  0.00    +0.000 C 
ATOM     22  N   UNL     1       4.732   5.079  17.424  0.00  0.00    +0.000 N 
ATOM     23  C   UNL     1       5.242   5.514  16.112  0.00  0.00    +0.000 C 
ATOM     24  C   UNL     1       6.796   5.496  16.019  0.00  0.00    +0.000 C 
BRANCH  22  25
ATOM     25  C   UNL     1       3.668   4.217  17.617  0.00  0.00    +0.000 A 
ATOM     26  C   UNL     1       2.372   4.733  17.824  0.00  0.00    +0.000 A 
ATOM     27  C   UNL     1       1.306   3.934  18.220  0.00  0.00    +0.000 A 
ATOM     28  C   UNL     1       1.496   2.568  18.386  0.00  0.00    +0.000 A 
ATOM     29  C   UNL     1       2.744   2.013  18.108  0.00  0.00    +0.000 A 
ATOM     30  C   UNL     1       3.815   2.831  17.716  0.00  0.00    +0.000 A 
ENDBRANCH  22  25
ENDBRANCH  18  19
ENDBRANCH  17  18
ENDBRANCH   2  17
TORSDOF 7
ENDMDL
MODEL 6
REMARK VINA RESULT:      -7.6      6.880      8.441
REMARK  Name = 
REMARK  7 active torsions:
REMARK  status: ('A' for Active; 'I' for Inactive)
REMARK    1  A    between atoms: C_2  and  C_3
REMARK    2  A    between atoms: C_3  and  C_4
REMARK    3  A    between atoms: C_4  and  N_5
REMARK    4  A    between atoms: N_8  and  C_9
REMARK    5  A    between atoms: N_17  and  N_18
REMARK    6  A    between atoms: C_19  and  C_21
REMARK    7  A    between atoms: C_21  and  C_22
REMARK                            x       y       z     vdW  Elec       q    Type
REMARK                         _______ _______ _______ _____ _____    ______ ____
ROOT
ATOM      1  O   UNL     1       8.176  10.345  17.752  0.00  0.00    +0.000 OA
ATOM      2  C   UNL     1       8.653   9.538  18.550  0.00  0.00    +0.000 C 
ATOM      3  N   UNL     1       9.191   9.899  19.756  0.00  0.00    +0.000 N 
ATOM      4  H   UNL     1       9.567   9.196  20.408  0.00  0.00    +0.000 HD
ENDROOT
BRANCH   3   5
ATOM      5  N   UNL     1       9.342  11.230  20.120  0.00  0.00    +0.000 N 
ATOM      6  C   UNL     1      10.593  11.791  19.938  0.00  0.00    +0.000 C 
ATOM      7  O   UNL     1      11.521  11.181  19.405  0.00  0.00    +0.000 OA
ATOM      8  H   UNL     1       8.583  11.662  20.648  0.00  0.00    +0.000 HD
BRANCH   6   9
ATOM      9  C   UNL     1      10.750  13.197  20.467  0.00  0.00    +0.000 C 
BRANCH   9  10
ATOM     10  C   UNL     1      10.167  14.209  19.509  0.00  0.00    +0.000 A 
ATOM     11  C   UNL     1       8.910  14.770  19.800  0.00  0.00    +0.000 A 
ATOM     12  C   UNL     1       8.281  15.622  18.891  0.00  0.00    +0.000 A 
ATOM     13  C   UNL     1       8.894  15.924  17.680  0.00  0.00    +0.000 A 
ATOM     14  C   UNL     1      10.148  15.389  17.384  0.00  0.00    +0.000 A 
ATOM     15  C   UNL     1      10.783  14.539  18.293  0.00  0.00    +0.000 A 
ATOM     16 CL   UNL     1      12.333  13.912  17.857  0.00  0.00    +0.000 Cl
ENDBRANCH   9  10
ENDBRANCH   6   9
ENDBRANCH   3   5
BRANCH   2  17
ATOM     17  C   UNL     1       8.588   8.040  18.321  0.00  0.00    +0.000 C 
BRANCH  17  18
ATOM     18  C   UNL     1       7.400   7.572  17.463  0.00  0.00    +0.000 C 
BRANCH  18  19
ATOM     19  N   UNL     1       7.416   6.127  17.142  0.00  0.00    +0.000 NA
ATOM     20  C   UNL     1       7.086   5.264  18.297  0.00  0.00    +0.000 C 
ATOM     21  C   UNL     1       5.670   5.495  18.837  0.00  0.00    +0.000 C 
ATOM     22  N   UNL     1       4.682   5.220  17.789  0.00  0.00    +0.000 N 
ATOM     23  C   UNL     1       4.939   5.773  16.447  0.00  0.00    +0.000 C 
ATOM     24  C   UNL     1       6.448   5.785  16.065  0.00  0.00    +0.000 C 
BRANCH  22  25
ATOM     25  C   UNL     1       3.671   4.329  18.102  0.00  0.00    +0.000 A 
ATOM     26  C   UNL     1       3.992   3.042  18.580  0.00  0.00    +0.000 A 
ATOM     27  C   UNL     1       3.037   2.041  18.721  0.00  0.00    +0.000 A 
ATOM     28  C   UNL     1       1.708   2.313  18.422  0.00  0.00    +0.000 A 
ATOM     29  C   UNL     1       1.345   3.599  18.028  0.00  0.00    +0.000 A 
ATOM     30  C   UNL     1       2.319   4.599  17.882  0.00  0.00    +0.000 A 
ENDBRANCH  22  25
ENDBRANCH  18  19
ENDBRANCH  17  18
ENDBRANCH   2  17
TORSDOF 7
ENDMDL
MODEL 7
REMARK VINA RESULT:      -7.6      7.124      9.858
REMARK  Name = 
REMARK  7 active torsions:
REMARK  status: ('A' for Active; 'I' for Inactive)
REMARK    1  A    between atoms: C_2  and  C_3
REMARK    2  A    between atoms: C_3  and  C_4
REMARK    3  A    between atoms: C_4  and  N_5
REMARK    4  A    between atoms: N_8  and  C_9
REMARK    5  A    between atoms: N_17  and  N_18
REMARK    6  A    between atoms: C_19  and  C_21
REMARK    7  A    between atoms: C_21  and  C_22
REMARK                            x       y       z     vdW  Elec       q    Type
REMARK                         _______ _______ _______ _____ _____    ______ ____
ROOT
ATOM      1  O   UNL     1       6.916   8.485  16.981  0.00  0.00    +0.000 OA
ATOM      2  C   UNL     1       7.641   7.964  17.828  0.00  0.00    +0.000 C 
ATOM      3  N   UNL     1       7.495   6.670  18.251  0.00  0.00    +0.000 N 
ATOM      4  H   UNL     1       8.130   6.260  18.950  0.00  0.00    +0.000 HD
ENDROOT
BRANCH   3   5
ATOM      5  N   UNL     1       6.434   5.879  17.831  0.00  0.00    +0.000 N 
ATOM      6  C   UNL     1       5.902   5.002  18.758  0.00  0.00    +0.000 C 
ATOM      7  O   UNL     1       6.282   4.965  19.930  0.00  0.00    +0.000 OA
ATOM      8  H   UNL     1       6.222   5.869  16.833  0.00  0.00    +0.000 HD
BRANCH   6   9
ATOM      9  C   UNL     1       4.840   4.070  18.225  0.00  0.00    +0.000 C 
BRANCH   9  10
ATOM     10  C   UNL     1       3.672   3.970  19.179  0.00  0.00    +0.000 A 
ATOM     11  C   UNL     1       3.576   2.842  20.014  0.00  0.00    +0.000 A 
ATOM     12  C   UNL     1       2.460   2.651  20.829  0.00  0.00    +0.000 A 
ATOM     13  C   UNL     1       1.424   3.578  20.821  0.00  0.00    +0.000 A 
ATOM     14  C   UNL     1       1.512   4.710  20.010  0.00  0.00    +0.000 A 
ATOM     15  C   UNL     1       2.630   4.907  19.196  0.00  0.00    +0.000 A 
ATOM     16 CL   UNL     1       2.668   6.331  18.217  0.00  0.00    +0.000 Cl
ENDBRANCH   9  10
ENDBRANCH   6   9
ENDBRANCH   3   5
BRANCH   2  17
ATOM     17  C   UNL     1       8.847   8.677  18.410  0.00  0.00    +0.000 C 
BRANCH  17  18
ATOM     18  C   UNL     1       8.709  10.207  18.497  0.00  0.00    +0.000 C 
BRANCH  18  19
ATOM     19  N   UNL     1       9.841  10.879  19.174  0.00  0.00    +0.000 NA
ATOM     20  C   UNL     1      10.771  11.550  18.240  0.00  0.00    +0.000 C 
ATOM     21  C   UNL     1      10.111  12.678  17.438  0.00  0.00    +0.000 C 
ATOM     22  N   UNL     1       9.592  13.703  18.348  0.00  0.00    +0.000 N 
ATOM     23  C   UNL     1       8.834  13.248  19.527  0.00  0.00    +0.000 C 
ATOM     24  C   UNL     1       9.377  11.920  20.132  0.00  0.00    +0.000 C 
BRANCH  22  25
ATOM     25  C   UNL     1       9.992  15.006  18.114  0.00  0.00    +0.000 A 
ATOM     26  C   UNL     1       9.177  16.078  18.532  0.00  0.00    +0.000 A 
ATOM     27  C   UNL     1       9.423  17.393  18.152  0.00  0.00    +0.000 A 
ATOM     28  C   UNL     1      10.529  17.685  17.364  0.00  0.00    +0.000 A 
ATOM     29  C   UNL     1      11.401  16.659  17.004  0.00  0.00    +0.000 A 
ATOM     30  C   UNL     1      11.138  15.335  17.387  0.00  0.00    +0.000 A 
ENDBRANCH  22  25
ENDBRANCH  18  19
ENDBRANCH  17  18
ENDBRANCH   2  17
TORSDOF 7
ENDMDL
MODEL 8
REMARK VINA RESULT:      -7.6      6.866      8.726
REMARK  Name = 
REMARK  7 active torsions:
REMARK  status: ('A' for Active; 'I' for Inactive)
REMARK    1  A    between atoms: C_2  and  C_3
REMARK    2  A    between atoms: C_3  and  C_4
REMARK    3  A    between atoms: C_4  and  N_5
REMARK    4  A    between atoms: N_8  and  C_9
REMARK    5  A    between atoms: N_17  and  N_18
REMARK    6  A    between atoms: C_19  and  C_21
REMARK    7  A    between atoms: C_21  and  C_22
REMARK                            x       y       z     vdW  Elec       q    Type
REMARK                         _______ _______ _______ _____ _____    ______ ____
ROOT
ATOM      1  O   UNL     1       7.762  10.230  17.676  0.00  0.00    +0.000 OA
ATOM      2  C   UNL     1       8.416   9.395  18.301  0.00  0.00    +0.000 C 
ATOM      3  N   UNL     1       9.173   9.701  19.400  0.00  0.00    +0.000 N 
ATOM      4  H   UNL     1       9.695   8.975  19.910  0.00  0.00    +0.000 HD
ENDROOT
BRANCH   3   5
ATOM      5  N   UNL     1       9.350  11.011  19.825  0.00  0.00    +0.000 N 
ATOM      6  C   UNL     1      10.507  11.650  19.417  0.00  0.00    +0.000 C 
ATOM      7  O   UNL     1      11.316  11.128  18.648  0.00  0.00    +0.000 OA
ATOM      8  H   UNL     1       8.711  11.364  20.537  0.00  0.00    +0.000 HD
BRANCH   6   9
ATOM      9  C   UNL     1      10.724  13.024  20.006  0.00  0.00    +0.000 C 
BRANCH   9  10
ATOM     10  C   UNL     1      10.708  14.087  18.932  0.00  0.00    +0.000 A 
ATOM     11  C   UNL     1      11.926  14.468  18.342  0.00  0.00    +0.000 A 
ATOM     12  C   UNL     1      11.977  15.522  17.428  0.00  0.00    +0.000 A 
ATOM     13  C   UNL     1      10.815  16.212  17.095  0.00  0.00    +0.000 A 
ATOM     14  C   UNL     1       9.598  15.834  17.660  0.00  0.00    +0.000 A 
ATOM     15  C   UNL     1       9.542  14.777  18.571  0.00  0.00    +0.000 A 
ATOM     16 CL   UNL     1       7.999  14.368  19.234  0.00  0.00    +0.000 Cl
ENDBRANCH   9  10
ENDBRANCH   6   9
ENDBRANCH   3   5
BRANCH   2  17
ATOM     17  C   UNL     1       8.355   7.914  17.980  0.00  0.00    +0.000 C 
BRANCH  17  18
ATOM     18  C   UNL     1       6.937   7.365  17.742  0.00  0.00    +0.000 C 
BRANCH  18  19
ATOM     19  N   UNL     1       6.851   5.887  17.744  0.00  0.00    +0.000 NA
ATOM     20  C   UNL     1       6.326   5.330  19.010  0.00  0.00    +0.000 C 
ATOM     21  C   UNL     1       4.890   5.773  19.314  0.00  0.00    +0.000 C 
ATOM     22  N   UNL     1       3.993   5.338  18.239  0.00  0.00    +0.000 N 
ATOM     23  C   UNL     1       4.434   5.558  16.851  0.00  0.00    +0.000 C 
ATOM     24  C   UNL     1       5.969   5.381  16.658  0.00  0.00    +0.000 C 
BRANCH  22  25
ATOM     25  C   UNL     1       2.877   4.612  18.614  0.00  0.00    +0.000 A 
ATOM     26  C   UNL     1       2.193   4.936  19.804  0.00  0.00    +0.000 A 
ATOM     27  C   UNL     1       1.195   4.126  20.334  0.00  0.00    +0.000 A 
ATOM     28  C   UNL     1       0.818   2.971  19.660  0.00  0.00    +0.000 A 
ATOM     29  C   UNL     1       1.416   2.666  18.438  0.00  0.00    +0.000 A 
ATOM     30  C   UNL     1       2.427   3.488  17.918  0.00  0.00    +0.000 A 
ENDBRANCH  22  25
ENDBRANCH  18  19
ENDBRANCH  17  18
ENDBRANCH   2  17
TORSDOF 7
ENDMDL
MODEL 9
REMARK VINA RESULT:      -7.6      6.254      7.690
REMARK  Name = 
REMARK  7 active torsions:
REMARK  status: ('A' for Active; 'I' for Inactive)
REMARK    1  A    between atoms: C_2  and  C_3
REMARK    2  A    between atoms: C_3  and  C_4
REMARK    3  A    between atoms: C_4  and  N_5
REMARK    4  A    between atoms: N_8  and  C_9
REMARK    5  A    between atoms: N_17  and  N_18
REMARK    6  A    between atoms: C_19  and  C_21
REMARK    7  A    between atoms: C_21  and  C_22
REMARK                            x       y       z     vdW  Elec       q    Type
REMARK                         _______ _______ _______ _____ _____    ______ ____
ROOT
ATOM      1  O   UNL     1       8.701   9.992  17.519  0.00  0.00    +0.000 OA
ATOM      2  C   UNL     1       8.766   9.342  18.563  0.00  0.00    +0.000 C 
ATOM      3  N   UNL     1       9.165   9.876  19.759  0.00  0.00    +0.000 N 
ATOM      4  H   UNL     1       9.192   9.308  20.617  0.00  0.00    +0.000 HD
ENDROOT
BRANCH   3   5
ATOM      5  N   UNL     1       9.641  11.177  19.856  0.00  0.00    +0.000 N 
ATOM      6  C   UNL     1       9.292  11.888  20.990  0.00  0.00    +0.000 C 
ATOM      7  O   UNL     1       8.658  11.385  21.918  0.00  0.00    +0.000 OA
ATOM      8  H   UNL     1      10.072  11.582  19.025  0.00  0.00    +0.000 HD
BRANCH   6   9
ATOM      9  C   UNL     1       9.719  13.337  20.996  0.00  0.00    +0.000 C 
BRANCH   9  10
ATOM     10  C   UNL     1       8.780  14.186  20.171  0.00  0.00    +0.000 A 
ATOM     11  C   UNL     1       7.504  14.476  20.684  0.00  0.00    +0.000 A 
ATOM     12  C   UNL     1       6.563  15.160  19.914  0.00  0.00    +0.000 A 
ATOM     13  C   UNL     1       6.880  15.560  18.620  0.00  0.00    +0.000 A 
ATOM     14  C   UNL     1       8.147  15.294  18.103  0.00  0.00    +0.000 A 
ATOM     15  C   UNL     1       9.094  14.614  18.873  0.00  0.00    +0.000 A 
ATOM     16 CL   UNL     1      10.642  14.317  18.164  0.00  0.00    +0.000 Cl
ENDBRANCH   9  10
ENDBRANCH   6   9
ENDBRANCH   3   5
BRANCH   2  17
ATOM     17  C   UNL     1       8.297   7.902  18.650  0.00  0.00    +0.000 C 
BRANCH  17  18
ATOM     18  C   UNL     1       7.442   7.431  17.460  0.00  0.00    +0.000 C 
BRANCH  18  19
ATOM     19  N   UNL     1       7.517   5.976  17.198  0.00  0.00    +0.000 NA
ATOM     20  C   UNL     1       7.037   5.150  18.328  0.00  0.00    +0.000 C 
ATOM     21  C   UNL     1       5.556   5.381  18.655  0.00  0.00    +0.000 C 
ATOM     22  N   UNL     1       4.728   5.053  17.491  0.00  0.00    +0.000 N 
ATOM     23  C   UNL     1       5.164   5.562  16.179  0.00  0.00    +0.000 C 
ATOM     24  C   UNL     1       6.712   5.582  16.010  0.00  0.00    +0.000 C 
BRANCH  22  25
ATOM     25  C   UNL     1       3.691   4.160  17.693  0.00  0.00    +0.000 A 
ATOM     26  C   UNL     1       2.368   4.632  17.808  0.00  0.00    +0.000 A 
ATOM     27  C   UNL     1       1.317   3.813  18.208  0.00  0.00    +0.000 A 
ATOM     28  C   UNL     1       1.555   2.471  18.471  0.00  0.00    +0.000 A 
ATOM     29  C   UNL     1       2.836   1.954  18.286  0.00  0.00    +0.000 A 
ATOM     30  C   UNL     1       3.889   2.792  17.889  0.00  0.00    +0.000 A 
ENDBRANCH  22  25
ENDBRANCH  18  19
ENDBRANCH  17  18
ENDBRANCH   2  17
TORSDOF 7
ENDMDL
