MODEL 1
REMARK VINA RESULT:      -7.5      0.000      0.000
REMARK  Name = 
REMARK  4 active torsions:
REMARK  status: ('A' for Active; 'I' for Inactive)
REMARK    1  A    between atoms: C_2  and  C_4
REMARK    2  A    between atoms: N_6  and  C_7
REMARK    3  A    between atoms: C_7  and  C_8
REMARK    4  A    between atoms: N_15  and  C_16
REMARK                            x       y       z     vdW  Elec       q    Type
REMARK                         _______ _______ _______ _____ _____    ______ ____
ROOT
ATOM      1  C   UNL     1       3.040   3.797  20.414  0.00  0.00    +0.000 C 
ATOM      2  C   UNL     1       3.371   2.971  19.167  0.00  0.00    +0.000 C 
ATOM      3  N   UNL     1       4.051   3.590  18.029  0.00  0.00    +0.000 NA
ATOM      4  C   UNL     1       3.161   4.529  17.349  0.00  0.00    +0.000 C 
ATOM      5  C   UNL     1       2.956   5.928  17.973  0.00  0.00    +0.000 C 
ATOM      6  N   UNL     1       2.342   6.034  19.323  0.00  0.00    +0.000 NA
ATOM      7  C   UNL     1       3.145   5.331  20.352  0.00  0.00    +0.000 C 
ENDROOT
BRANCH   6   8
ATOM      8  C   UNL     1       2.135   7.487  19.657  0.00  0.00    +0.000 C 
ATOM      9  C   UNL     1       1.203   7.763  20.856  0.00  0.00    +0.000 C 
ATOM     10  C   UNL     1       0.982   9.253  21.065  0.00  0.00    +0.000 C 
ATOM     11  O   UNL     1       0.505   9.866  19.873  0.00  0.00    +0.000 OA
ATOM     12  C   UNL     1       1.458   9.784  18.817  0.00  0.00    +0.000 C 
ATOM     13  C   UNL     1       1.708   8.330  18.435  0.00  0.00    +0.000 C 
ENDBRANCH   6   8
BRANCH   1  15
ATOM     14  N   UNL     1       0.584   3.607  20.241  0.00  0.00    +0.000 N 
ATOM     15  C   UNL     1       1.699   3.312  20.963  0.00  0.00    +0.000 C 
ATOM     16  O   UNL     1       1.605   2.626  21.979  0.00  0.00    +0.000 OA
ATOM     17  H   UNL     1      -0.303   3.235  20.549  0.00  0.00    +0.000 HD
ATOM     18  H   UNL     1       0.665   3.999  19.307  0.00  0.00    +0.000 HD
ENDBRANCH   1  15
BRANCH   3  19
ATOM     19  C   UNL     1       5.403   4.117  18.271  0.00  0.00    +0.000 C 
BRANCH  19  20
ATOM     20  C   UNL     1       6.093   4.513  17.006  0.00  0.00    +0.000 A 
ATOM     21  C   UNL     1       6.878   5.621  16.749  0.00  0.00    +0.000 A 
ATOM     22  N   UNL     1       7.252   5.503  15.445  0.00  0.00    +0.000 N 
ATOM     23  C   UNL     1       6.713   4.342  14.958  0.00  0.00    +0.000 A 
ATOM     24  N   UNL     1       6.006   3.724  15.874  0.00  0.00    +0.000 NA
ATOM     25  H   UNL     1       7.826   6.149  14.919  0.00  0.00    +0.000 HD
ENDBRANCH  19  20
ENDBRANCH   3  19
TORSDOF 4
ENDMDL
MODEL 2
REMARK VINA RESULT:      -7.4      3.778      7.048
REMARK  Name = 
REMARK  4 active torsions:
REMARK  status: ('A' for Active; 'I' for Inactive)
REMARK    1  A    between atoms: C_2  and  C_4
REMARK    2  A    between atoms: N_6  and  C_7
REMARK    3  A    between atoms: C_7  and  C_8
REMARK    4  A    between atoms: N_15  and  C_16
REMARK                            x       y       z     vdW  Elec       q    Type
REMARK                         _______ _______ _______ _____ _____    ______ ____
ROOT
ATOM      1  C   UNL     1       7.130   5.557  18.321  0.00  0.00    +0.000 C 
ATOM      2  C   UNL     1       5.817   5.774  19.082  0.00  0.00    +0.000 C 
ATOM      3  N   UNL     1       4.654   4.929  18.808  0.00  0.00    +0.000 NA
ATOM      4  C   UNL     1       4.107   5.223  17.485  0.00  0.00    +0.000 C 
ATOM      5  C   UNL     1       4.817   4.627  16.248  0.00  0.00    +0.000 C 
ATOM      6  N   UNL     1       6.221   5.024  15.961  0.00  0.00    +0.000 NA
ATOM      7  C   UNL     1       7.136   4.662  17.070  0.00  0.00    +0.000 C 
ENDROOT
BRANCH   6   8
ATOM      8  C   UNL     1       6.646   4.417  14.651  0.00  0.00    +0.000 C 
ATOM      9  C   UNL     1       7.525   5.318  13.759  0.00  0.00    +0.000 C 
ATOM     10  C   UNL     1       7.832   4.659  12.422  0.00  0.00    +0.000 C 
ATOM     11  O   UNL     1       6.633   4.270  11.763  0.00  0.00    +0.000 OA
ATOM     12  C   UNL     1       5.919   3.282  12.501  0.00  0.00    +0.000 C 
ATOM     13  C   UNL     1       5.462   3.844  13.841  0.00  0.00    +0.000 C 
ENDBRANCH   6   8
BRANCH   1  15
ATOM     14  N   UNL     1       7.410   7.596  16.958  0.00  0.00    +0.000 N 
ATOM     15  C   UNL     1       7.773   6.922  18.083  0.00  0.00    +0.000 C 
ATOM     16  O   UNL     1       8.541   7.445  18.888  0.00  0.00    +0.000 OA
ATOM     17  H   UNL     1       7.770   8.530  16.818  0.00  0.00    +0.000 HD
ATOM     18  H   UNL     1       6.635   7.267  16.389  0.00  0.00    +0.000 HD
ENDBRANCH   1  15
BRANCH   3  19
ATOM     19  C   UNL     1       4.799   3.492  19.088  0.00  0.00    +0.000 C 
BRANCH  19  20
ATOM     20  C   UNL     1       3.484   2.784  19.116  0.00  0.00    +0.000 A 
ATOM     21  C   UNL     1       3.034   1.745  18.323  0.00  0.00    +0.000 A 
ATOM     22  N   UNL     1       1.771   1.480  18.759  0.00  0.00    +0.000 N 
ATOM     23  C   UNL     1       1.497   2.333  19.795  0.00  0.00    +0.000 A 
ATOM     24  N   UNL     1       2.509   3.133  20.032  0.00  0.00    +0.000 NA
ATOM     25  H   UNL     1       1.139   0.780  18.392  0.00  0.00    +0.000 HD
ENDBRANCH  19  20
ENDBRANCH   3  19
TORSDOF 4
ENDMDL
MODEL 3
REMARK VINA RESULT:      -7.2      3.693      6.918
REMARK  Name = 
REMARK  4 active torsions:
REMARK  status: ('A' for Active; 'I' for Inactive)
REMARK    1  A    between atoms: C_2  and  C_4
REMARK    2  A    between atoms: N_6  and  C_7
REMARK    3  A    between atoms: C_7  and  C_8
REMARK    4  A    between atoms: N_15  and  C_16
REMARK                            x       y       z     vdW  Elec       q    Type
REMARK                         _______ _______ _______ _____ _____    ______ ____
ROOT
ATOM      1  C   UNL     1       7.180   5.532  18.184  0.00  0.00    +0.000 C 
ATOM      2  C   UNL     1       6.046   5.632  19.210  0.00  0.00    +0.000 C 
ATOM      3  N   UNL     1       4.802   4.887  19.013  0.00  0.00    +0.000 NA
ATOM      4  C   UNL     1       4.040   5.447  17.899  0.00  0.00    +0.000 C 
ATOM      5  C   UNL     1       4.471   5.086  16.460  0.00  0.00    +0.000 C 
ATOM      6  N   UNL     1       5.820   5.494  15.986  0.00  0.00    +0.000 NA
ATOM      7  C   UNL     1       6.899   4.898  16.810  0.00  0.00    +0.000 C 
ENDROOT
BRANCH   6   8
ATOM      8  C   UNL     1       5.958   5.142  14.528  0.00  0.00    +0.000 C 
ATOM      9  C   UNL     1       5.308   3.807  14.106  0.00  0.00    +0.000 C 
ATOM     10  C   UNL     1       5.572   3.493  12.641  0.00  0.00    +0.000 C 
ATOM     11  O   UNL     1       6.967   3.513  12.363  0.00  0.00    +0.000 OA
ATOM     12  C   UNL     1       7.528   4.807  12.564  0.00  0.00    +0.000 C 
ATOM     13  C   UNL     1       7.416   5.216  14.027  0.00  0.00    +0.000 C 
ENDBRANCH   6   8
BRANCH   1  15
ATOM     14  N   UNL     1       7.575   7.655  16.987  0.00  0.00    +0.000 N 
ATOM     15  C   UNL     1       7.853   6.901  18.084  0.00  0.00    +0.000 C 
ATOM     16  O   UNL     1       8.569   7.356  18.973  0.00  0.00    +0.000 OA
ATOM     17  H   UNL     1       7.953   8.591  16.936  0.00  0.00    +0.000 HD
ATOM     18  H   UNL     1       6.837   7.378  16.345  0.00  0.00    +0.000 HD
ENDBRANCH   1  15
BRANCH   3  19
ATOM     19  C   UNL     1       4.905   3.420  18.988  0.00  0.00    +0.000 C 
BRANCH  19  20
ATOM     20  C   UNL     1       3.571   2.755  19.083  0.00  0.00    +0.000 A 
ATOM     21  C   UNL     1       2.982   1.850  18.220  0.00  0.00    +0.000 A 
ATOM     22  N   UNL     1       1.769   1.566  18.770  0.00  0.00    +0.000 N 
ATOM     23  C   UNL     1       1.660   2.275  19.936  0.00  0.00    +0.000 A 
ATOM     24  N   UNL     1       2.729   3.004  20.151  0.00  0.00    +0.000 NA
ATOM     25  H   UNL     1       1.065   0.943  18.394  0.00  0.00    +0.000 HD
ENDBRANCH  19  20
ENDBRANCH   3  19
TORSDOF 4
ENDMDL
MODEL 4
REMARK VINA RESULT:      -7.0      0.685      1.004
REMARK  Name = 
REMARK  4 active torsions:
REMARK  status: ('A' for Active; 'I' for Inactive)
REMARK    1  A    between atoms: C_2  and  C_4
REMARK    2  A    between atoms: N_6  and  C_7
REMARK    3  A    between atoms: C_7  and  C_8
REMARK    4  A    between atoms: N_15  and  C_16
REMARK                            x       y       z     vdW  Elec       q    Type
REMARK                         _______ _______ _______ _____ _____    ______ ____
ROOT
ATOM      1  C   UNL     1       2.851   3.711  20.430  0.00  0.00    +0.000 C 
ATOM      2  C   UNL     1       3.366   2.948  19.204  0.00  0.00    +0.000 C 
ATOM      3  N   UNL     1       4.220   3.615  18.222  0.00  0.00    +0.000 NA
ATOM      4  C   UNL     1       3.456   4.606  17.466  0.00  0.00    +0.000 C 
ATOM      5  C   UNL     1       3.169   5.972  18.128  0.00  0.00    +0.000 C 
ATOM      6  N   UNL     1       2.354   6.016  19.370  0.00  0.00    +0.000 NA
ATOM      7  C   UNL     1       2.979   5.244  20.470  0.00  0.00    +0.000 C 
ENDROOT
BRANCH   6   8
ATOM      8  C   UNL     1       2.110   7.452  19.749  0.00  0.00    +0.000 C 
ATOM      9  C   UNL     1       1.161   7.668  20.947  0.00  0.00    +0.000 C 
ATOM     10  C   UNL     1       0.905   9.146  21.201  0.00  0.00    +0.000 C 
ATOM     11  O   UNL     1       0.425   9.786  20.025  0.00  0.00    +0.000 OA
ATOM     12  C   UNL     1       1.390   9.759  18.977  0.00  0.00    +0.000 C 
ATOM     13  C   UNL     1       1.676   8.325  18.551  0.00  0.00    +0.000 C 
ENDBRANCH   6   8
BRANCH   1  15
ATOM     14  N   UNL     1       0.498   3.376  19.764  0.00  0.00    +0.000 N 
ATOM     15  C   UNL     1       1.437   3.222  20.736  0.00  0.00    +0.000 C 
ATOM     16  O   UNL     1       1.144   2.649  21.783  0.00  0.00    +0.000 OA
ATOM     17  H   UNL     1      -0.425   2.995  19.920  0.00  0.00    +0.000 HD
ATOM     18  H   UNL     1       0.769   3.665  18.828  0.00  0.00    +0.000 HD
ENDBRANCH   1  15
BRANCH   3  19
ATOM     19  C   UNL     1       5.523   4.104  18.700  0.00  0.00    +0.000 C 
BRANCH  19  20
ATOM     20  C   UNL     1       6.270   4.853  17.645  0.00  0.00    +0.000 A 
ATOM     21  C   UNL     1       6.682   4.427  16.397  0.00  0.00    +0.000 A 
ATOM     22  N   UNL     1       7.323   5.495  15.845  0.00  0.00    +0.000 N 
ATOM     23  C   UNL     1       7.269   6.526  16.744  0.00  0.00    +0.000 A 
ATOM     24  N   UNL     1       6.643   6.170  17.840  0.00  0.00    +0.000 NA
ATOM     25  H   UNL     1       7.762   5.532  14.934  0.00  0.00    +0.000 HD
ENDBRANCH  19  20
ENDBRANCH   3  19
TORSDOF 4
ENDMDL
MODEL 5
REMARK VINA RESULT:      -6.9      3.511      6.998
REMARK  Name = 
REMARK  4 active torsions:
REMARK  status: ('A' for Active; 'I' for Inactive)
REMARK    1  A    between atoms: C_2  and  C_4
REMARK    2  A    between atoms: N_6  and  C_7
REMARK    3  A    between atoms: C_7  and  C_8
REMARK    4  A    between atoms: N_15  and  C_16
REMARK                            x       y       z     vdW  Elec       q    Type
REMARK                         _______ _______ _______ _____ _____    ______ ____
ROOT
ATOM      1  C   UNL     1       6.498   4.770  18.802  0.00  0.00    +0.000 C 
ATOM      2  C   UNL     1       5.194   5.406  19.295  0.00  0.00    +0.000 C 
ATOM      3  N   UNL     1       3.949   5.212  18.551  0.00  0.00    +0.000 NA
ATOM      4  C   UNL     1       3.992   5.935  17.281  0.00  0.00    +0.000 C 
ATOM      5  C   UNL     1       4.777   5.308  16.107  0.00  0.00    +0.000 C 
ATOM      6  N   UNL     1       6.242   5.095  16.250  0.00  0.00    +0.000 NA
ATOM      7  C   UNL     1       6.561   4.188  17.378  0.00  0.00    +0.000 C 
ENDROOT
BRANCH   6   8
ATOM      8  C   UNL     1       6.796   4.594  14.943  0.00  0.00    +0.000 C 
ATOM      9  C   UNL     1       7.578   5.636  14.115  0.00  0.00    +0.000 C 
ATOM     10  C   UNL     1       8.023   5.068  12.775  0.00  0.00    +0.000 C 
ATOM     11  O   UNL     1       6.915   4.543  12.055  0.00  0.00    +0.000 OA
ATOM     12  C   UNL     1       6.314   3.444  12.733  0.00  0.00    +0.000 C 
ATOM     13  C   UNL     1       5.734   3.894  14.068  0.00  0.00    +0.000 C 
ENDBRANCH   6   8
BRANCH   1  15
ATOM     14  N   UNL     1       8.460   5.431  20.147  0.00  0.00    +0.000 N 
ATOM     15  C   UNL     1       7.643   5.736  19.103  0.00  0.00    +0.000 C 
ATOM     16  O   UNL     1       7.881   6.722  18.409  0.00  0.00    +0.000 OA
ATOM     17  H   UNL     1       9.264   6.018  20.319  0.00  0.00    +0.000 HD
ATOM     18  H   UNL     1       8.396   4.524  20.603  0.00  0.00    +0.000 HD
ENDBRANCH   1  15
BRANCH   3  19
ATOM     19  C   UNL     1       3.453   3.832  18.436  0.00  0.00    +0.000 C 
BRANCH  19  20
ATOM     20  C   UNL     1       2.477   3.487  19.513  0.00  0.00    +0.000 A 
ATOM     21  C   UNL     1       1.096   3.467  19.467  0.00  0.00    +0.000 A 
ATOM     22  N   UNL     1       0.700   3.092  20.715  0.00  0.00    +0.000 N 
ATOM     23  C   UNL     1       1.825   2.880  21.467  0.00  0.00    +0.000 A 
ATOM     24  N   UNL     1       2.913   3.113  20.771  0.00  0.00    +0.000 NA
ATOM     25  H   UNL     1      -0.252   2.983  21.041  0.00  0.00    +0.000 HD
ENDBRANCH  19  20
ENDBRANCH   3  19
TORSDOF 4
ENDMDL
MODEL 6
REMARK VINA RESULT:      -6.9      0.626      1.215
REMARK  Name = 
REMARK  4 active torsions:
REMARK  status: ('A' for Active; 'I' for Inactive)
REMARK    1  A    between atoms: C_2  and  C_4
REMARK    2  A    between atoms: N_6  and  C_7
REMARK    3  A    between atoms: C_7  and  C_8
REMARK    4  A    between atoms: N_15  and  C_16
REMARK                            x       y       z     vdW  Elec       q    Type
REMARK                         _______ _______ _______ _____ _____    ______ ____
ROOT
ATOM      1  C   UNL     1       3.073   3.928  20.560  0.00  0.00    +0.000 C 
ATOM      2  C   UNL     1       3.742   2.992  19.547  0.00  0.00    +0.000 C 
ATOM      3  N   UNL     1       4.443   3.540  18.385  0.00  0.00    +0.000 NA
ATOM      4  C   UNL     1       3.491   4.122  17.440  0.00  0.00    +0.000 C 
ATOM      5  C   UNL     1       2.920   5.525  17.744  0.00  0.00    +0.000 C 
ATOM      6  N   UNL     1       2.107   5.724  18.973  0.00  0.00    +0.000 NA
ATOM      7  C   UNL     1       2.876   5.411  20.201  0.00  0.00    +0.000 C 
ENDROOT
BRANCH   6   8
ATOM      8  C   UNL     1       1.565   7.129  18.983  0.00  0.00    +0.000 C 
ATOM      9  C   UNL     1       2.164   8.076  17.922  0.00  0.00    +0.000 C 
ATOM     10  C   UNL     1       1.624   9.491  18.064  0.00  0.00    +0.000 C 
ATOM     11  O   UNL     1       1.828   9.980  19.384  0.00  0.00    +0.000 OA
ATOM     12  C   UNL     1       1.108   9.218  20.349  0.00  0.00    +0.000 C 
ATOM     13  C   UNL     1       1.616   7.782  20.382  0.00  0.00    +0.000 C 
ENDBRANCH   6   8
BRANCH   1  15
ATOM     14  N   UNL     1       0.699   3.328  20.245  0.00  0.00    +0.000 N 
ATOM     15  C   UNL     1       1.791   3.257  21.052  0.00  0.00    +0.000 C 
ATOM     16  O   UNL     1       1.736   2.615  22.100  0.00  0.00    +0.000 OA
ATOM     17  H   UNL     1      -0.137   2.831  20.519  0.00  0.00    +0.000 HD
ATOM     18  H   UNL     1       0.783   3.681  19.296  0.00  0.00    +0.000 HD
ENDBRANCH   1  15
BRANCH   3  19
ATOM     19  C   UNL     1       5.611   4.392  18.656  0.00  0.00    +0.000 C 
BRANCH  19  20
ATOM     20  C   UNL     1       6.300   4.825  17.403  0.00  0.00    +0.000 A 
ATOM     21  C   UNL     1       6.956   6.011  17.132  0.00  0.00    +0.000 A 
ATOM     22  N   UNL     1       7.396   5.894  15.849  0.00  0.00    +0.000 N 
ATOM     23  C   UNL     1       7.021   4.660  15.387  0.00  0.00    +0.000 A 
ATOM     24  N   UNL     1       6.356   3.993  16.301  0.00  0.00    +0.000 NA
ATOM     25  H   UNL     1       7.911   6.586  15.319  0.00  0.00    +0.000 HD
ENDBRANCH  19  20
ENDBRANCH   3  19
TORSDOF 4
ENDMDL
MODEL 7
REMARK VINA RESULT:      -6.9      3.485      6.872
REMARK  Name = 
REMARK  4 active torsions:
REMARK  status: ('A' for Active; 'I' for Inactive)
REMARK    1  A    between atoms: C_2  and  C_4
REMARK    2  A    between atoms: N_6  and  C_7
REMARK    3  A    between atoms: C_7  and  C_8
REMARK    4  A    between atoms: N_15  and  C_16
REMARK                            x       y       z     vdW  Elec       q    Type
REMARK                         _______ _______ _______ _____ _____    ______ ____
ROOT
ATOM      1  C   UNL     1       6.184   4.467  18.210  0.00  0.00    +0.000 C 
ATOM      2  C   UNL     1       5.418   5.488  19.058  0.00  0.00    +0.000 C 
ATOM      3  N   UNL     1       4.183   6.090  18.555  0.00  0.00    +0.000 NA
ATOM      4  C   UNL     1       4.471   7.005  17.451  0.00  0.00    +0.000 C 
ATOM      5  C   UNL     1       4.736   6.405  16.052  0.00  0.00    +0.000 C 
ATOM      6  N   UNL     1       5.905   5.507  15.860  0.00  0.00    +0.000 NA
ATOM      7  C   UNL     1       5.826   4.304  16.722  0.00  0.00    +0.000 C 
ENDROOT
BRANCH   6   8
ATOM      8  C   UNL     1       6.022   5.156  14.401  0.00  0.00    +0.000 C 
ATOM      9  C   UNL     1       5.346   3.832  13.984  0.00  0.00    +0.000 C 
ATOM     10  C   UNL     1       5.591   3.515  12.516  0.00  0.00    +0.000 C 
ATOM     11  O   UNL     1       6.983   3.513  12.224  0.00  0.00    +0.000 OA
ATOM     12  C   UNL     1       7.567   4.798  12.420  0.00  0.00    +0.000 C 
ATOM     13  C   UNL     1       7.477   5.207  13.885  0.00  0.00    +0.000 C 
ENDBRANCH   6   8
BRANCH   1  15
ATOM     14  N   UNL     1       8.041   5.483  19.480  0.00  0.00    +0.000 N 
ATOM     15  C   UNL     1       7.679   4.679  18.445  0.00  0.00    +0.000 C 
ATOM     16  O   UNL     1       8.543   4.108  17.783  0.00  0.00    +0.000 OA
ATOM     17  H   UNL     1       9.023   5.579  19.697  0.00  0.00    +0.000 HD
ATOM     18  H   UNL     1       7.347   5.801  20.152  0.00  0.00    +0.000 HD
ENDBRANCH   1  15
BRANCH   3  19
ATOM     19  C   UNL     1       3.058   5.178  18.296  0.00  0.00    +0.000 C 
BRANCH  19  20
ATOM     20  C   UNL     1       2.656   4.413  19.514  0.00  0.00    +0.000 A 
ATOM     21  C   UNL     1       2.099   4.874  20.692  0.00  0.00    +0.000 A 
ATOM     22  N   UNL     1       1.935   3.769  21.470  0.00  0.00    +0.000 N 
ATOM     23  C   UNL     1       2.369   2.684  20.755  0.00  0.00    +0.000 A 
ATOM     24  N   UNL     1       2.813   3.040  19.573  0.00  0.00    +0.000 NA
ATOM     25  H   UNL     1       1.559   3.739  22.409  0.00  0.00    +0.000 HD
ENDBRANCH  19  20
ENDBRANCH   3  19
TORSDOF 4
ENDMDL
MODEL 8
REMARK VINA RESULT:      -6.7      2.690      6.161
REMARK  Name = 
REMARK  4 active torsions:
REMARK  status: ('A' for Active; 'I' for Inactive)
REMARK    1  A    between atoms: C_2  and  C_4
REMARK    2  A    between atoms: N_6  and  C_7
REMARK    3  A    between atoms: C_7  and  C_8
REMARK    4  A    between atoms: N_15  and  C_16
REMARK                            x       y       z     vdW  Elec       q    Type
REMARK                         _______ _______ _______ _____ _____    ______ ____
ROOT
ATOM      1  C   UNL     1       1.644   4.095  18.132  0.00  0.00    +0.000 C 
ATOM      2  C   UNL     1       1.400   4.710  19.514  0.00  0.00    +0.000 C 
ATOM      3  N   UNL     1       2.231   5.817  19.989  0.00  0.00    +0.000 NA
ATOM      4  C   UNL     1       3.588   5.355  20.273  0.00  0.00    +0.000 C 
ATOM      5  C   UNL     1       4.557   5.151  19.086  0.00  0.00    +0.000 C 
ATOM      6  N   UNL     1       4.227   4.136  18.051  0.00  0.00    +0.000 NA
ATOM      7  C   UNL     1       2.941   4.432  17.376  0.00  0.00    +0.000 C 
ENDROOT
BRANCH   6   8
ATOM      8  C   UNL     1       5.371   4.036  17.077  0.00  0.00    +0.000 C 
ATOM      9  C   UNL     1       6.668   4.755  17.505  0.00  0.00    +0.000 C 
ATOM     10  C   UNL     1       7.736   4.676  16.425  0.00  0.00    +0.000 C 
ATOM     11  O   UNL     1       7.241   5.171  15.187  0.00  0.00    +0.000 OA
ATOM     12  C   UNL     1       6.165   4.379  14.692  0.00  0.00    +0.000 C 
ATOM     13  C   UNL     1       4.975   4.443  15.641  0.00  0.00    +0.000 C 
ENDBRANCH   6   8
BRANCH   1  15
ATOM     14  N   UNL     1       2.437   1.760  18.028  0.00  0.00    +0.000 N 
ATOM     15  C   UNL     1       1.381   2.593  18.227  0.00  0.00    +0.000 C 
ATOM     16  O   UNL     1       0.285   2.127  18.533  0.00  0.00    +0.000 OA
ATOM     17  H   UNL     1       2.300   0.767  18.156  0.00  0.00    +0.000 HD
ATOM     18  H   UNL     1       3.382   2.131  17.970  0.00  0.00    +0.000 HD
ENDBRANCH   1  15
BRANCH   3  19
ATOM     19  C   UNL     1       2.176   7.067  19.214  0.00  0.00    +0.000 C 
BRANCH  19  20
ATOM     20  C   UNL     1       1.570   8.190  19.990  0.00  0.00    +0.000 A 
ATOM     21  C   UNL     1       1.113   9.415  19.542  0.00  0.00    +0.000 A 
ATOM     22  N   UNL     1       0.667  10.062  20.655  0.00  0.00    +0.000 N 
ATOM     23  C   UNL     1       0.843   9.225  21.725  0.00  0.00    +0.000 A 
ATOM     24  N   UNL     1       1.388   8.090  21.357  0.00  0.00    +0.000 NA
ATOM     25  H   UNL     1       0.272  10.992  20.696  0.00  0.00    +0.000 HD
ENDBRANCH  19  20
ENDBRANCH   3  19
TORSDOF 4
ENDMDL
MODEL 9
REMARK VINA RESULT:      -6.7      3.481      6.910
REMARK  Name = 
REMARK  4 active torsions:
REMARK  status: ('A' for Active; 'I' for Inactive)
REMARK    1  A    between atoms: C_2  and  C_4
REMARK    2  A    between atoms: N_6  and  C_7
REMARK    3  A    between atoms: C_7  and  C_8
REMARK    4  A    between atoms: N_15  and  C_16
REMARK                            x       y       z     vdW  Elec       q    Type
REMARK                         _______ _______ _______ _____ _____    ______ ____
ROOT
ATOM      1  C   UNL     1       6.433   4.880  18.736  0.00  0.00    +0.000 C 
ATOM      2  C   UNL     1       5.257   5.751  19.194  0.00  0.00    +0.000 C 
ATOM      3  N   UNL     1       4.025   5.803  18.407  0.00  0.00    +0.000 NA
ATOM      4  C   UNL     1       4.250   6.513  17.148  0.00  0.00    +0.000 C 
ATOM      5  C   UNL     1       4.943   5.755  15.993  0.00  0.00    +0.000 C 
ATOM      6  N   UNL     1       6.334   5.265  16.182  0.00  0.00    +0.000 NA
ATOM      7  C   UNL     1       6.434   4.307  17.308  0.00  0.00    +0.000 C 
ENDROOT
BRANCH   6   8
ATOM      8  C   UNL     1       6.829   4.677  14.888  0.00  0.00    +0.000 C 
ATOM      9  C   UNL     1       7.620   5.644  13.982  0.00  0.00    +0.000 C 
ATOM     10  C   UNL     1       8.002   4.990  12.663  0.00  0.00    +0.000 C 
ATOM     11  O   UNL     1       6.854   4.469  12.004  0.00  0.00    +0.000 OA
ATOM     12  C   UNL     1       6.237   3.430  12.759  0.00  0.00    +0.000 C 
ATOM     13  C   UNL     1       5.715   3.971  14.084  0.00  0.00    +0.000 C 
ENDBRANCH   6   8
BRANCH   1  15
ATOM     14  N   UNL     1       7.961   6.802  18.480  0.00  0.00    +0.000 N 
ATOM     15  C   UNL     1       7.729   5.608  19.089  0.00  0.00    +0.000 C 
ATOM     16  O   UNL     1       8.518   5.190  19.933  0.00  0.00    +0.000 OA
ATOM     17  H   UNL     1       8.777   7.333  18.752  0.00  0.00    +0.000 HD
ATOM     18  H   UNL     1       7.231   7.252  17.934  0.00  0.00    +0.000 HD
ENDBRANCH   1  15
BRANCH   3  19
ATOM     19  C   UNL     1       3.280   4.544  18.256  0.00  0.00    +0.000 C 
BRANCH  19  20
ATOM     20  C   UNL     1       2.962   3.912  19.572  0.00  0.00    +0.000 A 
ATOM     21  C   UNL     1       3.370   2.691  20.076  0.00  0.00    +0.000 A 
ATOM     22  N   UNL     1       2.795   2.599  21.307  0.00  0.00    +0.000 N 
ATOM     23  C   UNL     1       2.083   3.749  21.524  0.00  0.00    +0.000 A 
ATOM     24  N   UNL     1       2.161   4.559  20.495  0.00  0.00    +0.000 NA
ATOM     25  H   UNL     1       2.873   1.827  21.956  0.00  0.00    +0.000 HD
ENDBRANCH  19  20
ENDBRANCH   3  19
TORSDOF 4
ENDMDL
