MODEL 1
REMARK VINA RESULT:      -8.0      0.000      0.000
REMARK  Name = 
REMARK  8 active torsions:
REMARK  status: ('A' for Active; 'I' for Inactive)
REMARK    1  A    between atoms: C_1  and  C_2
REMARK    2  A    between atoms: C_5  and  C_6
REMARK    3  A    between atoms: C_9  and  S_10
REMARK    4  A    between atoms: S_10  and  N_13
REMARK    5  A    between atoms: N_13  and  C_14
REMARK    6  A    between atoms: N_13  and  C_15
REMARK    7  A    between atoms: C_15  and  C_16
REMARK    8  A    between atoms: C_16  and  C_17
REMARK                            x       y       z     vdW  Elec       q    Type
REMARK                         _______ _______ _______ _____ _____    ______ ____
ROOT
ATOM      1  N   UNL     1       2.580   4.173  18.312  0.00  0.00    +0.000 NA
ATOM      2  C   UNL     1       1.310   3.386  18.378  0.00  0.00    +0.000 C 
ENDROOT
BRANCH   1   3
ATOM      3  S   UNL     1       3.981   3.183  18.408  0.00  0.00    +0.000 S 
ATOM      4  O   UNL     1       3.629   1.907  17.807  0.00  0.00    +0.000 OA
ATOM      5  O   UNL     1       4.537   3.223  19.738  0.00  0.00    +0.000 OA
BRANCH   3  12
ATOM      6  C   UNL     1       6.313   5.217  19.279  0.00  0.00    +0.000 C 
ATOM      7  C   UNL     1       6.165   4.864  17.827  0.00  0.00    +0.000 A 
ATOM      8  C   UNL     1       7.073   5.440  16.913  0.00  0.00    +0.000 A 
ATOM      9  C   UNL     1       7.047   5.108  15.553  0.00  0.00    +0.000 A 
ATOM     10  C   UNL     1       6.107   4.186  15.077  0.00  0.00    +0.000 A 
ATOM     11  C   UNL     1       5.176   3.635  15.961  0.00  0.00    +0.000 A 
ATOM     12  C   UNL     1       5.186   3.979  17.333  0.00  0.00    +0.000 A 
BRANCH  10  13
ATOM     13  C   UNL     1       6.124   3.806  13.686  0.00  0.00    +0.000 C 
ATOM     14  N   UNL     1       6.139   3.498  12.573  0.00  0.00    +0.000 NA
ENDBRANCH  10  13
ENDBRANCH   3  12
ENDBRANCH   1   3
BRANCH   1  15
ATOM     15  C   UNL     1       2.466   5.283  19.322  0.00  0.00    +0.000 C 
BRANCH  15  16
ATOM     16  C   UNL     1       3.088   6.629  19.003  0.00  0.00    +0.000 C 
BRANCH  16  17
ATOM     17  C   UNL     1       2.277   7.874  18.859  0.00  0.00    +0.000 A 
ATOM     18  C   UNL     1       2.145   8.516  17.600  0.00  0.00    +0.000 A 
ATOM     19  N   UNL     1       1.674   9.752  17.683  0.00  0.00    +0.000 NA
ATOM     20  N   UNL     1       1.228   9.837  18.945  0.00  0.00    +0.000 N 
ATOM     21  C   UNL     1       0.404  10.836  19.440  0.00  0.00    +0.000 A 
ATOM     22  C   UNL     1      -0.206  10.673  20.618  0.00  0.00    +0.000 A 
ATOM     23  C   UNL     1       0.168   9.433  21.366  0.00  0.00    +0.000 A 
ATOM     24 CL   UNL     1      -0.634   9.128  22.866  0.00  0.00    +0.000 Cl
ATOM     25  N   UNL     1       1.037   8.535  20.978  0.00  0.00    +0.000 NA
ATOM     26  C   UNL     1       1.542   8.693  19.706  0.00  0.00    +0.000 A 
ENDBRANCH  16  17
ENDBRANCH  15  16
ENDBRANCH   1  15
TORSDOF 6
ENDMDL
MODEL 2
REMARK VINA RESULT:      -7.8      6.069      7.732
REMARK  Name = 
REMARK  8 active torsions:
REMARK  status: ('A' for Active; 'I' for Inactive)
REMARK    1  A    between atoms: C_1  and  C_2
REMARK    2  A    between atoms: C_5  and  C_6
REMARK    3  A    between atoms: C_9  and  S_10
REMARK    4  A    between atoms: S_10  and  N_13
REMARK    5  A    between atoms: N_13  and  C_14
REMARK    6  A    between atoms: N_13  and  C_15
REMARK    7  A    between atoms: C_15  and  C_16
REMARK    8  A    between atoms: C_16  and  C_17
REMARK                            x       y       z     vdW  Elec       q    Type
REMARK                         _______ _______ _______ _____ _____    ______ ____
ROOT
ATOM      1  N   UNL     1       7.391   6.852  17.557  0.00  0.00    +0.000 NA
ATOM      2  C   UNL     1       6.018   7.406  17.347  0.00  0.00    +0.000 C 
ENDROOT
BRANCH   1   3
ATOM      3  S   UNL     1       7.378   5.200  18.027  0.00  0.00    +0.000 S 
ATOM      4  O   UNL     1       7.765   5.164  19.427  0.00  0.00    +0.000 OA
ATOM      5  O   UNL     1       8.088   4.396  17.063  0.00  0.00    +0.000 OA
BRANCH   3  12
ATOM      6  C   UNL     1       5.760   4.335  15.387  0.00  0.00    +0.000 C 
ATOM      7  C   UNL     1       5.041   4.349  16.706  0.00  0.00    +0.000 A 
ATOM      8  C   UNL     1       3.682   3.967  16.718  0.00  0.00    +0.000 A 
ATOM      9  C   UNL     1       2.960   3.886  17.915  0.00  0.00    +0.000 A 
ATOM     10  C   UNL     1       3.586   4.186  19.130  0.00  0.00    +0.000 A 
ATOM     11  C   UNL     1       4.920   4.602  19.132  0.00  0.00    +0.000 A 
ATOM     12  C   UNL     1       5.650   4.702  17.925  0.00  0.00    +0.000 A 
BRANCH  10  13
ATOM     13  C   UNL     1       2.852   4.044  20.363  0.00  0.00    +0.000 C 
ATOM     14  N   UNL     1       2.266   3.931  21.353  0.00  0.00    +0.000 NA
ENDBRANCH  10  13
ENDBRANCH   3  12
ENDBRANCH   1   3
BRANCH   1  15
ATOM     15  C   UNL     1       8.120   7.807  18.463  0.00  0.00    +0.000 C 
BRANCH  15  16
ATOM     16  C   UNL     1       8.435   9.202  17.957  0.00  0.00    +0.000 C 
BRANCH  16  17
ATOM     17  C   UNL     1       9.136  10.220  18.792  0.00  0.00    +0.000 A 
ATOM     18  C   UNL     1       9.097  10.154  20.209  0.00  0.00    +0.000 A 
ATOM     19  N   UNL     1       9.485  11.273  20.803  0.00  0.00    +0.000 NA
ATOM     20  N   UNL     1      10.047  11.979  19.811  0.00  0.00    +0.000 N 
ATOM     21  C   UNL     1      10.842  13.103  19.975  0.00  0.00    +0.000 A 
ATOM     22  C   UNL     1      11.576  13.555  18.954  0.00  0.00    +0.000 A 
ATOM     23  C   UNL     1      11.367  12.846  17.653  0.00  0.00    +0.000 A 
ATOM     24 CL   UNL     1      12.333  13.337  16.308  0.00  0.00    +0.000 Cl
ATOM     25  N   UNL     1      10.530  11.862  17.441  0.00  0.00    +0.000 NA
ATOM     26  C   UNL     1       9.891  11.362  18.554  0.00  0.00    +0.000 A 
ENDBRANCH  16  17
ENDBRANCH  15  16
ENDBRANCH   1  15
TORSDOF 6
ENDMDL
MODEL 3
REMARK VINA RESULT:      -7.7      3.869      8.263
REMARK  Name = 
REMARK  8 active torsions:
REMARK  status: ('A' for Active; 'I' for Inactive)
REMARK    1  A    between atoms: C_1  and  C_2
REMARK    2  A    between atoms: C_5  and  C_6
REMARK    3  A    between atoms: C_9  and  S_10
REMARK    4  A    between atoms: S_10  and  N_13
REMARK    5  A    between atoms: N_13  and  C_14
REMARK    6  A    between atoms: N_13  and  C_15
REMARK    7  A    between atoms: C_15  and  C_16
REMARK    8  A    between atoms: C_16  and  C_17
REMARK                            x       y       z     vdW  Elec       q    Type
REMARK                         _______ _______ _______ _____ _____    ______ ____
ROOT
ATOM      1  N   UNL     1       1.243   9.183  18.566  0.00  0.00    +0.000 NA
ATOM      2  C   UNL     1       2.217  10.043  17.826  0.00  0.00    +0.000 C 
ENDROOT
BRANCH   1   3
ATOM      3  S   UNL     1       0.404  10.036  19.798  0.00  0.00    +0.000 S 
ATOM      4  O   UNL     1       1.221  11.191  20.133  0.00  0.00    +0.000 OA
ATOM      5  O   UNL     1      -0.023   9.131  20.837  0.00  0.00    +0.000 OA
BRANCH   3  12
ATOM      6  C   UNL     1      -1.723  12.122  21.007  0.00  0.00    +0.000 C 
ATOM      7  C   UNL     1      -1.963  11.553  19.637  0.00  0.00    +0.000 A 
ATOM      8  C   UNL     1      -3.116  11.978  18.942  0.00  0.00    +0.000 A 
ATOM      9  C   UNL     1      -3.375  11.550  17.634  0.00  0.00    +0.000 A 
ATOM     10  C   UNL     1      -2.481  10.685  16.992  0.00  0.00    +0.000 A 
ATOM     11  C   UNL     1      -1.355  10.225  17.680  0.00  0.00    +0.000 A 
ATOM     12  C   UNL     1      -1.096  10.640  19.006  0.00  0.00    +0.000 A 
BRANCH  10  13
ATOM     13  C   UNL     1      -2.726  10.295  15.626  0.00  0.00    +0.000 C 
ATOM     14  N   UNL     1      -2.921   9.985  14.529  0.00  0.00    +0.000 NA
ENDBRANCH  10  13
ENDBRANCH   3  12
ENDBRANCH   1   3
BRANCH   1  15
ATOM     15  C   UNL     1       1.980   7.940  18.986  0.00  0.00    +0.000 C 
BRANCH  15  16
ATOM     16  C   UNL     1       3.121   7.438  18.121  0.00  0.00    +0.000 C 
BRANCH  16  17
ATOM     17  C   UNL     1       3.395   5.985  17.917  0.00  0.00    +0.000 A 
ATOM     18  C   UNL     1       4.390   5.552  17.004  0.00  0.00    +0.000 A 
ATOM     19  N   UNL     1       4.305   4.265  16.697  0.00  0.00    +0.000 NA
ATOM     20  N   UNL     1       3.446   3.780  17.606  0.00  0.00    +0.000 N 
ATOM     21  C   UNL     1       3.237   2.436  17.876  0.00  0.00    +0.000 A 
ATOM     22  C   UNL     1       2.582   2.073  18.983  0.00  0.00    +0.000 A 
ATOM     23  C   UNL     1       2.017   3.199  19.789  0.00  0.00    +0.000 A 
ATOM     24 CL   UNL     1       1.214   2.803  21.268  0.00  0.00    +0.000 Cl
ATOM     25  N   UNL     1       2.093   4.471  19.492  0.00  0.00    +0.000 NA
ATOM     26  C   UNL     1       2.880   4.791  18.408  0.00  0.00    +0.000 A 
ENDBRANCH  16  17
ENDBRANCH  15  16
ENDBRANCH   1  15
TORSDOF 6
ENDMDL
MODEL 4
REMARK VINA RESULT:      -7.6      5.409      6.965
REMARK  Name = 
REMARK  8 active torsions:
REMARK  status: ('A' for Active; 'I' for Inactive)
REMARK    1  A    between atoms: C_1  and  C_2
REMARK    2  A    between atoms: C_5  and  C_6
REMARK    3  A    between atoms: C_9  and  S_10
REMARK    4  A    between atoms: S_10  and  N_13
REMARK    5  A    between atoms: N_13  and  C_14
REMARK    6  A    between atoms: N_13  and  C_15
REMARK    7  A    between atoms: C_15  and  C_16
REMARK    8  A    between atoms: C_16  and  C_17
REMARK                            x       y       z     vdW  Elec       q    Type
REMARK                         _______ _______ _______ _____ _____    ______ ____
ROOT
ATOM      1  N   UNL     1       7.551   6.699  17.705  0.00  0.00    +0.000 NA
ATOM      2  C   UNL     1       6.208   7.263  17.364  0.00  0.00    +0.000 C 
ENDROOT
BRANCH   1   3
ATOM      3  S   UNL     1       7.451   5.175  18.491  0.00  0.00    +0.000 S 
ATOM      4  O   UNL     1       7.616   5.431  19.913  0.00  0.00    +0.000 OA
ATOM      5  O   UNL     1       8.297   4.211  17.831  0.00  0.00    +0.000 OA
BRANCH   3  12
ATOM      6  C   UNL     1       6.177   4.056  15.761  0.00  0.00    +0.000 C 
ATOM      7  C   UNL     1       5.305   4.158  16.979  0.00  0.00    +0.000 A 
ATOM      8  C   UNL     1       3.960   3.744  16.861  0.00  0.00    +0.000 A 
ATOM      9  C   UNL     1       3.101   3.742  17.967  0.00  0.00    +0.000 A 
ATOM     10  C   UNL     1       3.572   4.156  19.218  0.00  0.00    +0.000 A 
ATOM     11  C   UNL     1       4.888   4.606  19.344  0.00  0.00    +0.000 A 
ATOM     12  C   UNL     1       5.757   4.626  18.228  0.00  0.00    +0.000 A 
BRANCH  10  13
ATOM     13  C   UNL     1       2.697   4.096  20.363  0.00  0.00    +0.000 C 
ATOM     14  N   UNL     1       1.994   4.051  21.279  0.00  0.00    +0.000 NA
ENDBRANCH  10  13
ENDBRANCH   3  12
ENDBRANCH   1   3
BRANCH   1  15
ATOM     15  C   UNL     1       8.317   7.780  18.419  0.00  0.00    +0.000 C 
BRANCH  15  16
ATOM     16  C   UNL     1       8.265   9.195  17.876  0.00  0.00    +0.000 C 
BRANCH  16  17
ATOM     17  C   UNL     1       9.087  10.304  18.444  0.00  0.00    +0.000 A 
ATOM     18  C   UNL     1       9.964  11.056  17.621  0.00  0.00    +0.000 A 
ATOM     19  N   UNL     1      10.843  11.777  18.304  0.00  0.00    +0.000 NA
ATOM     20  N   UNL     1      10.380  11.733  19.562  0.00  0.00    +0.000 N 
ATOM     21  C   UNL     1      10.796  12.552  20.600  0.00  0.00    +0.000 A 
ATOM     22  C   UNL     1      10.077  12.618  21.724  0.00  0.00    +0.000 A 
ATOM     23  C   UNL     1       8.916  11.677  21.798  0.00  0.00    +0.000 A 
ATOM     24 CL   UNL     1       7.906  11.758  23.198  0.00  0.00    +0.000 Cl
ATOM     25  N   UNL     1       8.575  10.806  20.884  0.00  0.00    +0.000 NA
ATOM     26  C   UNL     1       9.277  10.866  19.700  0.00  0.00    +0.000 A 
ENDBRANCH  16  17
ENDBRANCH  15  16
ENDBRANCH   1  15
TORSDOF 6
ENDMDL
MODEL 5
REMARK VINA RESULT:      -7.4      1.483      2.011
REMARK  Name = 
REMARK  8 active torsions:
REMARK  status: ('A' for Active; 'I' for Inactive)
REMARK    1  A    between atoms: C_1  and  C_2
REMARK    2  A    between atoms: C_5  and  C_6
REMARK    3  A    between atoms: C_9  and  S_10
REMARK    4  A    between atoms: S_10  and  N_13
REMARK    5  A    between atoms: N_13  and  C_14
REMARK    6  A    between atoms: N_13  and  C_15
REMARK    7  A    between atoms: C_15  and  C_16
REMARK    8  A    between atoms: C_16  and  C_17
REMARK                            x       y       z     vdW  Elec       q    Type
REMARK                         _______ _______ _______ _____ _____    ______ ____
ROOT
ATOM      1  N   UNL     1       2.607   4.540  18.295  0.00  0.00    +0.000 NA
ATOM      2  C   UNL     1       1.262   3.885  18.274  0.00  0.00    +0.000 C 
ENDROOT
BRANCH   1   3
ATOM      3  S   UNL     1       3.899   3.408  18.296  0.00  0.00    +0.000 S 
ATOM      4  O   UNL     1       3.402   2.212  17.637  0.00  0.00    +0.000 OA
ATOM      5  O   UNL     1       4.487   3.316  19.609  0.00  0.00    +0.000 OA
BRANCH   3  12
ATOM      6  C   UNL     1       6.264   5.404  19.167  0.00  0.00    +0.000 C 
ATOM      7  C   UNL     1       6.144   5.009  17.723  0.00  0.00    +0.000 A 
ATOM      8  C   UNL     1       7.093   5.531  16.818  0.00  0.00    +0.000 A 
ATOM      9  C   UNL     1       7.093   5.157  15.469  0.00  0.00    +0.000 A 
ATOM     10  C   UNL     1       6.141   4.247  14.996  0.00  0.00    +0.000 A 
ATOM     11  C   UNL     1       5.171   3.750  15.870  0.00  0.00    +0.000 A 
ATOM     12  C   UNL     1       5.155   4.136  17.230  0.00  0.00    +0.000 A 
BRANCH  10  13
ATOM     13  C   UNL     1       6.184   3.823  13.618  0.00  0.00    +0.000 C 
ATOM     14  N   UNL     1       6.222   3.486  12.513  0.00  0.00    +0.000 NA
ENDBRANCH  10  13
ENDBRANCH   3  12
ENDBRANCH   1   3
BRANCH   1  15
ATOM     15  C   UNL     1       2.590   5.548  19.413  0.00  0.00    +0.000 C 
BRANCH  15  16
ATOM     16  C   UNL     1       2.588   7.026  19.067  0.00  0.00    +0.000 C 
BRANCH  16  17
ATOM     17  C   UNL     1       1.757   8.021  19.805  0.00  0.00    +0.000 A 
ATOM     18  C   UNL     1       1.185   7.704  21.064  0.00  0.00    +0.000 A 
ATOM     19  N   UNL     1       0.235   8.547  21.442  0.00  0.00    +0.000 NA
ATOM     20  N   UNL     1       0.364   9.573  20.589  0.00  0.00    +0.000 N 
ATOM     21  C   UNL     1      -0.219  10.822  20.739  0.00  0.00    +0.000 A 
ATOM     22  C   UNL     1       0.200  11.847  19.992  0.00  0.00    +0.000 A 
ATOM     23  C   UNL     1       1.213  11.505  18.946  0.00  0.00    +0.000 A 
ATOM     24 CL   UNL     1       1.846  12.796  17.989  0.00  0.00    +0.000 Cl
ATOM     25  N   UNL     1       1.689  10.311  18.700  0.00  0.00    +0.000 NA
ATOM     26  C   UNL     1       1.313   9.318  19.578  0.00  0.00    +0.000 A 
ENDBRANCH  16  17
ENDBRANCH  15  16
ENDBRANCH   1  15
TORSDOF 6
ENDMDL
MODEL 6
REMARK VINA RESULT:      -7.3      5.615      6.799
REMARK  Name = 
REMARK  8 active torsions:
REMARK  status: ('A' for Active; 'I' for Inactive)
REMARK    1  A    between atoms: C_1  and  C_2
REMARK    2  A    between atoms: C_5  and  C_6
REMARK    3  A    between atoms: C_9  and  S_10
REMARK    4  A    between atoms: S_10  and  N_13
REMARK    5  A    between atoms: N_13  and  C_14
REMARK    6  A    between atoms: N_13  and  C_15
REMARK    7  A    between atoms: C_15  and  C_16
REMARK    8  A    between atoms: C_16  and  C_17
REMARK                            x       y       z     vdW  Elec       q    Type
REMARK                         _______ _______ _______ _____ _____    ______ ____
ROOT
ATOM      1  N   UNL     1       6.987   7.088  18.083  0.00  0.00    +0.000 NA
ATOM      2  C   UNL     1       7.880   6.211  18.903  0.00  0.00    +0.000 C 
ENDROOT
BRANCH   1   3
ATOM      3  S   UNL     1       6.234   6.246  16.790  0.00  0.00    +0.000 S 
ATOM      4  O   UNL     1       7.138   5.174  16.410  0.00  0.00    +0.000 OA
ATOM      5  O   UNL     1       5.759   7.174  15.793  0.00  0.00    +0.000 OA
BRANCH   3  12
ATOM      6  C   UNL     1       3.471   7.708  17.542  0.00  0.00    +0.000 C 
ATOM      7  C   UNL     1       3.610   6.237  17.812  0.00  0.00    +0.000 A 
ATOM      8  C   UNL     1       2.505   5.566  18.378  0.00  0.00    +0.000 A 
ATOM      9  C   UNL     1       2.528   4.183  18.596  0.00  0.00    +0.000 A 
ATOM     10  C   UNL     1       3.662   3.440  18.249  0.00  0.00    +0.000 A 
ATOM     11  C   UNL     1       4.779   4.094  17.724  0.00  0.00    +0.000 A 
ATOM     12  C   UNL     1       4.768   5.493  17.517  0.00  0.00    +0.000 A 
BRANCH  10  13
ATOM     13  C   UNL     1       3.656   2.008  18.424  0.00  0.00    +0.000 C 
ATOM     14  N   UNL     1       3.647   0.861  18.564  0.00  0.00    +0.000 NA
ENDBRANCH  10  13
ENDBRANCH   3  12
ENDBRANCH   1   3
BRANCH   1  15
ATOM     15  C   UNL     1       7.783   8.313  17.720  0.00  0.00    +0.000 C 
BRANCH  15  16
ATOM     16  C   UNL     1       8.804   8.843  18.709  0.00  0.00    +0.000 C 
BRANCH  16  17
ATOM     17  C   UNL     1       9.093  10.299  18.862  0.00  0.00    +0.000 A 
ATOM     18  C   UNL     1       9.249  11.135  17.726  0.00  0.00    +0.000 A 
ATOM     19  N   UNL     1       9.804  12.306  18.002  0.00  0.00    +0.000 NA
ATOM     20  N   UNL     1       9.760  12.370  19.341  0.00  0.00    +0.000 N 
ATOM     21  C   UNL     1       9.972  13.512  20.098  0.00  0.00    +0.000 A 
ATOM     22  C   UNL     1       9.626  13.529  21.388  0.00  0.00    +0.000 A 
ATOM     23  C   UNL     1       9.135  12.226  21.936  0.00  0.00    +0.000 A 
ATOM     24 CL   UNL     1       8.609  12.195  23.582  0.00  0.00    +0.000 Cl
ATOM     25  N   UNL     1       9.043  11.101  21.274  0.00  0.00    +0.000 NA
ATOM     26  C   UNL     1       9.298  11.173  19.923  0.00  0.00    +0.000 A 
ENDBRANCH  16  17
ENDBRANCH  15  16
ENDBRANCH   1  15
TORSDOF 6
ENDMDL
MODEL 7
REMARK VINA RESULT:      -7.3      3.093      6.185
REMARK  Name = 
REMARK  8 active torsions:
REMARK  status: ('A' for Active; 'I' for Inactive)
REMARK    1  A    between atoms: C_1  and  C_2
REMARK    2  A    between atoms: C_5  and  C_6
REMARK    3  A    between atoms: C_9  and  S_10
REMARK    4  A    between atoms: S_10  and  N_13
REMARK    5  A    between atoms: N_13  and  C_14
REMARK    6  A    between atoms: N_13  and  C_15
REMARK    7  A    between atoms: C_15  and  C_16
REMARK    8  A    between atoms: C_16  and  C_17
REMARK                            x       y       z     vdW  Elec       q    Type
REMARK                         _______ _______ _______ _____ _____    ______ ____
ROOT
ATOM      1  N   UNL     1       3.913   3.014  18.457  0.00  0.00    +0.000 NA
ATOM      2  C   UNL     1       4.200   2.102  19.607  0.00  0.00    +0.000 C 
ENDROOT
BRANCH   1   3
ATOM      3  S   UNL     1       2.246   3.401  18.315  0.00  0.00    +0.000 S 
ATOM      4  O   UNL     1       1.525   2.433  19.125  0.00  0.00    +0.000 OA
ATOM      5  O   UNL     1       1.888   3.590  16.931  0.00  0.00    +0.000 OA
BRANCH   3  12
ATOM      6  C   UNL     1       1.903   3.994  21.456  0.00  0.00    +0.000 C 
ATOM      7  C   UNL     1       1.921   5.151  20.498  0.00  0.00    +0.000 A 
ATOM      8  C   UNL     1       1.797   6.451  21.034  0.00  0.00    +0.000 A 
ATOM      9  C   UNL     1       1.875   7.585  20.216  0.00  0.00    +0.000 A 
ATOM     10  C   UNL     1       2.081   7.441  18.840  0.00  0.00    +0.000 A 
ATOM     11  C   UNL     1       2.168   6.160  18.287  0.00  0.00    +0.000 A 
ATOM     12  C   UNL     1       2.074   5.010  19.105  0.00  0.00    +0.000 A 
BRANCH  10  13
ATOM     13  C   UNL     1       2.218   8.615  18.014  0.00  0.00    +0.000 C 
ATOM     14  N   UNL     1       2.324   9.556  17.352  0.00  0.00    +0.000 NA
ENDBRANCH  10  13
ENDBRANCH   3  12
ENDBRANCH   1   3
BRANCH   1  15
ATOM     15  C   UNL     1       4.575   2.418  17.244  0.00  0.00    +0.000 C 
BRANCH  15  16
ATOM     16  C   UNL     1       5.093   3.346  16.161  0.00  0.00    +0.000 C 
BRANCH  16  17
ATOM     17  C   UNL     1       5.592   4.721  16.454  0.00  0.00    +0.000 A 
ATOM     18  C   UNL     1       5.044   5.851  15.793  0.00  0.00    +0.000 A 
ATOM     19  N   UNL     1       5.783   6.945  15.914  0.00  0.00    +0.000 NA
ATOM     20  N   UNL     1       6.663   6.628  16.875  0.00  0.00    +0.000 N 
ATOM     21  C   UNL     1       7.474   7.528  17.550  0.00  0.00    +0.000 A 
ATOM     22  C   UNL     1       8.095   7.153  18.671  0.00  0.00    +0.000 A 
ATOM     23  C   UNL     1       7.943   5.709  19.035  0.00  0.00    +0.000 A 
ATOM     24 CL   UNL     1       8.668   5.172  20.508  0.00  0.00    +0.000 Cl
ATOM     25  N   UNL     1       7.286   4.810  18.348  0.00  0.00    +0.000 NA
ATOM     26  C   UNL     1       6.568   5.279  17.270  0.00  0.00    +0.000 A 
ENDBRANCH  16  17
ENDBRANCH  15  16
ENDBRANCH   1  15
TORSDOF 6
ENDMDL
MODEL 8
REMARK VINA RESULT:      -7.3      2.575      4.550
REMARK  Name = 
REMARK  8 active torsions:
REMARK  status: ('A' for Active; 'I' for Inactive)
REMARK    1  A    between atoms: C_1  and  C_2
REMARK    2  A    between atoms: C_5  and  C_6
REMARK    3  A    between atoms: C_9  and  S_10
REMARK    4  A    between atoms: S_10  and  N_13
REMARK    5  A    between atoms: N_13  and  C_14
REMARK    6  A    between atoms: N_13  and  C_15
REMARK    7  A    between atoms: C_15  and  C_16
REMARK    8  A    between atoms: C_16  and  C_17
REMARK                            x       y       z     vdW  Elec       q    Type
REMARK                         _______ _______ _______ _____ _____    ______ ____
ROOT
ATOM      1  N   UNL     1       4.799   6.526  17.771  0.00  0.00    +0.000 NA
ATOM      2  C   UNL     1       5.184   6.693  16.335  0.00  0.00    +0.000 C 
ENDROOT
BRANCH   1   3
ATOM      3  S   UNL     1       5.468   5.110  18.478  0.00  0.00    +0.000 S 
ATOM      4  O   UNL     1       5.859   5.468  19.832  0.00  0.00    +0.000 OA
ATOM      5  O   UNL     1       6.429   4.507  17.587  0.00  0.00    +0.000 OA
BRANCH   3  12
ATOM      6  C   UNL     1       4.288   3.257  16.132  0.00  0.00    +0.000 C 
ATOM      7  C   UNL     1       3.654   3.195  17.492  0.00  0.00    +0.000 A 
ATOM      8  C   UNL     1       2.570   2.309  17.673  0.00  0.00    +0.000 A 
ATOM      9  C   UNL     1       1.970   2.141  18.927  0.00  0.00    +0.000 A 
ATOM     10  C   UNL     1       2.446   2.858  20.031  0.00  0.00    +0.000 A 
ATOM     11  C   UNL     1       3.493   3.767  19.861  0.00  0.00    +0.000 A 
ATOM     12  C   UNL     1       4.092   3.954  18.595  0.00  0.00    +0.000 A 
BRANCH  10  13
ATOM     13  C   UNL     1       1.860   2.636  21.330  0.00  0.00    +0.000 C 
ATOM     14  N   UNL     1       1.388   2.455  22.369  0.00  0.00    +0.000 NA
ENDBRANCH  10  13
ENDBRANCH   3  12
ENDBRANCH   1   3
BRANCH   1  15
ATOM     15  C   UNL     1       3.304   6.679  17.850  0.00  0.00    +0.000 C 
BRANCH  15  16
ATOM     16  C   UNL     1       2.711   8.075  17.869  0.00  0.00    +0.000 C 
BRANCH  16  17
ATOM     17  C   UNL     1       1.894   8.584  19.009  0.00  0.00    +0.000 A 
ATOM     18  C   UNL     1       1.887   7.912  20.259  0.00  0.00    +0.000 A 
ATOM     19  N   UNL     1       0.896   8.286  21.056  0.00  0.00    +0.000 NA
ATOM     20  N   UNL     1       0.417   9.392  20.468  0.00  0.00    +0.000 N 
ATOM     21  C   UNL     1      -0.447  10.304  21.056  0.00  0.00    +0.000 A 
ATOM     22  C   UNL     1      -0.633  11.502  20.494  0.00  0.00    +0.000 A 
ATOM     23  C   UNL     1       0.044  11.701  19.174  0.00  0.00    +0.000 A 
ATOM     24 CL   UNL     1      -0.101  13.252  18.425  0.00  0.00    +0.000 Cl
ATOM     25  N   UNL     1       0.763  10.813  18.538  0.00  0.00    +0.000 NA
ATOM     26  C   UNL     1       1.019   9.643  19.219  0.00  0.00    +0.000 A 
ENDBRANCH  16  17
ENDBRANCH  15  16
ENDBRANCH   1  15
TORSDOF 6
ENDMDL
MODEL 9
REMARK VINA RESULT:      -7.3      2.296      4.209
REMARK  Name = 
REMARK  8 active torsions:
REMARK  status: ('A' for Active; 'I' for Inactive)
REMARK    1  A    between atoms: C_1  and  C_2
REMARK    2  A    between atoms: C_5  and  C_6
REMARK    3  A    between atoms: C_9  and  S_10
REMARK    4  A    between atoms: S_10  and  N_13
REMARK    5  A    between atoms: N_13  and  C_14
REMARK    6  A    between atoms: N_13  and  C_15
REMARK    7  A    between atoms: C_15  and  C_16
REMARK    8  A    between atoms: C_16  and  C_17
REMARK                            x       y       z     vdW  Elec       q    Type
REMARK                         _______ _______ _______ _____ _____    ______ ____
ROOT
ATOM      1  N   UNL     1       4.622   6.524  17.821  0.00  0.00    +0.000 NA
ATOM      2  C   UNL     1       5.085   6.791  16.424  0.00  0.00    +0.000 C 
ENDROOT
BRANCH   1   3
ATOM      3  S   UNL     1       5.305   5.095  18.486  0.00  0.00    +0.000 S 
ATOM      4  O   UNL     1       5.719   5.424  19.840  0.00  0.00    +0.000 OA
ATOM      5  O   UNL     1       6.251   4.513  17.566  0.00  0.00    +0.000 OA
BRANCH   3  12
ATOM      6  C   UNL     1       4.080   3.297  16.119  0.00  0.00    +0.000 C 
ATOM      7  C   UNL     1       3.474   3.201  17.490  0.00  0.00    +0.000 A 
ATOM      8  C   UNL     1       2.394   2.310  17.671  0.00  0.00    +0.000 A 
ATOM      9  C   UNL     1       1.820   2.110  18.933  0.00  0.00    +0.000 A 
ATOM     10  C   UNL     1       2.317   2.801  20.044  0.00  0.00    +0.000 A 
ATOM     11  C   UNL     1       3.359   3.716  19.875  0.00  0.00    +0.000 A 
ATOM     12  C   UNL     1       3.933   3.934  18.602  0.00  0.00    +0.000 A 
BRANCH  10  13
ATOM     13  C   UNL     1       1.757   2.546  21.348  0.00  0.00    +0.000 C 
ATOM     14  N   UNL     1       1.307   2.345  22.393  0.00  0.00    +0.000 NA
ENDBRANCH  10  13
ENDBRANCH   3  12
ENDBRANCH   1   3
BRANCH   1  15
ATOM     15  C   UNL     1       3.120   6.616  17.815  0.00  0.00    +0.000 C 
BRANCH  15  16
ATOM     16  C   UNL     1       2.417   7.197  19.027  0.00  0.00    +0.000 C 
BRANCH  16  17
ATOM     17  C   UNL     1       1.818   8.563  19.030  0.00  0.00    +0.000 A 
ATOM     18  C   UNL     1       1.776   9.343  17.845  0.00  0.00    +0.000 A 
ATOM     19  N   UNL     1       1.513  10.624  18.063  0.00  0.00    +0.000 NA
ATOM     20  N   UNL     1       1.102  10.650  19.339  0.00  0.00    +0.000 N 
ATOM     21  C   UNL     1       0.458  11.713  19.954  0.00  0.00    +0.000 A 
ATOM     22  C   UNL     1      -0.155  11.531  21.127  0.00  0.00    +0.000 A 
ATOM     23  C   UNL     1       0.022  10.177  21.738  0.00  0.00    +0.000 A 
ATOM     24 CL   UNL     1      -0.800   9.854  23.224  0.00  0.00    +0.000 Cl
ATOM     25  N   UNL     1       0.728   9.196  21.239  0.00  0.00    +0.000 NA
ATOM     26  C   UNL     1       1.236   9.400  19.975  0.00  0.00    +0.000 A 
ENDBRANCH  16  17
ENDBRANCH  15  16
ENDBRANCH   1  15
TORSDOF 6
ENDMDL
