MODEL 1
REMARK VINA RESULT:      -7.3      0.000      0.000
REMARK  Name = 
REMARK  8 active torsions:
REMARK  status: ('A' for Active; 'I' for Inactive)
REMARK    1  A    between atoms: C_1  and  C_2
REMARK    2  A    between atoms: C_2  and  O_3
REMARK    3  A    between atoms: O_3  and  C_4
REMARK    4  A    between atoms: C_4  and  C_6
REMARK    5  A    between atoms: C_10  and  C_12
REMARK    6  A    between atoms: C_12  and  O_13
REMARK    7  A    between atoms: O_13  and  C_14
REMARK    8  A    between atoms: C_14  and  C_16
REMARK                            x       y       z     vdW  Elec       q    Type
REMARK                         _______ _______ _______ _____ _____    ______ ____
ROOT
ATOM      1  C   UNL     1       5.464   6.336  17.455  0.00  0.00    +0.000 C 
ATOM      2  C   UNL     1       5.729   5.822  18.879  0.00  0.00    +0.000 C 
ATOM      3  C   UNL     1       6.160   4.363  18.870  0.00  0.00    +0.000 C 
ATOM      4  N   UNL     1       5.107   3.568  18.258  0.00  0.00    +0.000 N 
ATOM      5  C   UNL     1       4.445   2.627  19.039  0.00  0.00    +0.000 C 
ATOM      6  O   UNL     1       4.728   2.468  20.232  0.00  0.00    +0.000 OA
ATOM      7  C   UNL     1       4.875   3.878  16.849  0.00  0.00    +0.000 C 
ATOM      8  C   UNL     1       4.587   5.370  16.636  0.00  0.00    +0.000 C 
ENDROOT
BRANCH   1   9
ATOM      9  C   UNL     1       6.787   6.663  16.783  0.00  0.00    +0.000 C 
ATOM     10  O   UNL     1       7.453   5.889  16.115  0.00  0.00    +0.000 OA
BRANCH   9  11
ATOM     11  O   UNL     1       7.140   7.946  17.099  0.00  0.00    +0.000 OA
BRANCH  11  13
ATOM     12  C   UNL     1       8.490   9.584  18.212  0.00  0.00    +0.000 C 
ATOM     13  C   UNL     1       8.202   8.102  18.050  0.00  0.00    +0.000 C 
ENDBRANCH  11  13
ENDBRANCH   9  11
ENDBRANCH   1   9
BRANCH   5  14
ATOM     14  C   UNL     1       3.320   1.795  18.415  0.00  0.00    +0.000 C 
BRANCH  14  15
ATOM     15  O   UNL     1       2.183   1.683  19.277  0.00  0.00    +0.000 OA
BRANCH  15  16
ATOM     16  C   UNL     1       1.173   2.544  18.969  0.00  0.00    +0.000 C 
ATOM     17  O   UNL     1       0.167   2.230  18.337  0.00  0.00    +0.000 OA
BRANCH  16  18
ATOM     18  C   UNL     1       1.469   3.873  19.446  0.00  0.00    +0.000 A 
ATOM     19  C   UNL     1       1.563   4.362  20.743  0.00  0.00    +0.000 A 
ATOM     20  C   UNL     1       1.877   5.739  20.637  0.00  0.00    +0.000 A 
ATOM     21  C   UNL     1       1.955   6.011  19.291  0.00  0.00    +0.000 A 
ATOM     22 BR   UNL     1       2.341   7.681  18.556  0.00  0.00    +0.000 Br
ATOM     23  O   UNL     1       1.708   4.891  18.564  0.00  0.00    +0.000 OA
ENDBRANCH  16  18
ENDBRANCH  15  16
ENDBRANCH  14  15
ENDBRANCH   5  14
TORSDOF 7
ENDMDL
MODEL 2
REMARK VINA RESULT:      -6.9      1.282      2.116
REMARK  Name = 
REMARK  8 active torsions:
REMARK  status: ('A' for Active; 'I' for Inactive)
REMARK    1  A    between atoms: C_1  and  C_2
REMARK    2  A    between atoms: C_2  and  O_3
REMARK    3  A    between atoms: O_3  and  C_4
REMARK    4  A    between atoms: C_4  and  C_6
REMARK    5  A    between atoms: C_10  and  C_12
REMARK    6  A    between atoms: C_12  and  O_13
REMARK    7  A    between atoms: O_13  and  C_14
REMARK    8  A    between atoms: C_14  and  C_16
REMARK                            x       y       z     vdW  Elec       q    Type
REMARK                         _______ _______ _______ _____ _____    ______ ____
ROOT
ATOM      1  C   UNL     1       5.341   6.076  17.062  0.00  0.00    +0.000 C 
ATOM      2  C   UNL     1       5.824   5.733  18.480  0.00  0.00    +0.000 C 
ATOM      3  C   UNL     1       6.199   4.263  18.598  0.00  0.00    +0.000 C 
ATOM      4  N   UNL     1       5.032   3.456  18.276  0.00  0.00    +0.000 N 
ATOM      5  C   UNL     1       4.479   2.660  19.273  0.00  0.00    +0.000 C 
ATOM      6  O   UNL     1       4.952   2.638  20.415  0.00  0.00    +0.000 OA
ATOM      7  C   UNL     1       4.578   3.597  16.894  0.00  0.00    +0.000 C 
ATOM      8  C   UNL     1       4.308   5.063  16.532  0.00  0.00    +0.000 C 
ENDROOT
BRANCH   1   9
ATOM      9  C   UNL     1       6.544   6.241  16.148  0.00  0.00    +0.000 C 
ATOM     10  O   UNL     1       7.618   6.723  16.468  0.00  0.00    +0.000 OA
BRANCH   9  11
ATOM     11  O   UNL     1       6.207   5.818  14.891  0.00  0.00    +0.000 OA
BRANCH  11  13
ATOM     12  C   UNL     1       6.236   3.857  13.513  0.00  0.00    +0.000 C 
ATOM     13  C   UNL     1       7.081   4.856  14.284  0.00  0.00    +0.000 C 
ENDBRANCH  11  13
ENDBRANCH   9  11
ENDBRANCH   1   9
BRANCH   5  14
ATOM     14  C   UNL     1       3.238   1.818  18.956  0.00  0.00    +0.000 C 
BRANCH  14  15
ATOM     15  O   UNL     1       2.098   2.219  19.721  0.00  0.00    +0.000 OA
BRANCH  15  16
ATOM     16  C   UNL     1       1.279   3.094  19.072  0.00  0.00    +0.000 C 
ATOM     17  O   UNL     1       0.387   2.759  18.297  0.00  0.00    +0.000 OA
BRANCH  16  18
ATOM     18  C   UNL     1       1.635   4.457  19.385  0.00  0.00    +0.000 A 
ATOM     19  C   UNL     1       1.894   5.059  20.609  0.00  0.00    +0.000 A 
ATOM     20  C   UNL     1       2.192   6.418  20.341  0.00  0.00    +0.000 A 
ATOM     21  C   UNL     1       2.099   6.566  18.976  0.00  0.00    +0.000 A 
ATOM     22 BR   UNL     1       2.389   8.159  18.049  0.00  0.00    +0.000 Br
ATOM     23  O   UNL     1       1.760   5.388  18.391  0.00  0.00    +0.000 OA
ENDBRANCH  16  18
ENDBRANCH  15  16
ENDBRANCH  14  15
ENDBRANCH   5  14
TORSDOF 7
ENDMDL
MODEL 3
REMARK VINA RESULT:      -6.9      2.141      6.313
REMARK  Name = 
REMARK  8 active torsions:
REMARK  status: ('A' for Active; 'I' for Inactive)
REMARK    1  A    between atoms: C_1  and  C_2
REMARK    2  A    between atoms: C_2  and  O_3
REMARK    3  A    between atoms: O_3  and  C_4
REMARK    4  A    between atoms: C_4  and  C_6
REMARK    5  A    between atoms: C_10  and  C_12
REMARK    6  A    between atoms: C_12  and  O_13
REMARK    7  A    between atoms: O_13  and  C_14
REMARK    8  A    between atoms: C_14  and  C_16
REMARK                            x       y       z     vdW  Elec       q    Type
REMARK                         _______ _______ _______ _____ _____    ______ ____
ROOT
ATOM      1  C   UNL     1       2.348   4.380  17.793  0.00  0.00    +0.000 C 
ATOM      2  C   UNL     1       3.519   3.496  17.334  0.00  0.00    +0.000 C 
ATOM      3  C   UNL     1       4.477   3.207  18.481  0.00  0.00    +0.000 C 
ATOM      4  N   UNL     1       4.993   4.469  18.988  0.00  0.00    +0.000 N 
ATOM      5  C   UNL     1       6.353   4.730  18.860  0.00  0.00    +0.000 C 
ATOM      6  O   UNL     1       7.115   3.921  18.319  0.00  0.00    +0.000 OA
ATOM      7  C   UNL     1       3.973   5.328  19.585  0.00  0.00    +0.000 C 
ATOM      8  C   UNL     1       2.816   5.596  18.614  0.00  0.00    +0.000 C 
ENDROOT
BRANCH   1   9
ATOM      9  C   UNL     1       1.325   3.522  18.519  0.00  0.00    +0.000 C 
ATOM     10  O   UNL     1       0.702   2.594  18.029  0.00  0.00    +0.000 OA
BRANCH   9  11
ATOM     11  O   UNL     1       1.171   3.998  19.792  0.00  0.00    +0.000 OA
BRANCH  11  13
ATOM     12  C   UNL     1       2.219   3.230  21.806  0.00  0.00    +0.000 C 
ATOM     13  C   UNL     1       1.072   3.018  20.834  0.00  0.00    +0.000 C 
ENDBRANCH  11  13
ENDBRANCH   9  11
ENDBRANCH   1   9
BRANCH   5  14
ATOM     14  C   UNL     1       6.910   6.063  19.371  0.00  0.00    +0.000 C 
BRANCH  14  15
ATOM     15  O   UNL     1       7.958   6.570  18.540  0.00  0.00    +0.000 OA
BRANCH  15  16
ATOM     16  C   UNL     1       7.527   7.439  17.582  0.00  0.00    +0.000 C 
ATOM     17  O   UNL     1       7.779   8.641  17.577  0.00  0.00    +0.000 OA
BRANCH  16  18
ATOM     18  C   UNL     1       6.705   6.762  16.608  0.00  0.00    +0.000 A 
ATOM     19  C   UNL     1       5.358   6.917  16.307  0.00  0.00    +0.000 A 
ATOM     20  C   UNL     1       5.064   5.998  15.269  0.00  0.00    +0.000 A 
ATOM     21  C   UNL     1       6.241   5.339  14.999  0.00  0.00    +0.000 A 
ATOM     22 BR   UNL     1       6.450   4.003  13.713  0.00  0.00    +0.000 Br
ATOM     23  O   UNL     1       7.236   5.791  15.805  0.00  0.00    +0.000 OA
ENDBRANCH  16  18
ENDBRANCH  15  16
ENDBRANCH  14  15
ENDBRANCH   5  14
TORSDOF 7
ENDMDL
MODEL 4
REMARK VINA RESULT:      -6.9      2.541      6.551
REMARK  Name = 
REMARK  8 active torsions:
REMARK  status: ('A' for Active; 'I' for Inactive)
REMARK    1  A    between atoms: C_1  and  C_2
REMARK    2  A    between atoms: C_2  and  O_3
REMARK    3  A    between atoms: O_3  and  C_4
REMARK    4  A    between atoms: C_4  and  C_6
REMARK    5  A    between atoms: C_10  and  C_12
REMARK    6  A    between atoms: C_12  and  O_13
REMARK    7  A    between atoms: O_13  and  C_14
REMARK    8  A    between atoms: C_14  and  C_16
REMARK                            x       y       z     vdW  Elec       q    Type
REMARK                         _______ _______ _______ _____ _____    ______ ____
ROOT
ATOM      1  C   UNL     1       1.983   3.328  17.688  0.00  0.00    +0.000 C 
ATOM      2  C   UNL     1       3.306   2.559  17.829  0.00  0.00    +0.000 C 
ATOM      3  C   UNL     1       4.093   3.030  19.044  0.00  0.00    +0.000 C 
ATOM      4  N   UNL     1       4.372   4.450  18.899  0.00  0.00    +0.000 N 
ATOM      5  C   UNL     1       5.695   4.858  18.773  0.00  0.00    +0.000 C 
ATOM      6  O   UNL     1       6.623   4.041  18.772  0.00  0.00    +0.000 OA
ATOM      7  C   UNL     1       3.176   5.291  18.902  0.00  0.00    +0.000 C 
ATOM      8  C   UNL     1       2.168   4.850  17.833  0.00  0.00    +0.000 C 
ENDROOT
BRANCH   1   9
ATOM      9  C   UNL     1       0.961   2.752  18.655  0.00  0.00    +0.000 C 
ATOM     10  O   UNL     1       0.235   1.798  18.434  0.00  0.00    +0.000 OA
BRANCH   9  11
ATOM     11  O   UNL     1       0.946   3.515  19.790  0.00  0.00    +0.000 OA
BRANCH  11  13
ATOM     12  C   UNL     1       2.153   3.444  21.860  0.00  0.00    +0.000 C 
ATOM     13  C   UNL     1       1.045   2.812  21.037  0.00  0.00    +0.000 C 
ENDBRANCH  11  13
ENDBRANCH   9  11
ENDBRANCH   1   9
BRANCH   5  14
ATOM     14  C   UNL     1       6.005   6.350  18.599  0.00  0.00    +0.000 C 
BRANCH  14  15
ATOM     15  O   UNL     1       5.801   6.795  17.255  0.00  0.00    +0.000 OA
BRANCH  15  16
ATOM     16  C   UNL     1       6.814   6.462  16.406  0.00  0.00    +0.000 C 
ATOM     17  O   UNL     1       7.941   6.948  16.451  0.00  0.00    +0.000 OA
BRANCH  16  18
ATOM     18  C   UNL     1       6.366   5.498  15.429  0.00  0.00    +0.000 A 
ATOM     19  C   UNL     1       5.226   4.706  15.406  0.00  0.00    +0.000 A 
ATOM     20  C   UNL     1       5.284   3.942  14.214  0.00  0.00    +0.000 A 
ATOM     21  C   UNL     1       6.449   4.310  13.582  0.00  0.00    +0.000 A 
ATOM     22 BR   UNL     1       7.050   3.619  11.957  0.00  0.00    +0.000 Br
ATOM     23  O   UNL     1       7.110   5.247  14.310  0.00  0.00    +0.000 OA
ENDBRANCH  16  18
ENDBRANCH  15  16
ENDBRANCH  14  15
ENDBRANCH   5  14
TORSDOF 7
ENDMDL
MODEL 5
REMARK VINA RESULT:      -6.7      3.369      6.719
REMARK  Name = 
REMARK  8 active torsions:
REMARK  status: ('A' for Active; 'I' for Inactive)
REMARK    1  A    between atoms: C_1  and  C_2
REMARK    2  A    between atoms: C_2  and  O_3
REMARK    3  A    between atoms: O_3  and  C_4
REMARK    4  A    between atoms: C_4  and  C_6
REMARK    5  A    between atoms: C_10  and  C_12
REMARK    6  A    between atoms: C_12  and  O_13
REMARK    7  A    between atoms: O_13  and  C_14
REMARK    8  A    between atoms: C_14  and  C_16
REMARK                            x       y       z     vdW  Elec       q    Type
REMARK                         _______ _______ _______ _____ _____    ______ ____
ROOT
ATOM      1  C   UNL     1       2.888   2.666  18.634  0.00  0.00    +0.000 C 
ATOM      2  C   UNL     1       4.253   2.551  19.332  0.00  0.00    +0.000 C 
ATOM      3  C   UNL     1       4.932   3.908  19.447  0.00  0.00    +0.000 C 
ATOM      4  N   UNL     1       5.117   4.452  18.111  0.00  0.00    +0.000 N 
ATOM      5  C   UNL     1       6.413   4.639  17.643  0.00  0.00    +0.000 C 
ATOM      6  O   UNL     1       7.395   4.342  18.332  0.00  0.00    +0.000 OA
ATOM      7  C   UNL     1       3.866   4.740  17.411  0.00  0.00    +0.000 C 
ATOM      8  C   UNL     1       2.956   3.507  17.345  0.00  0.00    +0.000 C 
ENDROOT
BRANCH   1   9
ATOM      9  C   UNL     1       1.856   3.172  19.628  0.00  0.00    +0.000 C 
ATOM     10  O   UNL     1       1.321   2.504  20.497  0.00  0.00    +0.000 OA
BRANCH   9  11
ATOM     11  O   UNL     1       1.579   4.482  19.350  0.00  0.00    +0.000 OA
BRANCH  11  13
ATOM     12  C   UNL     1       2.222   6.741  19.831  0.00  0.00    +0.000 C 
ATOM     13  C   UNL     1       1.769   5.418  20.421  0.00  0.00    +0.000 C 
ENDBRANCH  11  13
ENDBRANCH   9  11
ENDBRANCH   1   9
BRANCH   5  14
ATOM     14  C   UNL     1       6.625   5.195  16.230  0.00  0.00    +0.000 C 
BRANCH  14  15
ATOM     15  O   UNL     1       6.344   4.226  15.216  0.00  0.00    +0.000 OA
BRANCH  15  16
ATOM     16  C   UNL     1       6.858   4.543  13.994  0.00  0.00    +0.000 C 
ATOM     17  O   UNL     1       7.707   5.410  13.807  0.00  0.00    +0.000 OA
BRANCH  16  18
ATOM     18  C   UNL     1       6.236   3.755  12.957  0.00  0.00    +0.000 A 
ATOM     19  C   UNL     1       6.702   2.638  12.277  0.00  0.00    +0.000 A 
ATOM     20  C   UNL     1       5.688   2.265  11.361  0.00  0.00    +0.000 A 
ATOM     21  C   UNL     1       4.667   3.171  11.533  0.00  0.00    +0.000 A 
ATOM     22 BR   UNL     1       3.062   3.170  10.583  0.00  0.00    +0.000 Br
ATOM     23  O   UNL     1       4.991   4.076  12.492  0.00  0.00    +0.000 OA
ENDBRANCH  16  18
ENDBRANCH  15  16
ENDBRANCH  14  15
ENDBRANCH   5  14
TORSDOF 7
ENDMDL
MODEL 6
REMARK VINA RESULT:      -6.6      3.368      6.014
REMARK  Name = 
REMARK  8 active torsions:
REMARK  status: ('A' for Active; 'I' for Inactive)
REMARK    1  A    between atoms: C_1  and  C_2
REMARK    2  A    between atoms: C_2  and  O_3
REMARK    3  A    between atoms: O_3  and  C_4
REMARK    4  A    between atoms: C_4  and  C_6
REMARK    5  A    between atoms: C_10  and  C_12
REMARK    6  A    between atoms: C_12  and  O_13
REMARK    7  A    between atoms: O_13  and  C_14
REMARK    8  A    between atoms: C_14  and  C_16
REMARK                            x       y       z     vdW  Elec       q    Type
REMARK                         _______ _______ _______ _____ _____    ______ ____
ROOT
ATOM      1  C   UNL     1       2.699   3.084  17.312  0.00  0.00    +0.000 C 
ATOM      2  C   UNL     1       4.050   3.725  16.958  0.00  0.00    +0.000 C 
ATOM      3  C   UNL     1       4.462   4.758  17.997  0.00  0.00    +0.000 C 
ATOM      4  N   UNL     1       3.440   5.790  18.061  0.00  0.00    +0.000 N 
ATOM      5  C   UNL     1       3.777   7.084  17.681  0.00  0.00    +0.000 C 
ATOM      6  O   UNL     1       4.915   7.362  17.284  0.00  0.00    +0.000 OA
ATOM      7  C   UNL     1       2.143   5.309  18.534  0.00  0.00    +0.000 C 
ATOM      8  C   UNL     1       1.635   4.130  17.695  0.00  0.00    +0.000 C 
ENDROOT
BRANCH   1   9
ATOM      9  C   UNL     1       2.909   2.023  18.379  0.00  0.00    +0.000 C 
ATOM     10  O   UNL     1       3.735   1.126  18.334  0.00  0.00    +0.000 OA
BRANCH   9  11
ATOM     11  O   UNL     1       1.984   2.200  19.370  0.00  0.00    +0.000 OA
BRANCH  11  13
ATOM     12  C   UNL     1       1.322   2.718  21.616  0.00  0.00    +0.000 C 
ATOM     13  C   UNL     1       2.495   2.469  20.684  0.00  0.00    +0.000 C 
ENDBRANCH  11  13
ENDBRANCH   9  11
ENDBRANCH   1   9
BRANCH   5  14
ATOM     14  C   UNL     1       2.706   8.180  17.725  0.00  0.00    +0.000 C 
BRANCH  14  15
ATOM     15  O   UNL     1       2.118   8.314  19.022  0.00  0.00    +0.000 OA
BRANCH  15  16
ATOM     16  C   UNL     1       1.148   9.269  19.090  0.00  0.00    +0.000 C 
ATOM     17  O   UNL     1       0.720   9.889  18.119  0.00  0.00    +0.000 OA
BRANCH  16  18
ATOM     18  C   UNL     1       0.730   9.479  20.455  0.00  0.00    +0.000 A 
ATOM     19  C   UNL     1       1.094   8.813  21.618  0.00  0.00    +0.000 A 
ATOM     20  C   UNL     1       0.383   9.427  22.679  0.00  0.00    +0.000 A 
ATOM     21  C   UNL     1      -0.368  10.426  22.106  0.00  0.00    +0.000 A 
ATOM     22 BR   UNL     1      -1.511  11.572  23.034  0.00  0.00    +0.000 Br
ATOM     23  O   UNL     1      -0.168  10.463  20.764  0.00  0.00    +0.000 OA
ENDBRANCH  16  18
ENDBRANCH  15  16
ENDBRANCH  14  15
ENDBRANCH   5  14
TORSDOF 7
ENDMDL
MODEL 7
REMARK VINA RESULT:      -6.5      2.893      6.586
REMARK  Name = 
REMARK  8 active torsions:
REMARK  status: ('A' for Active; 'I' for Inactive)
REMARK    1  A    between atoms: C_1  and  C_2
REMARK    2  A    between atoms: C_2  and  O_3
REMARK    3  A    between atoms: O_3  and  C_4
REMARK    4  A    between atoms: C_4  and  C_6
REMARK    5  A    between atoms: C_10  and  C_12
REMARK    6  A    between atoms: C_12  and  O_13
REMARK    7  A    between atoms: O_13  and  C_14
REMARK    8  A    between atoms: C_14  and  C_16
REMARK                            x       y       z     vdW  Elec       q    Type
REMARK                         _______ _______ _______ _____ _____    ______ ____
ROOT
ATOM      1  C   UNL     1       3.156   2.568  18.262  0.00  0.00    +0.000 C 
ATOM      2  C   UNL     1       4.342   2.521  19.239  0.00  0.00    +0.000 C 
ATOM      3  C   UNL     1       4.620   3.892  19.839  0.00  0.00    +0.000 C 
ATOM      4  N   UNL     1       4.917   4.822  18.762  0.00  0.00    +0.000 N 
ATOM      5  C   UNL     1       6.189   5.381  18.698  0.00  0.00    +0.000 C 
ATOM      6  O   UNL     1       7.060   5.093  19.526  0.00  0.00    +0.000 OA
ATOM      7  C   UNL     1       3.796   5.054  17.853  0.00  0.00    +0.000 C 
ATOM      8  C   UNL     1       3.258   3.741  17.269  0.00  0.00    +0.000 C 
ENDROOT
BRANCH   1   9
ATOM      9  C   UNL     1       1.856   2.560  19.049  0.00  0.00    +0.000 C 
ATOM     10  O   UNL     1       1.368   1.588  19.602  0.00  0.00    +0.000 OA
BRANCH   9  11
ATOM     11  O   UNL     1       1.292   3.804  18.987  0.00  0.00    +0.000 OA
BRANCH  11  13
ATOM     12  C   UNL     1       1.721   5.430  20.695  0.00  0.00    +0.000 C 
ATOM     13  C   UNL     1       0.781   4.338  20.216  0.00  0.00    +0.000 C 
ENDBRANCH  11  13
ENDBRANCH   9  11
ENDBRANCH   1   9
BRANCH   5  14
ATOM     14  C   UNL     1       6.524   6.350  17.558  0.00  0.00    +0.000 C 
BRANCH  14  15
ATOM     15  O   UNL     1       6.190   5.815  16.273  0.00  0.00    +0.000 OA
BRANCH  15  16
ATOM     16  C   UNL     1       7.061   4.865  15.829  0.00  0.00    +0.000 C 
ATOM     17  O   UNL     1       7.922   4.338  16.528  0.00  0.00    +0.000 OA
BRANCH  16  18
ATOM     18  C   UNL     1       6.860   4.603  14.424  0.00  0.00    +0.000 A 
ATOM     19  C   UNL     1       7.661   4.905  13.331  0.00  0.00    +0.000 A 
ATOM     20  C   UNL     1       6.984   4.421  12.184  0.00  0.00    +0.000 A 
ATOM     21  C   UNL     1       5.816   3.857  12.641  0.00  0.00    +0.000 A 
ATOM     22 BR   UNL     1       4.519   3.058  11.563  0.00  0.00    +0.000 Br
ATOM     23  O   UNL     1       5.731   3.965  13.991  0.00  0.00    +0.000 OA
ENDBRANCH  16  18
ENDBRANCH  15  16
ENDBRANCH  14  15
ENDBRANCH   5  14
TORSDOF 7
ENDMDL
MODEL 8
REMARK VINA RESULT:      -6.4      1.963      2.831
REMARK  Name = 
REMARK  8 active torsions:
REMARK  status: ('A' for Active; 'I' for Inactive)
REMARK    1  A    between atoms: C_1  and  C_2
REMARK    2  A    between atoms: C_2  and  O_3
REMARK    3  A    between atoms: O_3  and  C_4
REMARK    4  A    between atoms: C_4  and  C_6
REMARK    5  A    between atoms: C_10  and  C_12
REMARK    6  A    between atoms: C_12  and  O_13
REMARK    7  A    between atoms: O_13  and  C_14
REMARK    8  A    between atoms: C_14  and  C_16
REMARK                            x       y       z     vdW  Elec       q    Type
REMARK                         _______ _______ _______ _____ _____    ______ ____
ROOT
ATOM      1  C   UNL     1       6.794   4.302  16.994  0.00  0.00    +0.000 C 
ATOM      2  C   UNL     1       5.744   3.787  15.997  0.00  0.00    +0.000 C 
ATOM      3  C   UNL     1       4.412   4.502  16.178  0.00  0.00    +0.000 C 
ATOM      4  N   UNL     1       3.942   4.277  17.536  0.00  0.00    +0.000 N 
ATOM      5  C   UNL     1       2.768   3.556  17.722  0.00  0.00    +0.000 C 
ATOM      6  O   UNL     1       2.135   3.100  16.763  0.00  0.00    +0.000 OA
ATOM      7  C   UNL     1       4.801   4.862  18.564  0.00  0.00    +0.000 C 
ATOM      8  C   UNL     1       6.251   4.380  18.433  0.00  0.00    +0.000 C 
ENDROOT
BRANCH   1   9
ATOM      9  C   UNL     1       7.360   5.620  16.493  0.00  0.00    +0.000 C 
ATOM     10  O   UNL     1       7.629   5.881  15.332  0.00  0.00    +0.000 OA
BRANCH   9  11
ATOM     11  O   UNL     1       7.574   6.446  17.562  0.00  0.00    +0.000 OA
BRANCH  11  13
ATOM     12  C   UNL     1       8.177   8.726  17.993  0.00  0.00    +0.000 C 
ATOM     13  C   UNL     1       7.115   7.798  17.429  0.00  0.00    +0.000 C 
ENDBRANCH  11  13
ENDBRANCH   9  11
ENDBRANCH   1   9
BRANCH   5  14
ATOM     14  C   UNL     1       2.268   3.294  19.147  0.00  0.00    +0.000 C 
BRANCH  14  15
ATOM     15  O   UNL     1       1.390   4.323  19.613  0.00  0.00    +0.000 OA
BRANCH  15  16
ATOM     16  C   UNL     1       1.918   5.086  20.611  0.00  0.00    +0.000 C 
ATOM     17  O   UNL     1       2.391   4.633  21.650  0.00  0.00    +0.000 OA
BRANCH  16  18
ATOM     18  C   UNL     1       1.804   6.490  20.297  0.00  0.00    +0.000 A 
ATOM     19  C   UNL     1       2.279   7.208  19.207  0.00  0.00    +0.000 A 
ATOM     20  C   UNL     1       1.885   8.555  19.403  0.00  0.00    +0.000 A 
ATOM     21  C   UNL     1       1.196   8.581  20.593  0.00  0.00    +0.000 A 
ATOM     22 BR   UNL     1       0.440  10.105  21.360  0.00  0.00    +0.000 Br
ATOM     23  O   UNL     1       1.145   7.340  21.141  0.00  0.00    +0.000 OA
ENDBRANCH  16  18
ENDBRANCH  15  16
ENDBRANCH  14  15
ENDBRANCH   5  14
TORSDOF 7
ENDMDL
MODEL 9
REMARK VINA RESULT:      -6.4      1.531      2.536
REMARK  Name = 
REMARK  8 active torsions:
REMARK  status: ('A' for Active; 'I' for Inactive)
REMARK    1  A    between atoms: C_1  and  C_2
REMARK    2  A    between atoms: C_2  and  O_3
REMARK    3  A    between atoms: O_3  and  C_4
REMARK    4  A    between atoms: C_4  and  C_6
REMARK    5  A    between atoms: C_10  and  C_12
REMARK    6  A    between atoms: C_12  and  O_13
REMARK    7  A    between atoms: O_13  and  C_14
REMARK    8  A    between atoms: C_14  and  C_16
REMARK                            x       y       z     vdW  Elec       q    Type
REMARK                         _______ _______ _______ _____ _____    ______ ____
ROOT
ATOM      1  C   UNL     1       5.758   6.467  17.588  0.00  0.00    +0.000 C 
ATOM      2  C   UNL     1       6.335   5.631  18.741  0.00  0.00    +0.000 C 
ATOM      3  C   UNL     1       6.172   4.140  18.478  0.00  0.00    +0.000 C 
ATOM      4  N   UNL     1       4.756   3.844  18.327  0.00  0.00    +0.000 N 
ATOM      5  C   UNL     1       4.145   3.021  19.266  0.00  0.00    +0.000 C 
ATOM      6  O   UNL     1       4.778   2.553  20.220  0.00  0.00    +0.000 OA
ATOM      7  C   UNL     1       4.141   4.479  17.163  0.00  0.00    +0.000 C 
ATOM      8  C   UNL     1       4.354   5.998  17.165  0.00  0.00    +0.000 C 
ENDROOT
BRANCH   1   9
ATOM      9  C   UNL     1       6.753   6.494  16.439  0.00  0.00    +0.000 C 
ATOM     10  O   UNL     1       7.863   7.000  16.474  0.00  0.00    +0.000 OA
BRANCH   9  11
ATOM     11  O   UNL     1       6.180   5.913  15.342  0.00  0.00    +0.000 OA
BRANCH  11  13
ATOM     12  C   UNL     1       6.058   3.872  14.090  0.00  0.00    +0.000 C 
ATOM     13  C   UNL     1       6.977   4.950  14.637  0.00  0.00    +0.000 C 
ENDBRANCH  11  13
ENDBRANCH   9  11
ENDBRANCH   1   9
BRANCH   5  14
ATOM     14  C   UNL     1       2.649   2.714  19.131  0.00  0.00    +0.000 C 
BRANCH  14  15
ATOM     15  O   UNL     1       1.842   3.891  19.227  0.00  0.00    +0.000 OA
BRANCH  15  16
ATOM     16  C   UNL     1       1.902   4.502  20.444  0.00  0.00    +0.000 C 
ATOM     17  O   UNL     1       1.992   3.904  21.513  0.00  0.00    +0.000 OA
BRANCH  16  18
ATOM     18  C   UNL     1       1.802   5.935  20.302  0.00  0.00    +0.000 A 
ATOM     19  C   UNL     1       1.436   6.905  21.226  0.00  0.00    +0.000 A 
ATOM     20  C   UNL     1       1.507   8.152  20.557  0.00  0.00    +0.000 A 
ATOM     21  C   UNL     1       1.910   7.873  19.272  0.00  0.00    +0.000 A 
ATOM     22 BR   UNL     1       2.173   9.144  17.932  0.00  0.00    +0.000 Br
ATOM     23  O   UNL     1       2.088   6.537  19.108  0.00  0.00    +0.000 OA
ENDBRANCH  16  18
ENDBRANCH  15  16
ENDBRANCH  14  15
ENDBRANCH   5  14
TORSDOF 7
ENDMDL
