MODEL 1
REMARK VINA RESULT:      -9.5      0.000      0.000
REMARK  Name = 
REMARK  11 active torsions:
REMARK  status: ('A' for Active; 'I' for Inactive)
REMARK    1  A    between atoms: C_1  and  N_2
REMARK    2  A    between atoms: N_2  and  C_3
REMARK    3  A    between atoms: N_2  and  C_4
REMARK    4  A    between atoms: C_4  and  C_5
REMARK    5  A    between atoms: C_5  and  N_6
REMARK    6  A    between atoms: C_8  and  C_9
REMARK    7  A    between atoms: C_12  and  N_13
REMARK    8  A    between atoms: C_19  and  C_20
REMARK    9  A    between atoms: C_20  and  C_21
REMARK   10  A    between atoms: C_20  and  C_22
REMARK   11  A    between atoms: C_20  and  C_23
REMARK                            x       y       z     vdW  Elec       q    Type
REMARK                         _______ _______ _______ _____ _____    ______ ____
ROOT
ATOM      1  C   UNL     1       2.202   7.108  18.977  0.00  0.00    +0.000 A 
ATOM      2  C   UNL     1       1.929   7.209  20.346  0.00  0.00    +0.000 A 
ATOM      3  C   UNL     1       1.352   8.360  20.877  0.00  0.00    +0.000 A 
ATOM      4  C   UNL     1       1.050   9.428  20.043  0.00  0.00    +0.000 A 
ATOM      5  C   UNL     1       1.285   9.328  18.668  0.00  0.00    +0.000 A 
ATOM      6  C   UNL     1       1.848   8.169  18.136  0.00  0.00    +0.000 A 
ENDROOT
BRANCH   1   9
ATOM      7  N   UNL     1       4.266   4.726  17.219  0.00  0.00    +0.000 N 
ATOM      8  C   UNL     1       3.862   5.997  17.524  0.00  0.00    +0.000 A 
ATOM      9  C   UNL     1       2.829   5.915  18.437  0.00  0.00    +0.000 A 
ATOM     10  C   UNL     1       2.582   4.522  18.678  0.00  0.00    +0.000 A 
ATOM     11  C   UNL     1       1.700   3.741  19.449  0.00  0.00    +0.000 A 
ATOM     12  N   UNL     1       0.697   4.244  20.269  0.00  0.00    +0.000 N 
ATOM     13  N   UNL     1       1.800   2.398  19.396  0.00  0.00    +0.000 NA
ATOM     14  C   UNL     1       2.738   1.855  18.599  0.00  0.00    +0.000 A 
ATOM     15  N   UNL     1       3.622   2.486  17.813  0.00  0.00    +0.000 NA
ATOM     16  C   UNL     1       3.495   3.820  17.898  0.00  0.00    +0.000 A 
ATOM     17  H   UNL     1       0.279   5.100  19.926  0.00  0.00    +0.000 HD
ATOM     18  H   UNL     1       0.048   3.506  20.517  0.00  0.00    +0.000 HD
BRANCH   7  19
ATOM     19  C   UNL     1       5.380   4.408  16.341  0.00  0.00    +0.000 C 
BRANCH  19  20
ATOM     20  C   UNL     1       6.215   5.652  16.006  0.00  0.00    +0.000 C 
BRANCH  20  22
ATOM     21  C   UNL     1       7.474   7.049  17.506  0.00  0.00    +0.000 C 
ATOM     22  N   UNL     1       7.465   5.772  16.785  0.00  0.00    +0.000 NA
ATOM     23  C   UNL     1       7.644   4.671  17.732  0.00  0.00    +0.000 C 
ENDBRANCH  20  22
ENDBRANCH  19  20
ENDBRANCH   7  19
ENDBRANCH   1   9
BRANCH   4  24
ATOM     24  N   UNL     1       0.491  10.619  20.506  0.00  0.00    +0.000 N 
ATOM     25  C   UNL     1       0.967  11.897  20.390  0.00  0.00    +0.000 C 
ATOM     26  O   UNL     1       1.971  12.245  19.769  0.00  0.00    +0.000 OA
ATOM     27  N   UNL     1       0.192  12.869  20.968  0.00  0.00    +0.000 N 
ATOM     28  C   UNL     1      -0.892  12.670  21.793  0.00  0.00    +0.000 A 
ATOM     29  C   UNL     1      -1.779  13.677  22.219  0.00  0.00    +0.000 A 
ATOM     30  C   UNL     1      -2.708  13.013  22.991  0.00  0.00    +0.000 A 
ATOM     31  O   UNL     1      -2.375  11.697  23.043  0.00  0.00    +0.000 OA
ATOM     32  N   UNL     1      -1.255  11.481  22.284  0.00  0.00    +0.000 NA
ATOM     33  H   UNL     1      -0.414  10.539  20.954  0.00  0.00    +0.000 HD
ATOM     34  H   UNL     1       0.472  13.815  20.753  0.00  0.00    +0.000 HD
BRANCH  30  35
ATOM     35  C   UNL     1      -3.948  13.433  23.716  0.00  0.00    +0.000 C 
ATOM     36  C   UNL     1      -4.279  12.376  24.783  0.00  0.00    +0.000 C 
ATOM     37  C   UNL     1      -3.757  14.795  24.410  0.00  0.00    +0.000 C 
ATOM     38  C   UNL     1      -5.102  13.547  22.707  0.00  0.00    +0.000 C 
ENDBRANCH  30  35
ENDBRANCH   4  24
TORSDOF 6
ENDMDL
MODEL 2
REMARK VINA RESULT:      -9.4      0.238      1.162
REMARK  Name = 
REMARK  11 active torsions:
REMARK  status: ('A' for Active; 'I' for Inactive)
REMARK    1  A    between atoms: C_1  and  N_2
REMARK    2  A    between atoms: N_2  and  C_3
REMARK    3  A    between atoms: N_2  and  C_4
REMARK    4  A    between atoms: C_4  and  C_5
REMARK    5  A    between atoms: C_5  and  N_6
REMARK    6  A    between atoms: C_8  and  C_9
REMARK    7  A    between atoms: C_12  and  N_13
REMARK    8  A    between atoms: C_19  and  C_20
REMARK    9  A    between atoms: C_20  and  C_21
REMARK   10  A    between atoms: C_20  and  C_22
REMARK   11  A    between atoms: C_20  and  C_23
REMARK                            x       y       z     vdW  Elec       q    Type
REMARK                         _______ _______ _______ _____ _____    ______ ____
ROOT
ATOM      1  C   UNL     1       2.266   7.197  18.899  0.00  0.00    +0.000 A 
ATOM      2  C   UNL     1       1.978   8.232  18.001  0.00  0.00    +0.000 A 
ATOM      3  C   UNL     1       1.418   9.428  18.445  0.00  0.00    +0.000 A 
ATOM      4  C   UNL     1       1.129   9.597  19.792  0.00  0.00    +0.000 A 
ATOM      5  C   UNL     1       1.443   8.584  20.705  0.00  0.00    +0.000 A 
ATOM      6  C   UNL     1       2.019   7.395  20.262  0.00  0.00    +0.000 A 
ENDROOT
BRANCH   1   9
ATOM      7  N   UNL     1       4.187   4.615  17.267  0.00  0.00    +0.000 N 
ATOM      8  C   UNL     1       3.855   5.921  17.504  0.00  0.00    +0.000 A 
ATOM      9  C   UNL     1       2.824   5.944  18.423  0.00  0.00    +0.000 A 
ATOM     10  C   UNL     1       2.503   4.582  18.740  0.00  0.00    +0.000 A 
ATOM     11  C   UNL     1       1.584   3.893  19.554  0.00  0.00    +0.000 A 
ATOM     12  N   UNL     1       0.614   4.494  20.348  0.00  0.00    +0.000 N 
ATOM     13  N   UNL     1       1.610   2.546  19.574  0.00  0.00    +0.000 NA
ATOM     14  C   UNL     1       2.513   1.910  18.806  0.00  0.00    +0.000 A 
ATOM     15  N   UNL     1       3.425   2.449  17.984  0.00  0.00    +0.000 NA
ATOM     16  C   UNL     1       3.372   3.790  17.997  0.00  0.00    +0.000 A 
ATOM     17  H   UNL     1       0.242   5.352  19.960  0.00  0.00    +0.000 HD
ATOM     18  H   UNL     1      -0.072   3.807  20.638  0.00  0.00    +0.000 HD
BRANCH   7  19
ATOM     19  C   UNL     1       5.277   4.190  16.405  0.00  0.00    +0.000 C 
BRANCH  19  20
ATOM     20  C   UNL     1       6.104   5.380  15.901  0.00  0.00    +0.000 C 
BRANCH  20  22
ATOM     21  C   UNL     1       7.332   6.897  17.307  0.00  0.00    +0.000 C 
ATOM     22  N   UNL     1       7.370   5.595  16.634  0.00  0.00    +0.000 NA
ATOM     23  C   UNL     1       7.636   4.541  17.614  0.00  0.00    +0.000 C 
ENDBRANCH  20  22
ENDBRANCH  19  20
ENDBRANCH   7  19
ENDBRANCH   1   9
BRANCH   4  24
ATOM     24  N   UNL     1       0.549  10.756  20.306  0.00  0.00    +0.000 N 
ATOM     25  C   UNL     1       0.968  12.054  20.190  0.00  0.00    +0.000 C 
ATOM     26  O   UNL     1       1.923  12.453  19.526  0.00  0.00    +0.000 OA
ATOM     27  N   UNL     1       0.186  12.984  20.827  0.00  0.00    +0.000 N 
ATOM     28  C   UNL     1      -0.845  12.727  21.702  0.00  0.00    +0.000 A 
ATOM     29  C   UNL     1      -1.747  13.690  22.194  0.00  0.00    +0.000 A 
ATOM     30  C   UNL     1      -2.607  12.976  23.000  0.00  0.00    +0.000 A 
ATOM     31  O   UNL     1      -2.220  11.674  23.008  0.00  0.00    +0.000 OA
ATOM     32  N   UNL     1      -1.134  11.516  22.188  0.00  0.00    +0.000 NA
ATOM     33  H   UNL     1      -0.327  10.632  20.799  0.00  0.00    +0.000 HD
ATOM     34  H   UNL     1       0.417  13.944  20.617  0.00  0.00    +0.000 HD
BRANCH  30  35
ATOM     35  C   UNL     1      -3.823  13.333  23.796  0.00  0.00    +0.000 C 
ATOM     36  C   UNL     1      -4.948  13.732  22.828  0.00  0.00    +0.000 C 
ATOM     37  C   UNL     1      -4.303  12.144  24.651  0.00  0.00    +0.000 C 
ATOM     38  C   UNL     1      -3.482  14.509  24.726  0.00  0.00    +0.000 C 
ENDBRANCH  30  35
ENDBRANCH   4  24
TORSDOF 6
ENDMDL
MODEL 3
REMARK VINA RESULT:      -9.0      0.509      1.063
REMARK  Name = 
REMARK  11 active torsions:
REMARK  status: ('A' for Active; 'I' for Inactive)
REMARK    1  A    between atoms: C_1  and  N_2
REMARK    2  A    between atoms: N_2  and  C_3
REMARK    3  A    between atoms: N_2  and  C_4
REMARK    4  A    between atoms: C_4  and  C_5
REMARK    5  A    between atoms: C_5  and  N_6
REMARK    6  A    between atoms: C_8  and  C_9
REMARK    7  A    between atoms: C_12  and  N_13
REMARK    8  A    between atoms: C_19  and  C_20
REMARK    9  A    between atoms: C_20  and  C_21
REMARK   10  A    between atoms: C_20  and  C_22
REMARK   11  A    between atoms: C_20  and  C_23
REMARK                            x       y       z     vdW  Elec       q    Type
REMARK                         _______ _______ _______ _____ _____    ______ ____
ROOT
ATOM      1  C   UNL     1       2.268   7.364  18.981  0.00  0.00    +0.000 A 
ATOM      2  C   UNL     1       1.979   7.433  20.350  0.00  0.00    +0.000 A 
ATOM      3  C   UNL     1       1.350   8.551  20.892  0.00  0.00    +0.000 A 
ATOM      4  C   UNL     1       1.012   9.619  20.072  0.00  0.00    +0.000 A 
ATOM      5  C   UNL     1       1.264   9.549  18.697  0.00  0.00    +0.000 A 
ATOM      6  C   UNL     1       1.878   8.423  18.154  0.00  0.00    +0.000 A 
ENDROOT
BRANCH   1   9
ATOM      7  N   UNL     1       4.455   5.097  17.221  0.00  0.00    +0.000 N 
ATOM      8  C   UNL     1       4.001   6.346  17.546  0.00  0.00    +0.000 A 
ATOM      9  C   UNL     1       2.949   6.206  18.430  0.00  0.00    +0.000 A 
ATOM     10  C   UNL     1       2.744   4.801  18.632  0.00  0.00    +0.000 A 
ATOM     11  C   UNL     1       1.870   3.972  19.361  0.00  0.00    +0.000 A 
ATOM     12  N   UNL     1       0.830   4.421  20.167  0.00  0.00    +0.000 N 
ATOM     13  N   UNL     1       2.017   2.635  19.279  0.00  0.00    +0.000 NA
ATOM     14  C   UNL     1       2.992   2.143  18.495  0.00  0.00    +0.000 A 
ATOM     15  N   UNL     1       3.873   2.823  17.746  0.00  0.00    +0.000 NA
ATOM     16  C   UNL     1       3.700   4.149  17.859  0.00  0.00    +0.000 A 
ATOM     17  H   UNL     1       0.392   5.271  19.833  0.00  0.00    +0.000 HD
ATOM     18  H   UNL     1       0.201   3.656  20.382  0.00  0.00    +0.000 HD
BRANCH   7  19
ATOM     19  C   UNL     1       5.601   4.838  16.366  0.00  0.00    +0.000 C 
BRANCH  19  20
ATOM     20  C   UNL     1       6.922   4.906  17.144  0.00  0.00    +0.000 C 
BRANCH  20  22
ATOM     21  C   UNL     1       7.882   5.707  19.199  0.00  0.00    +0.000 C 
ATOM     22  N   UNL     1       7.028   6.060  18.062  0.00  0.00    +0.000 NA
ATOM     23  C   UNL     1       7.556   7.255  17.401  0.00  0.00    +0.000 C 
ENDBRANCH  20  22
ENDBRANCH  19  20
ENDBRANCH   7  19
ENDBRANCH   1   9
BRANCH   4  24
ATOM     24  N   UNL     1       0.401  10.778  20.546  0.00  0.00    +0.000 N 
ATOM     25  C   UNL     1       0.831  12.075  20.466  0.00  0.00    +0.000 C 
ATOM     26  O   UNL     1       1.833  12.473  19.874  0.00  0.00    +0.000 OA
ATOM     27  N   UNL     1       0.010  13.006  21.048  0.00  0.00    +0.000 N 
ATOM     28  C   UNL     1      -1.083  12.750  21.846  0.00  0.00    +0.000 A 
ATOM     29  C   UNL     1      -2.015  13.714  22.274  0.00  0.00    +0.000 A 
ATOM     30  C   UNL     1      -2.933  13.001  23.013  0.00  0.00    +0.000 A 
ATOM     31  O   UNL     1      -2.553  11.698  23.045  0.00  0.00    +0.000 OA
ATOM     32  N   UNL     1      -1.411  11.539  22.305  0.00  0.00    +0.000 NA
ATOM     33  H   UNL     1      -0.509  10.656  20.975  0.00  0.00    +0.000 HD
ATOM     34  H   UNL     1       0.258  13.965  20.858  0.00  0.00    +0.000 HD
BRANCH  30  35
ATOM     35  C   UNL     1      -4.202  13.360  23.721  0.00  0.00    +0.000 C 
ATOM     36  C   UNL     1      -4.065  14.782  24.292  0.00  0.00    +0.000 C 
ATOM     37  C   UNL     1      -5.408  13.325  22.763  0.00  0.00    +0.000 C 
ATOM     38  C   UNL     1      -4.441  12.354  24.858  0.00  0.00    +0.000 C 
ENDBRANCH  30  35
ENDBRANCH   4  24
TORSDOF 6
ENDMDL
MODEL 4
REMARK VINA RESULT:      -9.0      0.494      1.118
REMARK  Name = 
REMARK  11 active torsions:
REMARK  status: ('A' for Active; 'I' for Inactive)
REMARK    1  A    between atoms: C_1  and  N_2
REMARK    2  A    between atoms: N_2  and  C_3
REMARK    3  A    between atoms: N_2  and  C_4
REMARK    4  A    between atoms: C_4  and  C_5
REMARK    5  A    between atoms: C_5  and  N_6
REMARK    6  A    between atoms: C_8  and  C_9
REMARK    7  A    between atoms: C_12  and  N_13
REMARK    8  A    between atoms: C_19  and  C_20
REMARK    9  A    between atoms: C_20  and  C_21
REMARK   10  A    between atoms: C_20  and  C_22
REMARK   11  A    between atoms: C_20  and  C_23
REMARK                            x       y       z     vdW  Elec       q    Type
REMARK                         _______ _______ _______ _____ _____    ______ ____
ROOT
ATOM      1  C   UNL     1       2.138   7.011  19.036  0.00  0.00    +0.000 A 
ATOM      2  C   UNL     1       1.891   7.133  20.409  0.00  0.00    +0.000 A 
ATOM      3  C   UNL     1       1.363   8.308  20.938  0.00  0.00    +0.000 A 
ATOM      4  C   UNL     1       1.086   9.379  20.100  0.00  0.00    +0.000 A 
ATOM      5  C   UNL     1       1.296   9.260  18.722  0.00  0.00    +0.000 A 
ATOM      6  C   UNL     1       1.808   8.077  18.192  0.00  0.00    +0.000 A 
ENDROOT
BRANCH   1   9
ATOM      7  N   UNL     1       4.088   4.544  17.266  0.00  0.00    +0.000 N 
ATOM      8  C   UNL     1       3.734   5.830  17.567  0.00  0.00    +0.000 A 
ATOM      9  C   UNL     1       2.714   5.792  18.497  0.00  0.00    +0.000 A 
ATOM     10  C   UNL     1       2.422   4.411  18.755  0.00  0.00    +0.000 A 
ATOM     11  C   UNL     1       1.527   3.668  19.547  0.00  0.00    +0.000 A 
ATOM     12  N   UNL     1       0.555   4.213  20.379  0.00  0.00    +0.000 N 
ATOM     13  N   UNL     1       1.578   2.322  19.505  0.00  0.00    +0.000 NA
ATOM     14  C   UNL     1       2.483   1.740  18.698  0.00  0.00    +0.000 A 
ATOM     15  N   UNL     1       3.375   2.332  17.892  0.00  0.00    +0.000 NA
ATOM     16  C   UNL     1       3.297   3.670  17.967  0.00  0.00    +0.000 A 
ATOM     17  H   UNL     1       0.162   5.081  20.035  0.00  0.00    +0.000 HD
ATOM     18  H   UNL     1      -0.115   3.501  20.645  0.00  0.00    +0.000 HD
BRANCH   7  19
ATOM     19  C   UNL     1       5.175   4.179  16.374  0.00  0.00    +0.000 C 
BRANCH  19  20
ATOM     20  C   UNL     1       6.541   4.290  17.064  0.00  0.00    +0.000 C 
BRANCH  20  22
ATOM     21  C   UNL     1       7.261   5.202  14.958  0.00  0.00    +0.000 C 
ATOM     22  N   UNL     1       7.480   5.224  16.408  0.00  0.00    +0.000 NA
ATOM     23  C   UNL     1       7.346   6.595  16.905  0.00  0.00    +0.000 C 
ENDBRANCH  20  22
ENDBRANCH  19  20
ENDBRANCH   7  19
ENDBRANCH   1   9
BRANCH   4  24
ATOM     24  N   UNL     1       0.577  10.593  20.561  0.00  0.00    +0.000 N 
ATOM     25  C   UNL     1       1.064  11.859  20.374  0.00  0.00    +0.000 C 
ATOM     26  O   UNL     1       2.030  12.171  19.680  0.00  0.00    +0.000 OA
ATOM     27  N   UNL     1       0.344  12.861  20.971  0.00  0.00    +0.000 N 
ATOM     28  C   UNL     1      -0.687  12.706  21.871  0.00  0.00    +0.000 A 
ATOM     29  C   UNL     1      -1.529  13.740  22.323  0.00  0.00    +0.000 A 
ATOM     30  C   UNL     1      -2.415  13.116  23.174  0.00  0.00    +0.000 A 
ATOM     31  O   UNL     1      -2.100  11.797  23.244  0.00  0.00    +0.000 OA
ATOM     32  N   UNL     1      -1.035  11.539  22.421  0.00  0.00    +0.000 NA
ATOM     33  H   UNL     1      -0.298  10.542  21.070  0.00  0.00    +0.000 HD
ATOM     34  H   UNL     1       0.623  13.795  20.710  0.00  0.00    +0.000 HD
BRANCH  30  35
ATOM     35  C   UNL     1      -3.598  13.579  23.964  0.00  0.00    +0.000 C 
ATOM     36  C   UNL     1      -4.608  14.233  23.007  0.00  0.00    +0.000 C 
ATOM     37  C   UNL     1      -4.286  12.404  24.684  0.00  0.00    +0.000 C 
ATOM     38  C   UNL     1      -3.128  14.599  25.014  0.00  0.00    +0.000 C 
ENDBRANCH  30  35
ENDBRANCH   4  24
TORSDOF 6
ENDMDL
MODEL 5
REMARK VINA RESULT:      -8.9      0.999      1.587
REMARK  Name = 
REMARK  11 active torsions:
REMARK  status: ('A' for Active; 'I' for Inactive)
REMARK    1  A    between atoms: C_1  and  N_2
REMARK    2  A    between atoms: N_2  and  C_3
REMARK    3  A    between atoms: N_2  and  C_4
REMARK    4  A    between atoms: C_4  and  C_5
REMARK    5  A    between atoms: C_5  and  N_6
REMARK    6  A    between atoms: C_8  and  C_9
REMARK    7  A    between atoms: C_12  and  N_13
REMARK    8  A    between atoms: C_19  and  C_20
REMARK    9  A    between atoms: C_20  and  C_21
REMARK   10  A    between atoms: C_20  and  C_22
REMARK   11  A    between atoms: C_20  and  C_23
REMARK                            x       y       z     vdW  Elec       q    Type
REMARK                         _______ _______ _______ _____ _____    ______ ____
ROOT
ATOM      1  C   UNL     1       2.328   7.027  18.927  0.00  0.00    +0.000 A 
ATOM      2  C   UNL     1       2.042   7.161  20.291  0.00  0.00    +0.000 A 
ATOM      3  C   UNL     1       1.432   8.312  20.783  0.00  0.00    +0.000 A 
ATOM      4  C   UNL     1       1.111   9.348  19.917  0.00  0.00    +0.000 A 
ATOM      5  C   UNL     1       1.360   9.213  18.546  0.00  0.00    +0.000 A 
ATOM      6  C   UNL     1       1.955   8.054  18.053  0.00  0.00    +0.000 A 
ENDROOT
BRANCH   1   9
ATOM      7  N   UNL     1       4.497   4.647  17.298  0.00  0.00    +0.000 N 
ATOM      8  C   UNL     1       4.074   5.918  17.577  0.00  0.00    +0.000 A 
ATOM      9  C   UNL     1       2.989   5.834  18.427  0.00  0.00    +0.000 A 
ATOM     10  C   UNL     1       2.731   4.441  18.656  0.00  0.00    +0.000 A 
ATOM     11  C   UNL     1       1.807   3.659  19.375  0.00  0.00    +0.000 A 
ATOM     12  N   UNL     1       0.756   4.161  20.133  0.00  0.00    +0.000 N 
ATOM     13  N   UNL     1       1.913   2.317  19.330  0.00  0.00    +0.000 NA
ATOM     14  C   UNL     1       2.897   1.775  18.591  0.00  0.00    +0.000 A 
ATOM     15  N   UNL     1       3.824   2.407  17.857  0.00  0.00    +0.000 NA
ATOM     16  C   UNL     1       3.690   3.740  17.933  0.00  0.00    +0.000 A 
ATOM     17  H   UNL     1       0.357   5.016  19.765  0.00  0.00    +0.000 HD
ATOM     18  H   UNL     1       0.095   3.422  20.345  0.00  0.00    +0.000 HD
BRANCH   7  19
ATOM     19  C   UNL     1       5.662   4.330  16.488  0.00  0.00    +0.000 C 
BRANCH  19  20
ATOM     20  C   UNL     1       5.288   4.096  15.018  0.00  0.00    +0.000 C 
BRANCH  20  22
ATOM     21  C   UNL     1       5.972   3.562  12.775  0.00  0.00    +0.000 C 
ATOM     22  N   UNL     1       6.446   3.895  14.121  0.00  0.00    +0.000 NA
ATOM     23  C   UNL     1       7.318   5.070  14.061  0.00  0.00    +0.000 C 
ENDBRANCH  20  22
ENDBRANCH  19  20
ENDBRANCH   7  19
ENDBRANCH   1   9
BRANCH   4  24
ATOM     24  N   UNL     1       0.520  10.538  20.340  0.00  0.00    +0.000 N 
ATOM     25  C   UNL     1       0.940  11.826  20.146  0.00  0.00    +0.000 C 
ATOM     26  O   UNL     1       1.909  12.182  19.477  0.00  0.00    +0.000 OA
ATOM     27  N   UNL     1       0.145  12.795  20.703  0.00  0.00    +0.000 N 
ATOM     28  C   UNL     1      -0.904  12.595  21.572  0.00  0.00    +0.000 A 
ATOM     29  C   UNL     1      -1.817  13.586  21.979  0.00  0.00    +0.000 A 
ATOM     30  C   UNL     1      -2.693  12.926  22.813  0.00  0.00    +0.000 A 
ATOM     31  O   UNL     1      -2.306  11.628  22.916  0.00  0.00    +0.000 OA
ATOM     32  N   UNL     1      -1.203  11.418  22.132  0.00  0.00    +0.000 NA
ATOM     33  H   UNL     1      -0.367  10.445  20.822  0.00  0.00    +0.000 HD
ATOM     34  H   UNL     1       0.379  13.739  20.434  0.00  0.00    +0.000 HD
BRANCH  30  35
ATOM     35  C   UNL     1      -3.926  13.333  23.558  0.00  0.00    +0.000 C 
ATOM     36  C   UNL     1      -5.117  13.324  22.585  0.00  0.00    +0.000 C 
ATOM     37  C   UNL     1      -4.225  12.365  24.718  0.00  0.00    +0.000 C 
ATOM     38  C   UNL     1      -3.720  14.745  24.129  0.00  0.00    +0.000 C 
ENDBRANCH  30  35
ENDBRANCH   4  24
TORSDOF 6
ENDMDL
MODEL 6
REMARK VINA RESULT:      -8.9      1.072      1.647
REMARK  Name = 
REMARK  11 active torsions:
REMARK  status: ('A' for Active; 'I' for Inactive)
REMARK    1  A    between atoms: C_1  and  N_2
REMARK    2  A    between atoms: N_2  and  C_3
REMARK    3  A    between atoms: N_2  and  C_4
REMARK    4  A    between atoms: C_4  and  C_5
REMARK    5  A    between atoms: C_5  and  N_6
REMARK    6  A    between atoms: C_8  and  C_9
REMARK    7  A    between atoms: C_12  and  N_13
REMARK    8  A    between atoms: C_19  and  C_20
REMARK    9  A    between atoms: C_20  and  C_21
REMARK   10  A    between atoms: C_20  and  C_22
REMARK   11  A    between atoms: C_20  and  C_23
REMARK                            x       y       z     vdW  Elec       q    Type
REMARK                         _______ _______ _______ _____ _____    ______ ____
ROOT
ATOM      1  C   UNL     1       2.339   7.064  18.817  0.00  0.00    +0.000 A 
ATOM      2  C   UNL     1       2.057   8.067  17.881  0.00  0.00    +0.000 A 
ATOM      3  C   UNL     1       1.487   9.275  18.277  0.00  0.00    +0.000 A 
ATOM      4  C   UNL     1       1.183   9.488  19.615  0.00  0.00    +0.000 A 
ATOM      5  C   UNL     1       1.490   8.508  20.565  0.00  0.00    +0.000 A 
ATOM      6  C   UNL     1       2.076   7.308  20.169  0.00  0.00    +0.000 A 
ENDROOT
BRANCH   1   9
ATOM      7  N   UNL     1       4.303   4.437  17.313  0.00  0.00    +0.000 N 
ATOM      8  C   UNL     1       3.968   5.749  17.507  0.00  0.00    +0.000 A 
ATOM      9  C   UNL     1       2.908   5.798  18.390  0.00  0.00    +0.000 A 
ATOM     10  C   UNL     1       2.571   4.446  18.730  0.00  0.00    +0.000 A 
ATOM     11  C   UNL     1       1.624   3.779  19.530  0.00  0.00    +0.000 A 
ATOM     12  N   UNL     1       0.631   4.402  20.277  0.00  0.00    +0.000 N 
ATOM     13  N   UNL     1       1.644   2.433  19.584  0.00  0.00    +0.000 NA
ATOM     14  C   UNL     1       2.569   1.776  18.861  0.00  0.00    +0.000 A 
ATOM     15  N   UNL     1       3.510   2.291  18.057  0.00  0.00    +0.000 NA
ATOM     16  C   UNL     1       3.462   3.632  18.035  0.00  0.00    +0.000 A 
ATOM     17  H   UNL     1       0.275   5.252  19.856  0.00  0.00    +0.000 HD
ATOM     18  H   UNL     1      -0.067   3.725  20.561  0.00  0.00    +0.000 HD
BRANCH   7  19
ATOM     19  C   UNL     1       5.419   3.987  16.498  0.00  0.00    +0.000 C 
BRANCH  19  20
ATOM     20  C   UNL     1       5.281   4.444  15.039  0.00  0.00    +0.000 C 
BRANCH  20  22
ATOM     21  C   UNL     1       5.829   3.574  12.865  0.00  0.00    +0.000 C 
ATOM     22  N   UNL     1       6.379   3.997  14.156  0.00  0.00    +0.000 NA
ATOM     23  C   UNL     1       7.387   5.038  13.944  0.00  0.00    +0.000 C 
ENDBRANCH  20  22
ENDBRANCH  19  20
ENDBRANCH   7  19
ENDBRANCH   1   9
BRANCH   4  24
ATOM     24  N   UNL     1       0.592  10.661  20.082  0.00  0.00    +0.000 N 
ATOM     25  C   UNL     1       0.984  11.959  19.892  0.00  0.00    +0.000 C 
ATOM     26  O   UNL     1       1.917  12.341  19.187  0.00  0.00    +0.000 OA
ATOM     27  N   UNL     1       0.199  12.906  20.498  0.00  0.00    +0.000 N 
ATOM     28  C   UNL     1      -0.808  12.676  21.408  0.00  0.00    +0.000 A 
ATOM     29  C   UNL     1      -1.718  13.646  21.870  0.00  0.00    +0.000 A 
ATOM     30  C   UNL     1      -2.547  12.959  22.730  0.00  0.00    +0.000 A 
ATOM     31  O   UNL     1      -2.136  11.667  22.795  0.00  0.00    +0.000 OA
ATOM     32  N   UNL     1      -1.065  11.487  21.961  0.00  0.00    +0.000 NA
ATOM     33  H   UNL     1      -0.271  10.547  20.600  0.00  0.00    +0.000 HD
ATOM     34  H   UNL     1       0.407  13.858  20.235  0.00  0.00    +0.000 HD
BRANCH  30  35
ATOM     35  C   UNL     1      -3.752  13.335  23.534  0.00  0.00    +0.000 C 
ATOM     36  C   UNL     1      -4.125  12.156  24.447  0.00  0.00    +0.000 C 
ATOM     37  C   UNL     1      -3.479  14.573  24.409  0.00  0.00    +0.000 C 
ATOM     38  C   UNL     1      -4.913  13.649  22.576  0.00  0.00    +0.000 C 
ENDBRANCH  30  35
ENDBRANCH   4  24
TORSDOF 6
ENDMDL
MODEL 7
REMARK VINA RESULT:      -8.9      2.053      3.134
REMARK  Name = 
REMARK  11 active torsions:
REMARK  status: ('A' for Active; 'I' for Inactive)
REMARK    1  A    between atoms: C_1  and  N_2
REMARK    2  A    between atoms: N_2  and  C_3
REMARK    3  A    between atoms: N_2  and  C_4
REMARK    4  A    between atoms: C_4  and  C_5
REMARK    5  A    between atoms: C_5  and  N_6
REMARK    6  A    between atoms: C_8  and  C_9
REMARK    7  A    between atoms: C_12  and  N_13
REMARK    8  A    between atoms: C_19  and  C_20
REMARK    9  A    between atoms: C_20  and  C_21
REMARK   10  A    between atoms: C_20  and  C_22
REMARK   11  A    between atoms: C_20  and  C_23
REMARK                            x       y       z     vdW  Elec       q    Type
REMARK                         _______ _______ _______ _____ _____    ______ ____
ROOT
ATOM      1  C   UNL     1       2.284   7.071  18.841  0.00  0.00    +0.000 A 
ATOM      2  C   UNL     1       2.015   7.232  20.205  0.00  0.00    +0.000 A 
ATOM      3  C   UNL     1       1.469   8.418  20.691  0.00  0.00    +0.000 A 
ATOM      4  C   UNL     1       1.196   9.461  19.817  0.00  0.00    +0.000 A 
ATOM      5  C   UNL     1       1.428   9.302  18.446  0.00  0.00    +0.000 A 
ATOM      6  C   UNL     1       1.959   8.108  17.960  0.00  0.00    +0.000 A 
ENDROOT
BRANCH   1   9
ATOM      7  N   UNL     1       4.284   4.569  17.179  0.00  0.00    +0.000 N 
ATOM      8  C   UNL     1       3.915   5.861  17.435  0.00  0.00    +0.000 A 
ATOM      9  C   UNL     1       2.879   5.842  18.348  0.00  0.00    +0.000 A 
ATOM     10  C   UNL     1       2.593   4.467  18.641  0.00  0.00    +0.000 A 
ATOM     11  C   UNL     1       1.688   3.739  19.438  0.00  0.00    +0.000 A 
ATOM     12  N   UNL     1       0.698   4.301  20.236  0.00  0.00    +0.000 N 
ATOM     13  N   UNL     1       1.751   2.394  19.437  0.00  0.00    +0.000 NA
ATOM     14  C   UNL     1       2.674   1.795  18.663  0.00  0.00    +0.000 A 
ATOM     15  N   UNL     1       3.576   2.371  17.856  0.00  0.00    +0.000 NA
ATOM     16  C   UNL     1       3.487   3.710  17.891  0.00  0.00    +0.000 A 
ATOM     17  H   UNL     1       0.305   5.155  19.860  0.00  0.00    +0.000 HD
ATOM     18  H   UNL     1       0.029   3.591  20.511  0.00  0.00    +0.000 HD
BRANCH   7  19
ATOM     19  C   UNL     1       5.390   4.187  16.317  0.00  0.00    +0.000 C 
BRANCH  19  20
ATOM     20  C   UNL     1       6.218   5.403  15.879  0.00  0.00    +0.000 C 
BRANCH  20  22
ATOM     21  C   UNL     1       7.371   6.924  17.343  0.00  0.00    +0.000 C 
ATOM     22  N   UNL     1       7.445   5.621  16.674  0.00  0.00    +0.000 NA
ATOM     23  C   UNL     1       7.663   4.569  17.668  0.00  0.00    +0.000 C 
ENDBRANCH  20  22
ENDBRANCH  19  20
ENDBRANCH   7  19
ENDBRANCH   1   9
BRANCH   4  24
ATOM     24  N   UNL     1       0.670  10.684  20.232  0.00  0.00    +0.000 N 
ATOM     25  C   UNL     1      -0.231  10.941  21.230  0.00  0.00    +0.000 C 
ATOM     26  O   UNL     1      -0.699  10.119  22.016  0.00  0.00    +0.000 OA
ATOM     27  N   UNL     1      -0.572  12.259  21.391  0.00  0.00    +0.000 N 
ATOM     28  C   UNL     1      -0.247  13.299  20.549  0.00  0.00    +0.000 A 
ATOM     29  C   UNL     1      -0.447  14.663  20.833  0.00  0.00    +0.000 A 
ATOM     30  C   UNL     1       0.050  15.322  19.730  0.00  0.00    +0.000 A 
ATOM     31  O   UNL     1       0.492  14.402  18.833  0.00  0.00    +0.000 OA
ATOM     32  N   UNL     1       0.323  13.145  19.349  0.00  0.00    +0.000 NA
ATOM     33  H   UNL     1       1.033  11.505  19.762  0.00  0.00    +0.000 HD
ATOM     34  H   UNL     1      -1.119  12.456  22.216  0.00  0.00    +0.000 HD
BRANCH  30  35
ATOM     35  C   UNL     1       0.209  16.764  19.365  0.00  0.00    +0.000 C 
ATOM     36  C   UNL     1      -0.599  17.043  18.087  0.00  0.00    +0.000 C 
ATOM     37  C   UNL     1      -0.304  17.687  20.487  0.00  0.00    +0.000 C 
ATOM     38  C   UNL     1       1.699  17.056  19.123  0.00  0.00    +0.000 C 
ENDBRANCH  30  35
ENDBRANCH   4  24
TORSDOF 6
ENDMDL
MODEL 8
REMARK VINA RESULT:      -8.7      1.926      2.965
REMARK  Name = 
REMARK  11 active torsions:
REMARK  status: ('A' for Active; 'I' for Inactive)
REMARK    1  A    between atoms: C_1  and  N_2
REMARK    2  A    between atoms: N_2  and  C_3
REMARK    3  A    between atoms: N_2  and  C_4
REMARK    4  A    between atoms: C_4  and  C_5
REMARK    5  A    between atoms: C_5  and  N_6
REMARK    6  A    between atoms: C_8  and  C_9
REMARK    7  A    between atoms: C_12  and  N_13
REMARK    8  A    between atoms: C_19  and  C_20
REMARK    9  A    between atoms: C_20  and  C_21
REMARK   10  A    between atoms: C_20  and  C_22
REMARK   11  A    between atoms: C_20  and  C_23
REMARK                            x       y       z     vdW  Elec       q    Type
REMARK                         _______ _______ _______ _____ _____    ______ ____
ROOT
ATOM      1  C   UNL     1       2.324   7.115  18.800  0.00  0.00    +0.000 A 
ATOM      2  C   UNL     1       1.992   8.127  17.891  0.00  0.00    +0.000 A 
ATOM      3  C   UNL     1       1.403   9.312  18.325  0.00  0.00    +0.000 A 
ATOM      4  C   UNL     1       1.128   9.493  19.673  0.00  0.00    +0.000 A 
ATOM      5  C   UNL     1       1.485   8.504  20.597  0.00  0.00    +0.000 A 
ATOM      6  C   UNL     1       2.090   7.326  20.163  0.00  0.00    +0.000 A 
ENDROOT
BRANCH   1   9
ATOM      7  N   UNL     1       4.318   4.567  17.201  0.00  0.00    +0.000 N 
ATOM      8  C   UNL     1       3.958   5.867  17.431  0.00  0.00    +0.000 A 
ATOM      9  C   UNL     1       2.913   5.872  18.334  0.00  0.00    +0.000 A 
ATOM     10  C   UNL     1       2.613   4.505  18.649  0.00  0.00    +0.000 A 
ATOM     11  C   UNL     1       1.696   3.799  19.451  0.00  0.00    +0.000 A 
ATOM     12  N   UNL     1       0.703   4.383  20.229  0.00  0.00    +0.000 N 
ATOM     13  N   UNL     1       1.747   2.453  19.473  0.00  0.00    +0.000 NA
ATOM     14  C   UNL     1       2.673   1.834  18.720  0.00  0.00    +0.000 A 
ATOM     15  N   UNL     1       3.587   2.388  17.910  0.00  0.00    +0.000 NA
ATOM     16  C   UNL     1       3.509   3.728  17.920  0.00  0.00    +0.000 A 
ATOM     17  H   UNL     1       0.320   5.233  19.834  0.00  0.00    +0.000 HD
ATOM     18  H   UNL     1       0.025   3.683  20.510  0.00  0.00    +0.000 HD
BRANCH   7  19
ATOM     19  C   UNL     1       5.429   4.162  16.357  0.00  0.00    +0.000 C 
BRANCH  19  20
ATOM     20  C   UNL     1       6.257   5.365  15.885  0.00  0.00    +0.000 C 
BRANCH  20  22
ATOM     21  C   UNL     1       7.369   6.957  17.304  0.00  0.00    +0.000 C 
ATOM     22  N   UNL     1       7.465   5.627  16.695  0.00  0.00    +0.000 NA
ATOM     23  C   UNL     1       7.670   4.621  17.738  0.00  0.00    +0.000 C 
ENDBRANCH  20  22
ENDBRANCH  19  20
ENDBRANCH   7  19
ENDBRANCH   1   9
BRANCH   4  24
ATOM     24  N   UNL     1       0.521  10.642  20.178  0.00  0.00    +0.000 N 
ATOM     25  C   UNL     1      -0.337  10.770  21.237  0.00  0.00    +0.000 C 
ATOM     26  O   UNL     1      -0.679   9.874  22.008  0.00  0.00    +0.000 OA
ATOM     27  N   UNL     1      -0.784  12.043  21.483  0.00  0.00    +0.000 N 
ATOM     28  C   UNL     1      -0.607  13.144  20.676  0.00  0.00    +0.000 A 
ATOM     29  C   UNL     1      -0.912  14.470  21.038  0.00  0.00    +0.000 A 
ATOM     30  C   UNL     1      -0.545  15.219  19.941  0.00  0.00    +0.000 A 
ATOM     31  O   UNL     1      -0.078  14.385  18.977  0.00  0.00    +0.000 OA
ATOM     32  N   UNL     1      -0.101  13.096  19.439  0.00  0.00    +0.000 NA
ATOM     33  H   UNL     1       0.778  11.513  19.729  0.00  0.00    +0.000 HD
ATOM     34  H   UNL     1      -1.295  12.151  22.346  0.00  0.00    +0.000 HD
BRANCH  30  35
ATOM     35  C   UNL     1      -0.540  16.685  19.639  0.00  0.00    +0.000 C 
ATOM     36  C   UNL     1      -1.805  17.319  20.239  0.00  0.00    +0.000 C 
ATOM     37  C   UNL     1       0.697  17.378  20.244  0.00  0.00    +0.000 C 
ATOM     38  C   UNL     1      -0.522  16.880  18.114  0.00  0.00    +0.000 C 
ENDBRANCH  30  35
ENDBRANCH   4  24
TORSDOF 6
ENDMDL
MODEL 9
REMARK VINA RESULT:      -8.7      1.587      2.117
REMARK  Name = 
REMARK  11 active torsions:
REMARK  status: ('A' for Active; 'I' for Inactive)
REMARK    1  A    between atoms: C_1  and  N_2
REMARK    2  A    between atoms: N_2  and  C_3
REMARK    3  A    between atoms: N_2  and  C_4
REMARK    4  A    between atoms: C_4  and  C_5
REMARK    5  A    between atoms: C_5  and  N_6
REMARK    6  A    between atoms: C_8  and  C_9
REMARK    7  A    between atoms: C_12  and  N_13
REMARK    8  A    between atoms: C_19  and  C_20
REMARK    9  A    between atoms: C_20  and  C_21
REMARK   10  A    between atoms: C_20  and  C_22
REMARK   11  A    between atoms: C_20  and  C_23
REMARK                            x       y       z     vdW  Elec       q    Type
REMARK                         _______ _______ _______ _____ _____    ______ ____
ROOT
ATOM      1  C   UNL     1       2.165   7.628  19.123  0.00  0.00    +0.000 A 
ATOM      2  C   UNL     1       1.726   8.807  18.510  0.00  0.00    +0.000 A 
ATOM      3  C   UNL     1       0.966   9.738  19.213  0.00  0.00    +0.000 A 
ATOM      4  C   UNL     1       0.628   9.494  20.537  0.00  0.00    +0.000 A 
ATOM      5  C   UNL     1       1.089   8.337  21.173  0.00  0.00    +0.000 A 
ATOM      6  C   UNL     1       1.863   7.414  20.473  0.00  0.00    +0.000 A 
ENDROOT
BRANCH   1   9
ATOM      7  N   UNL     1       4.474   5.912  16.944  0.00  0.00    +0.000 N 
ATOM      8  C   UNL     1       3.905   7.039  17.473  0.00  0.00    +0.000 A 
ATOM      9  C   UNL     1       2.934   6.650  18.374  0.00  0.00    +0.000 A 
ATOM     10  C   UNL     1       2.898   5.216  18.372  0.00  0.00    +0.000 A 
ATOM     11  C   UNL     1       2.170   4.193  19.009  0.00  0.00    +0.000 A 
ATOM     12  N   UNL     1       1.140   4.395  19.920  0.00  0.00    +0.000 N 
ATOM     13  N   UNL     1       2.458   2.908  18.721  0.00  0.00    +0.000 NA
ATOM     14  C   UNL     1       3.431   2.654  17.827  0.00  0.00    +0.000 A 
ATOM     15  N   UNL     1       4.182   3.533  17.149  0.00  0.00    +0.000 NA
ATOM     16  C   UNL     1       3.870   4.799  17.467  0.00  0.00    +0.000 A 
ATOM     17  H   UNL     1       0.590   5.226  19.739  0.00  0.00    +0.000 HD
ATOM     18  H   UNL     1       0.614   3.538  20.047  0.00  0.00    +0.000 HD
BRANCH   7  19
ATOM     19  C   UNL     1       5.584   5.917  16.007  0.00  0.00    +0.000 C 
BRANCH  19  20
ATOM     20  C   UNL     1       6.937   5.797  16.724  0.00  0.00    +0.000 C 
BRANCH  20  22
ATOM     21  C   UNL     1       7.822   5.961  18.954  0.00  0.00    +0.000 C 
ATOM     22  N   UNL     1       7.075   6.668  17.910  0.00  0.00    +0.000 NA
ATOM     23  C   UNL     1       7.741   7.935  17.600  0.00  0.00    +0.000 C 
ENDBRANCH  20  22
ENDBRANCH  19  20
ENDBRANCH   7  19
ENDBRANCH   1   9
BRANCH   4  24
ATOM     24  N   UNL     1      -0.147  10.369  21.298  0.00  0.00    +0.000 N 
ATOM     25  C   UNL     1      -0.276  10.448  22.658  0.00  0.00    +0.000 C 
ATOM     26  O   UNL     1       0.348   9.787  23.486  0.00  0.00    +0.000 OA
ATOM     27  N   UNL     1      -1.136  11.414  23.114  0.00  0.00    +0.000 N 
ATOM     28  C   UNL     1      -2.000  12.168  22.352  0.00  0.00    +0.000 A 
ATOM     29  C   UNL     1      -2.732  13.276  22.818  0.00  0.00    +0.000 A 
ATOM     30  C   UNL     1      -3.424  13.721  21.713  0.00  0.00    +0.000 A 
ATOM     31  O   UNL     1      -3.142  12.908  20.662  0.00  0.00    +0.000 OA
ATOM     32  N   UNL     1      -2.244  11.952  21.056  0.00  0.00    +0.000 NA
ATOM     33  H   UNL     1      -0.656  11.076  20.779  0.00  0.00    +0.000 HD
ATOM     34  H   UNL     1      -1.114  11.561  24.112  0.00  0.00    +0.000 HD
BRANCH  30  35
ATOM     35  C   UNL     1      -4.348  14.871  21.458  0.00  0.00    +0.000 C 
ATOM     36  C   UNL     1      -5.112  15.188  22.755  0.00  0.00    +0.000 C 
ATOM     37  C   UNL     1      -3.573  16.127  21.019  0.00  0.00    +0.000 C 
ATOM     38  C   UNL     1      -5.334  14.481  20.345  0.00  0.00    +0.000 C 
ENDBRANCH  30  35
ENDBRANCH   4  24
TORSDOF 6
ENDMDL
