MODEL 1
REMARK VINA RESULT:      -8.6      0.000      0.000
REMARK  Name = 
REMARK  2 active torsions:
REMARK  status: ('A' for Active; 'I' for Inactive)
REMARK    1  A    between atoms: C_1  and  C_9
REMARK    2  A    between atoms: N_2  and  N_3
REMARK                            x       y       z     vdW  Elec       q    Type
REMARK                         _______ _______ _______ _____ _____    ______ ____
ROOT
ATOM      1  C   UNL     1       3.324   5.846  18.034  0.00  0.00    +0.000 A 
ATOM      2  C   UNL     1       4.261   5.449  17.015  0.00  0.00    +0.000 A 
ATOM      3  C   UNL     1       5.044   6.320  16.209  0.00  0.00    +0.000 A 
ATOM      4  C   UNL     1       5.928   5.854  15.231  0.00  0.00    +0.000 A 
ATOM      5  C   UNL     1       6.075   4.493  15.033  0.00  0.00    +0.000 A 
ATOM      6  C   UNL     1       5.349   3.606  15.823  0.00  0.00    +0.000 A 
ATOM      7  C   UNL     1       4.460   4.066  16.812  0.00  0.00    +0.000 A 
ATOM      8  C   UNL     1       3.786   3.133  17.606  0.00  0.00    +0.000 A 
ATOM      9  C   UNL     1       2.907   3.518  18.623  0.00  0.00    +0.000 A 
ATOM     10  C   UNL     1       2.292   2.524  19.401  0.00  0.00    +0.000 A 
ATOM     11  C   UNL     1       1.412   2.853  20.426  0.00  0.00    +0.000 A 
ATOM     12  C   UNL     1       1.131   4.187  20.679  0.00  0.00    +0.000 A 
ATOM     13  C   UNL     1       1.736   5.189  19.907  0.00  0.00    +0.000 A 
ATOM     14  C   UNL     1       2.653   4.888  18.862  0.00  0.00    +0.000 A 
ENDROOT
BRANCH   1  15
ATOM     15  C   UNL     1       3.095   7.297  18.294  0.00  0.00    +0.000 C 
ATOM     16  N   UNL     1       2.106   7.942  17.761  0.00  0.00    +0.000 NA
BRANCH  16  17
ATOM     17  N   UNL     1       2.122   9.301  17.907  0.00  0.00    +0.000 N 
ATOM     18  C   UNL     1       1.319   9.956  18.803  0.00  0.00    +0.000 C 
ATOM     19  N   UNL     1       1.007  11.222  18.746  0.00  0.00    +0.000 NA
ATOM     20  C   UNL     1       0.108  11.423  19.921  0.00  0.00    +0.000 C 
ATOM     21  C   UNL     1       0.071  10.101  20.698  0.00  0.00    +0.000 C 
ATOM     22  N   UNL     1       0.769   9.218  19.806  0.00  0.00    +0.000 N 
ATOM     23  H   UNL     1       2.351   9.895  17.114  0.00  0.00    +0.000 HD
ATOM     24  H   UNL     1       1.399   8.520  20.184  0.00  0.00    +0.000 HD
ENDBRANCH  16  17
ENDBRANCH   1  15
TORSDOF 2
ENDMDL
MODEL 2
REMARK VINA RESULT:      -8.6      0.094      3.938
REMARK  Name = 
REMARK  2 active torsions:
REMARK  status: ('A' for Active; 'I' for Inactive)
REMARK    1  A    between atoms: C_1  and  C_9
REMARK    2  A    between atoms: N_2  and  N_3
REMARK                            x       y       z     vdW  Elec       q    Type
REMARK                         _______ _______ _______ _____ _____    ______ ____
ROOT
ATOM      1  C   UNL     1       3.379   5.797  18.123  0.00  0.00    +0.000 A 
ATOM      2  C   UNL     1       2.684   4.819  18.919  0.00  0.00    +0.000 A 
ATOM      3  C   UNL     1       1.706   5.090  19.916  0.00  0.00    +0.000 A 
ATOM      4  C   UNL     1       1.080   4.081  20.654  0.00  0.00    +0.000 A 
ATOM      5  C   UNL     1       1.399   2.757  20.413  0.00  0.00    +0.000 A 
ATOM      6  C   UNL     1       2.329   2.448  19.424  0.00  0.00    +0.000 A 
ATOM      7  C   UNL     1       2.961   3.457  18.673  0.00  0.00    +0.000 A 
ATOM      8  C   UNL     1       3.857   3.092  17.664  0.00  0.00    +0.000 A 
ATOM      9  C   UNL     1       4.502   4.039  16.862  0.00  0.00    +0.000 A 
ATOM     10  C   UNL     1       5.363   3.594  15.847  0.00  0.00    +0.000 A 
ATOM     11  C   UNL     1       6.027   4.495  15.020  0.00  0.00    +0.000 A 
ATOM     12  C   UNL     1       5.841   5.856  15.209  0.00  0.00    +0.000 A 
ATOM     13  C   UNL     1       4.986   6.312  16.222  0.00  0.00    +0.000 A 
ATOM     14  C   UNL     1       4.279   5.419  17.074  0.00  0.00    +0.000 A 
ENDROOT
BRANCH   1  15
ATOM     15  C   UNL     1       3.105   7.248  18.338  0.00  0.00    +0.000 C 
ATOM     16  N   UNL     1       2.095   7.845  17.789  0.00  0.00    +0.000 NA
BRANCH  16  17
ATOM     17  N   UNL     1       2.068   9.208  17.894  0.00  0.00    +0.000 N 
ATOM     18  C   UNL     1       1.279   9.862  18.802  0.00  0.00    +0.000 C 
ATOM     19  N   UNL     1       0.921  11.114  18.720  0.00  0.00    +0.000 NA
ATOM     20  C   UNL     1       0.063  11.321  19.925  0.00  0.00    +0.000 C 
ATOM     21  C   UNL     1       0.104  10.024  20.742  0.00  0.00    +0.000 C 
ATOM     22  N   UNL     1       0.797   9.138  19.848  0.00  0.00    +0.000 N 
ATOM     23  H   UNL     1       2.244   9.784  17.075  0.00  0.00    +0.000 HD
ATOM     24  H   UNL     1       1.466   8.474  20.221  0.00  0.00    +0.000 HD
ENDBRANCH  16  17
ENDBRANCH   1  15
TORSDOF 2
ENDMDL
MODEL 3
REMARK VINA RESULT:      -8.4      1.116      4.115
REMARK  Name = 
REMARK  2 active torsions:
REMARK  status: ('A' for Active; 'I' for Inactive)
REMARK    1  A    between atoms: C_1  and  C_9
REMARK    2  A    between atoms: N_2  and  N_3
REMARK                            x       y       z     vdW  Elec       q    Type
REMARK                         _______ _______ _______ _____ _____    ______ ____
ROOT
ATOM      1  C   UNL     1       3.115   5.663  18.069  0.00  0.00    +0.000 A 
ATOM      2  C   UNL     1       2.526   4.572  18.803  0.00  0.00    +0.000 A 
ATOM      3  C   UNL     1       1.441   4.666  19.717  0.00  0.00    +0.000 A 
ATOM      4  C   UNL     1       0.930   3.557  20.399  0.00  0.00    +0.000 A 
ATOM      5  C   UNL     1       1.478   2.306  20.180  0.00  0.00    +0.000 A 
ATOM      6  C   UNL     1       2.522   2.167  19.269  0.00  0.00    +0.000 A 
ATOM      7  C   UNL     1       3.039   3.277  18.576  0.00  0.00    +0.000 A 
ATOM      8  C   UNL     1       4.060   3.078  17.642  0.00  0.00    +0.000 A 
ATOM      9  C   UNL     1       4.605   4.129  16.898  0.00  0.00    +0.000 A 
ATOM     10  C   UNL     1       5.606   3.846  15.955  0.00  0.00    +0.000 A 
ATOM     11  C   UNL     1       6.179   4.856  15.188  0.00  0.00    +0.000 A 
ATOM     12  C   UNL     1       5.760   6.165  15.365  0.00  0.00    +0.000 A 
ATOM     13  C   UNL     1       4.765   6.461  16.307  0.00  0.00    +0.000 A 
ATOM     14  C   UNL     1       4.146   5.452  17.096  0.00  0.00    +0.000 A 
ENDROOT
BRANCH   1  15
ATOM     15  C   UNL     1       2.593   7.046  18.266  0.00  0.00    +0.000 C 
ATOM     16  N   UNL     1       2.293   7.506  19.440  0.00  0.00    +0.000 NA
BRANCH  16  17
ATOM     17  N   UNL     1       1.635   8.704  19.470  0.00  0.00    +0.000 N 
ATOM     18  C   UNL     1       1.016   9.177  20.595  0.00  0.00    +0.000 C 
ATOM     19  N   UNL     1       0.083  10.090  20.611  0.00  0.00    +0.000 NA
ATOM     20  C   UNL     1      -0.263  10.224  22.058  0.00  0.00    +0.000 C 
ATOM     21  C   UNL     1       0.707   9.332  22.843  0.00  0.00    +0.000 C 
ATOM     22  N   UNL     1       1.371   8.621  21.785  0.00  0.00    +0.000 N 
ATOM     23  H   UNL     1       1.193   9.061  18.627  0.00  0.00    +0.000 HD
ATOM     24  H   UNL     1       2.363   8.427  21.859  0.00  0.00    +0.000 HD
ENDBRANCH  16  17
ENDBRANCH   1  15
TORSDOF 2
ENDMDL
MODEL 4
REMARK VINA RESULT:      -8.2      0.936      1.023
REMARK  Name = 
REMARK  2 active torsions:
REMARK  status: ('A' for Active; 'I' for Inactive)
REMARK    1  A    between atoms: C_1  and  C_9
REMARK    2  A    between atoms: N_2  and  N_3
REMARK                            x       y       z     vdW  Elec       q    Type
REMARK                         _______ _______ _______ _____ _____    ______ ____
ROOT
ATOM      1  C   UNL     1       3.004   5.833  18.462  0.00  0.00    +0.000 A 
ATOM      2  C   UNL     1       3.922   5.713  17.359  0.00  0.00    +0.000 A 
ATOM      3  C   UNL     1       4.610   6.781  16.720  0.00  0.00    +0.000 A 
ATOM      4  C   UNL     1       5.482   6.583  15.646  0.00  0.00    +0.000 A 
ATOM      5  C   UNL     1       5.712   5.302  15.178  0.00  0.00    +0.000 A 
ATOM      6  C   UNL     1       5.082   4.225  15.796  0.00  0.00    +0.000 A 
ATOM      7  C   UNL     1       4.206   4.415  16.881  0.00  0.00    +0.000 A 
ATOM      8  C   UNL     1       3.630   3.298  17.493  0.00  0.00    +0.000 A 
ATOM      9  C   UNL     1       2.770   3.410  18.590  0.00  0.00    +0.000 A 
ATOM     10  C   UNL     1       2.257   2.239  19.172  0.00  0.00    +0.000 A 
ATOM     11  C   UNL     1       1.400   2.296  20.266  0.00  0.00    +0.000 A 
ATOM     12  C   UNL     1       1.039   3.530  20.785  0.00  0.00    +0.000 A 
ATOM     13  C   UNL     1       1.542   4.705  20.210  0.00  0.00    +0.000 A 
ATOM     14  C   UNL     1       2.433   4.684  19.102  0.00  0.00    +0.000 A 
ENDROOT
BRANCH   1  15
ATOM     15  C   UNL     1       2.688   7.184  19.010  0.00  0.00    +0.000 C 
ATOM     16  N   UNL     1       1.975   8.042  18.351  0.00  0.00    +0.000 NA
BRANCH  16  17
ATOM     17  N   UNL     1       1.929   9.309  18.863  0.00  0.00    +0.000 N 
ATOM     18  C   UNL     1       0.882  10.161  18.630  0.00  0.00    +0.000 C 
ATOM     19  N   UNL     1       0.928  11.459  18.758  0.00  0.00    +0.000 NA
ATOM     20  C   UNL     1      -0.443  11.907  18.370  0.00  0.00    +0.000 C 
ATOM     21  C   UNL     1      -1.281  10.646  18.125  0.00  0.00    +0.000 C 
ATOM     22  N   UNL     1      -0.283   9.614  18.190  0.00  0.00    +0.000 N 
ATOM     23  H   UNL     1       2.791   9.821  19.032  0.00  0.00    +0.000 HD
ATOM     24  H   UNL     1      -0.506   8.730  18.632  0.00  0.00    +0.000 HD
ENDBRANCH  16  17
ENDBRANCH   1  15
TORSDOF 2
ENDMDL
MODEL 5
REMARK VINA RESULT:      -8.1      1.596      1.778
REMARK  Name = 
REMARK  2 active torsions:
REMARK  status: ('A' for Active; 'I' for Inactive)
REMARK    1  A    between atoms: C_1  and  C_9
REMARK    2  A    between atoms: N_2  and  N_3
REMARK                            x       y       z     vdW  Elec       q    Type
REMARK                         _______ _______ _______ _____ _____    ______ ____
ROOT
ATOM      1  C   UNL     1       3.231   5.690  18.006  0.00  0.00    +0.000 A 
ATOM      2  C   UNL     1       4.613   5.780  17.610  0.00  0.00    +0.000 A 
ATOM      3  C   UNL     1       5.340   6.978  17.368  0.00  0.00    +0.000 A 
ATOM      4  C   UNL     1       6.682   6.982  16.978  0.00  0.00    +0.000 A 
ATOM      5  C   UNL     1       7.355   5.782  16.827  0.00  0.00    +0.000 A 
ATOM      6  C   UNL     1       6.687   4.588  17.084  0.00  0.00    +0.000 A 
ATOM      7  C   UNL     1       5.338   4.575  17.482  0.00  0.00    +0.000 A 
ATOM      8  C   UNL     1       4.724   3.352  17.767  0.00  0.00    +0.000 A 
ATOM      9  C   UNL     1       3.395   3.265  18.191  0.00  0.00    +0.000 A 
ATOM     10  C   UNL     1       2.859   2.002  18.490  0.00  0.00    +0.000 A 
ATOM     11  C   UNL     1       1.543   1.862  18.919  0.00  0.00    +0.000 A 
ATOM     12  C   UNL     1       0.745   2.989  19.044  0.00  0.00    +0.000 A 
ATOM     13  C   UNL     1       1.267   4.255  18.744  0.00  0.00    +0.000 A 
ATOM     14  C   UNL     1       2.613   4.436  18.320  0.00  0.00    +0.000 A 
ENDROOT
BRANCH   1  15
ATOM     15  C   UNL     1       2.432   6.939  18.169  0.00  0.00    +0.000 C 
ATOM     16  N   UNL     1       2.412   7.602  19.282  0.00  0.00    +0.000 NA
BRANCH  16  17
ATOM     17  N   UNL     1       1.488   8.605  19.372  0.00  0.00    +0.000 N 
ATOM     18  C   UNL     1       0.932   8.991  20.562  0.00  0.00    +0.000 C 
ATOM     19  N   UNL     1      -0.186   9.651  20.689  0.00  0.00    +0.000 NA
ATOM     20  C   UNL     1      -0.352   9.797  22.166  0.00  0.00    +0.000 C 
ATOM     21  C   UNL     1       0.907   9.219  22.825  0.00  0.00    +0.000 C 
ATOM     22  N   UNL     1       1.575   8.619  21.703  0.00  0.00    +0.000 N 
ATOM     23  H   UNL     1       0.860   8.788  18.595  0.00  0.00    +0.000 HD
ATOM     24  H   UNL     1       2.584   8.674  21.633  0.00  0.00    +0.000 HD
ENDBRANCH  16  17
ENDBRANCH   1  15
TORSDOF 2
ENDMDL
MODEL 6
REMARK VINA RESULT:      -8.1      0.958      4.029
REMARK  Name = 
REMARK  2 active torsions:
REMARK  status: ('A' for Active; 'I' for Inactive)
REMARK    1  A    between atoms: C_1  and  C_9
REMARK    2  A    between atoms: N_2  and  N_3
REMARK                            x       y       z     vdW  Elec       q    Type
REMARK                         _______ _______ _______ _____ _____    ______ ____
ROOT
ATOM      1  C   UNL     1       3.066   5.796  18.522  0.00  0.00    +0.000 A 
ATOM      2  C   UNL     1       2.442   4.631  19.095  0.00  0.00    +0.000 A 
ATOM      3  C   UNL     1       1.487   4.623  20.149  0.00  0.00    +0.000 A 
ATOM      4  C   UNL     1       0.931   3.445  20.656  0.00  0.00    +0.000 A 
ATOM      5  C   UNL     1       1.301   2.226  20.118  0.00  0.00    +0.000 A 
ATOM      6  C   UNL     1       2.210   2.192  19.064  0.00  0.00    +0.000 A 
ATOM      7  C   UNL     1       2.771   3.373  18.544  0.00  0.00    +0.000 A 
ATOM      8  C   UNL     1       3.649   3.289  17.459  0.00  0.00    +0.000 A 
ATOM      9  C   UNL     1       4.224   4.421  16.875  0.00  0.00    +0.000 A 
ATOM     10  C   UNL     1       5.070   4.258  15.767  0.00  0.00    +0.000 A 
ATOM     11  C   UNL     1       5.665   5.353  15.148  0.00  0.00    +0.000 A 
ATOM     12  C   UNL     1       5.425   6.626  15.641  0.00  0.00    +0.000 A 
ATOM     13  C   UNL     1       4.585   6.802  16.749  0.00  0.00    +0.000 A 
ATOM     14  C   UNL     1       3.947   5.707  17.396  0.00  0.00    +0.000 A 
ENDROOT
BRANCH   1  15
ATOM     15  C   UNL     1       2.735   7.146  19.063  0.00  0.00    +0.000 C 
ATOM     16  N   UNL     1       1.983   7.979  18.417  0.00  0.00    +0.000 NA
BRANCH  16  17
ATOM     17  N   UNL     1       1.922   9.251  18.915  0.00  0.00    +0.000 N 
ATOM     18  C   UNL     1       0.878  10.096  18.653  0.00  0.00    +0.000 C 
ATOM     19  N   UNL     1       0.916  11.395  18.769  0.00  0.00    +0.000 NA
ATOM     20  C   UNL     1      -0.448  11.834  18.350  0.00  0.00    +0.000 C 
ATOM     21  C   UNL     1      -1.278  10.568  18.102  0.00  0.00    +0.000 C 
ATOM     22  N   UNL     1      -0.278   9.541  18.196  0.00  0.00    +0.000 N 
ATOM     23  H   UNL     1       2.779   9.768  19.095  0.00  0.00    +0.000 HD
ATOM     24  H   UNL     1      -0.505   8.661  18.643  0.00  0.00    +0.000 HD
ENDBRANCH  16  17
ENDBRANCH   1  15
TORSDOF 2
ENDMDL
MODEL 7
REMARK VINA RESULT:      -8.0      1.496      1.511
REMARK  Name = 
REMARK  2 active torsions:
REMARK  status: ('A' for Active; 'I' for Inactive)
REMARK    1  A    between atoms: C_1  and  C_9
REMARK    2  A    between atoms: N_2  and  N_3
REMARK                            x       y       z     vdW  Elec       q    Type
REMARK                         _______ _______ _______ _____ _____    ______ ____
ROOT
ATOM      1  C   UNL     1       3.324   5.891  18.341  0.00  0.00    +0.000 A 
ATOM      2  C   UNL     1       4.735   5.884  18.053  0.00  0.00    +0.000 A 
ATOM      3  C   UNL     1       5.447   6.875  17.323  0.00  0.00    +0.000 A 
ATOM      4  C   UNL     1       6.821   6.792  17.078  0.00  0.00    +0.000 A 
ATOM      5  C   UNL     1       7.540   5.716  17.567  0.00  0.00    +0.000 A 
ATOM      6  C   UNL     1       6.886   4.739  18.312  0.00  0.00    +0.000 A 
ATOM      7  C   UNL     1       5.504   4.817  18.568  0.00  0.00    +0.000 A 
ATOM      8  C   UNL     1       4.902   3.832  19.356  0.00  0.00    +0.000 A 
ATOM      9  C   UNL     1       3.540   3.859  19.671  0.00  0.00    +0.000 A 
ATOM     10  C   UNL     1       3.014   2.851  20.496  0.00  0.00    +0.000 A 
ATOM     11  C   UNL     1       1.667   2.834  20.841  0.00  0.00    +0.000 A 
ATOM     12  C   UNL     1       0.828   3.825  20.355  0.00  0.00    +0.000 A 
ATOM     13  C   UNL     1       1.340   4.834  19.528  0.00  0.00    +0.000 A 
ATOM     14  C   UNL     1       2.715   4.891  19.169  0.00  0.00    +0.000 A 
ENDROOT
BRANCH   1  15
ATOM     15  C   UNL     1       2.476   7.007  17.830  0.00  0.00    +0.000 C 
ATOM     16  N   UNL     1       2.432   8.160  18.419  0.00  0.00    +0.000 NA
BRANCH  16  17
ATOM     17  N   UNL     1       1.469   9.026  17.980  0.00  0.00    +0.000 N 
ATOM     18  C   UNL     1       0.665   9.729  18.835  0.00  0.00    +0.000 C 
ATOM     19  N   UNL     1      -0.482  10.265  18.517  0.00  0.00    +0.000 NA
ATOM     20  C   UNL     1      -0.954  10.885  19.792  0.00  0.00    +0.000 C 
ATOM     21  C   UNL     1       0.165  10.709  20.826  0.00  0.00    +0.000 C 
ATOM     22  N   UNL     1       1.073   9.841  20.129  0.00  0.00    +0.000 N 
ATOM     23  H   UNL     1       1.008   8.863  17.089  0.00  0.00    +0.000 HD
ATOM     24  H   UNL     1       2.072   9.980  20.225  0.00  0.00    +0.000 HD
ENDBRANCH  16  17
ENDBRANCH   1  15
TORSDOF 2
ENDMDL
MODEL 8
REMARK VINA RESULT:      -8.0      1.432      4.083
REMARK  Name = 
REMARK  2 active torsions:
REMARK  status: ('A' for Active; 'I' for Inactive)
REMARK    1  A    between atoms: C_1  and  C_9
REMARK    2  A    between atoms: N_2  and  N_3
REMARK                            x       y       z     vdW  Elec       q    Type
REMARK                         _______ _______ _______ _____ _____    ______ ____
ROOT
ATOM      1  C   UNL     1       3.353   5.922  18.365  0.00  0.00    +0.000 A 
ATOM      2  C   UNL     1       2.735   4.912  19.185  0.00  0.00    +0.000 A 
ATOM      3  C   UNL     1       1.355   4.831  19.519  0.00  0.00    +0.000 A 
ATOM      4  C   UNL     1       0.832   3.820  20.330  0.00  0.00    +0.000 A 
ATOM      5  C   UNL     1       1.671   2.840  20.830  0.00  0.00    +0.000 A 
ATOM      6  C   UNL     1       3.023   2.866  20.501  0.00  0.00    +0.000 A 
ATOM      7  C   UNL     1       3.557   3.877  19.681  0.00  0.00    +0.000 A 
ATOM      8  C   UNL     1       4.915   3.836  19.348  0.00  0.00    +0.000 A 
ATOM      9  C   UNL     1       5.508   4.792  18.519  0.00  0.00    +0.000 A 
ATOM     10  C   UNL     1       6.870   4.666  18.202  0.00  0.00    +0.000 A 
ATOM     11  C   UNL     1       7.507   5.589  17.379  0.00  0.00    +0.000 A 
ATOM     12  C   UNL     1       6.785   6.658  16.870  0.00  0.00    +0.000 A 
ATOM     13  C   UNL     1       5.426   6.798  17.182  0.00  0.00    +0.000 A 
ATOM     14  C   UNL     1       4.739   5.863  18.007  0.00  0.00    +0.000 A 
ENDROOT
BRANCH   1  15
ATOM     15  C   UNL     1       2.518   7.025  17.806  0.00  0.00    +0.000 C 
ATOM     16  N   UNL     1       2.574   8.232  18.273  0.00  0.00    +0.000 NA
BRANCH  16  17
ATOM     17  N   UNL     1       1.619   9.100  17.821  0.00  0.00    +0.000 N 
ATOM     18  C   UNL     1       0.732   9.721  18.658  0.00  0.00    +0.000 C 
ATOM     19  N   UNL     1      -0.404  10.247  18.291  0.00  0.00    +0.000 NA
ATOM     20  C   UNL     1      -0.989  10.766  19.564  0.00  0.00    +0.000 C 
ATOM     21  C   UNL     1       0.056  10.549  20.665  0.00  0.00    +0.000 C 
ATOM     22  N   UNL     1       1.040   9.755  19.983  0.00  0.00    +0.000 N 
ATOM     23  H   UNL     1       1.230   8.986  16.889  0.00  0.00    +0.000 HD
ATOM     24  H   UNL     1       2.024   9.914  20.164  0.00  0.00    +0.000 HD
ENDBRANCH  16  17
ENDBRANCH   1  15
TORSDOF 2
ENDMDL
MODEL 9
REMARK VINA RESULT:      -8.0      1.622      4.017
REMARK  Name = 
REMARK  2 active torsions:
REMARK  status: ('A' for Active; 'I' for Inactive)
REMARK    1  A    between atoms: C_1  and  C_9
REMARK    2  A    between atoms: N_2  and  N_3
REMARK                            x       y       z     vdW  Elec       q    Type
REMARK                         _______ _______ _______ _____ _____    ______ ____
ROOT
ATOM      1  C   UNL     1       3.331   5.730  18.097  0.00  0.00    +0.000 A 
ATOM      2  C   UNL     1       2.680   4.464  18.319  0.00  0.00    +0.000 A 
ATOM      3  C   UNL     1       1.317   4.272  18.674  0.00  0.00    +0.000 A 
ATOM      4  C   UNL     1       0.760   3.007  18.881  0.00  0.00    +0.000 A 
ATOM      5  C   UNL     1       1.546   1.879  18.725  0.00  0.00    +0.000 A 
ATOM      6  C   UNL     1       2.879   2.022  18.348  0.00  0.00    +0.000 A 
ATOM      7  C   UNL     1       3.446   3.292  18.134  0.00  0.00    +0.000 A 
ATOM      8  C   UNL     1       4.777   3.380  17.716  0.00  0.00    +0.000 A 
ATOM      9  C   UNL     1       5.399   4.606  17.461  0.00  0.00    +0.000 A 
ATOM     10  C   UNL     1       6.729   4.613  17.013  0.00  0.00    +0.000 A 
ATOM     11  C   UNL     1       7.392   5.805  16.742  0.00  0.00    +0.000 A 
ATOM     12  C   UNL     1       6.729   7.009  16.926  0.00  0.00    +0.000 A 
ATOM     13  C   UNL     1       5.402   7.016  17.376  0.00  0.00    +0.000 A 
ATOM     14  C   UNL     1       4.689   5.815  17.647  0.00  0.00    +0.000 A 
ENDROOT
BRANCH   1  15
ATOM     15  C   UNL     1       2.555   6.993  18.266  0.00  0.00    +0.000 C 
ATOM     16  N   UNL     1       2.312   7.498  19.434  0.00  0.00    +0.000 NA
BRANCH  16  17
ATOM     17  N   UNL     1       1.423   8.536  19.470  0.00  0.00    +0.000 N 
ATOM     18  C   UNL     1       0.886   9.007  20.638  0.00  0.00    +0.000 C 
ATOM     19  N   UNL     1      -0.209   9.710  20.731  0.00  0.00    +0.000 NA
ATOM     20  C   UNL     1      -0.362   9.945  22.198  0.00  0.00    +0.000 C 
ATOM     21  C   UNL     1       0.881   9.363  22.884  0.00  0.00    +0.000 C 
ATOM     22  N   UNL     1       1.522   8.678  21.796  0.00  0.00    +0.000 N 
ATOM     23  H   UNL     1       0.796   8.696  18.685  0.00  0.00    +0.000 HD
ATOM     24  H   UNL     1       2.531   8.695  21.719  0.00  0.00    +0.000 HD
ENDBRANCH  16  17
ENDBRANCH   1  15
TORSDOF 2
ENDMDL
