MODEL 1
REMARK VINA RESULT:      -8.1      0.000      0.000
REMARK  Name = 
REMARK  3 active torsions:
REMARK  status: ('A' for Active; 'I' for Inactive)
REMARK    1  A    between atoms: C_1  and  C_2
REMARK    2  A    between atoms: C_2  and  C_3
REMARK    3  A    between atoms: C_15  and  N_16
REMARK                            x       y       z     vdW  Elec       q    Type
REMARK                         _______ _______ _______ _____ _____    ______ ____
ROOT
ATOM      1  C   UNL     1       6.569   4.963  14.845  0.00  0.00    +0.000 C 
ATOM      2  C   UNL     1       7.467   5.456  15.713  0.00  0.00    +0.000 C 
ATOM      3  C   UNL     1       7.029   5.845  17.090  0.00  0.00    +0.000 C 
ATOM      4  C   UNL     1       6.790   4.502  17.865  0.00  0.00    +0.000 C 
ATOM      5  C   UNL     1       5.350   4.201  18.232  0.00  0.00    +0.000 A 
ATOM      6  N   UNL     1       5.145   3.284  19.202  0.00  0.00    +0.000 NA
ATOM      7  C   UNL     1       4.018   3.382  19.931  0.00  0.00    +0.000 A 
ATOM      8  C   UNL     1       3.692   2.422  20.880  0.00  0.00    +0.000 A 
ATOM      9  N   UNL     1       2.682   2.501  21.786  0.00  0.00    +0.000 NA
ATOM     10  C   UNL     1       1.945   3.624  21.745  0.00  0.00    +0.000 A 
ATOM     11  C   UNL     1       2.134   4.623  20.803  0.00  0.00    +0.000 A 
ATOM     12  C   UNL     1       3.159   4.488  19.832  0.00  0.00    +0.000 A 
ATOM     13  C   UNL     1       3.411   5.404  18.768  0.00  0.00    +0.000 A 
ATOM     14  C   UNL     1       4.378   5.075  17.795  0.00  0.00    +0.000 A 
ATOM     15  C   UNL     1       4.651   5.831  16.502  0.00  0.00    +0.000 C 
ATOM     16  C   UNL     1       5.072   4.933  15.243  0.00  0.00    +0.000 C 
ATOM     17  C   UNL     1       5.796   6.747  16.911  0.00  0.00    +0.000 C 
ENDROOT
BRANCH  13  18
ATOM     18  N   UNL     1       2.631   6.578  18.628  0.00  0.00    +0.000 N 
ATOM     19  H   UNL     1       3.177   7.424  18.771  0.00  0.00    +0.000 HD
ATOM     20  H   UNL     1       2.187   6.626  17.714  0.00  0.00    +0.000 HD
ENDBRANCH  13  18
BRANCH   1  22
ATOM     21  C   UNL     1       5.941   3.554  12.768  0.00  0.00    +0.000 C 
ATOM     22  C   UNL     1       7.007   4.369  13.514  0.00  0.00    +0.000 C 
ENDBRANCH   1  22
TORSDOF 2
ENDMDL
MODEL 2
REMARK VINA RESULT:      -7.5      1.886      3.649
REMARK  Name = 
REMARK  3 active torsions:
REMARK  status: ('A' for Active; 'I' for Inactive)
REMARK    1  A    between atoms: C_1  and  C_2
REMARK    2  A    between atoms: C_2  and  C_3
REMARK    3  A    between atoms: C_15  and  N_16
REMARK                            x       y       z     vdW  Elec       q    Type
REMARK                         _______ _______ _______ _____ _____    ______ ____
ROOT
ATOM      1  C   UNL     1       7.843   7.202  18.196  0.00  0.00    +0.000 C 
ATOM      2  C   UNL     1       7.324   7.050  16.967  0.00  0.00    +0.000 C 
ATOM      3  C   UNL     1       6.300   5.988  16.722  0.00  0.00    +0.000 C 
ATOM      4  C   UNL     1       4.974   6.502  17.384  0.00  0.00    +0.000 C 
ATOM      5  C   UNL     1       4.498   5.723  18.595  0.00  0.00    +0.000 A 
ATOM      6  N   UNL     1       3.205   5.881  18.954  0.00  0.00    +0.000 NA
ATOM      7  C   UNL     1       2.605   4.865  19.601  0.00  0.00    +0.000 A 
ATOM      8  C   UNL     1       1.309   4.990  20.086  0.00  0.00    +0.000 A 
ATOM      9  N   UNL     1       0.546   3.989  20.598  0.00  0.00    +0.000 NA
ATOM     10  C   UNL     1       1.115   2.772  20.624  0.00  0.00    +0.000 A 
ATOM     11  C   UNL     1       2.422   2.537  20.228  0.00  0.00    +0.000 A 
ATOM     12  C   UNL     1       3.216   3.610  19.752  0.00  0.00    +0.000 A 
ATOM     13  C   UNL     1       4.591   3.518  19.383  0.00  0.00    +0.000 A 
ATOM     14  C   UNL     1       5.294   4.696  19.054  0.00  0.00    +0.000 A 
ATOM     15  C   UNL     1       6.792   4.817  18.816  0.00  0.00    +0.000 C 
ATOM     16  C   UNL     1       7.469   6.185  19.304  0.00  0.00    +0.000 C 
ATOM     17  C   UNL     1       6.881   4.687  17.302  0.00  0.00    +0.000 C 
ENDROOT
BRANCH  13  18
ATOM     18  N   UNL     1       5.272   2.277  19.446  0.00  0.00    +0.000 N 
ATOM     19  H   UNL     1       6.281   2.387  19.392  0.00  0.00    +0.000 HD
ATOM     20  H   UNL     1       5.043   1.767  20.295  0.00  0.00    +0.000 HD
ENDBRANCH  13  18
BRANCH   1  22
ATOM     21  C   UNL     1       8.321   9.726  17.895  0.00  0.00    +0.000 C 
ATOM     22  C   UNL     1       8.730   8.392  18.534  0.00  0.00    +0.000 C 
ENDBRANCH   1  22
TORSDOF 2
ENDMDL
MODEL 3
REMARK VINA RESULT:      -7.4      1.902      3.576
REMARK  Name = 
REMARK  3 active torsions:
REMARK  status: ('A' for Active; 'I' for Inactive)
REMARK    1  A    between atoms: C_1  and  C_2
REMARK    2  A    between atoms: C_2  and  C_3
REMARK    3  A    between atoms: C_15  and  N_16
REMARK                            x       y       z     vdW  Elec       q    Type
REMARK                         _______ _______ _______ _____ _____    ______ ____
ROOT
ATOM      1  C   UNL     1       7.402   7.051  17.891  0.00  0.00    +0.000 C 
ATOM      2  C   UNL     1       6.609   7.532  16.919  0.00  0.00    +0.000 C 
ATOM      3  C   UNL     1       5.411   6.749  16.487  0.00  0.00    +0.000 C 
ATOM      4  C   UNL     1       4.353   6.904  17.636  0.00  0.00    +0.000 C 
ATOM      5  C   UNL     1       4.044   5.645  18.421  0.00  0.00    +0.000 A 
ATOM      6  N   UNL     1       2.899   5.637  19.139  0.00  0.00    +0.000 NA
ATOM      7  C   UNL     1       2.312   4.448  19.370  0.00  0.00    +0.000 A 
ATOM      8  C   UNL     1       1.187   4.350  20.179  0.00  0.00    +0.000 A 
ATOM      9  N   UNL     1       0.415   3.244  20.347  0.00  0.00    +0.000 NA
ATOM     10  C   UNL     1       0.789   2.158  19.651  0.00  0.00    +0.000 A 
ATOM     11  C   UNL     1       1.927   2.115  18.862  0.00  0.00    +0.000 A 
ATOM     12  C   UNL     1       2.748   3.266  18.751  0.00  0.00    +0.000 A 
ATOM     13  C   UNL     1       3.979   3.334  18.033  0.00  0.00    +0.000 A 
ATOM     14  C   UNL     1       4.760   4.506  18.119  0.00  0.00    +0.000 A 
ATOM     15  C   UNL     1       6.170   4.693  17.580  0.00  0.00    +0.000 C 
ATOM     16  C   UNL     1       7.133   5.631  18.451  0.00  0.00    +0.000 C 
ATOM     17  C   UNL     1       5.904   5.318  16.217  0.00  0.00    +0.000 C 
ENDROOT
BRANCH  13  18
ATOM     18  N   UNL     1       4.465   2.205  17.328  0.00  0.00    +0.000 N 
ATOM     19  H   UNL     1       5.441   2.307  17.061  0.00  0.00    +0.000 HD
ATOM     20  H   UNL     1       4.363   1.352  17.872  0.00  0.00    +0.000 HD
ENDBRANCH  13  18
BRANCH   1  22
ATOM     21  C   UNL     1       8.442   9.403  18.176  0.00  0.00    +0.000 C 
ATOM     22  C   UNL     1       8.508   7.904  18.497  0.00  0.00    +0.000 C 
ENDBRANCH   1  22
TORSDOF 2
ENDMDL
MODEL 4
REMARK VINA RESULT:      -7.0      2.055      3.691
REMARK  Name = 
REMARK  3 active torsions:
REMARK  status: ('A' for Active; 'I' for Inactive)
REMARK    1  A    between atoms: C_1  and  C_2
REMARK    2  A    between atoms: C_2  and  C_3
REMARK    3  A    between atoms: C_15  and  N_16
REMARK                            x       y       z     vdW  Elec       q    Type
REMARK                         _______ _______ _______ _____ _____    ______ ____
ROOT
ATOM      1  C   UNL     1       7.384   7.188  17.506  0.00  0.00    +0.000 C 
ATOM      2  C   UNL     1       7.446   6.496  16.357  0.00  0.00    +0.000 C 
ATOM      3  C   UNL     1       6.790   5.155  16.265  0.00  0.00    +0.000 C 
ATOM      4  C   UNL     1       5.247   5.432  16.193  0.00  0.00    +0.000 C 
ATOM      5  C   UNL     1       4.440   4.985  17.396  0.00  0.00    +0.000 A 
ATOM      6  N   UNL     1       3.107   4.853  17.225  0.00  0.00    +0.000 NA
ATOM      7  C   UNL     1       2.457   3.973  18.008  0.00  0.00    +0.000 A 
ATOM      8  C   UNL     1       1.074   3.851  17.956  0.00  0.00    +0.000 A 
ATOM      9  N   UNL     1       0.331   2.891  18.566  0.00  0.00    +0.000 NA
ATOM     10  C   UNL     1       1.018   1.981  19.276  0.00  0.00    +0.000 A 
ATOM     11  C   UNL     1       2.391   2.035  19.453  0.00  0.00    +0.000 A 
ATOM     12  C   UNL     1       3.136   3.082  18.853  0.00  0.00    +0.000 A 
ATOM     13  C   UNL     1       4.538   3.293  19.016  0.00  0.00    +0.000 A 
ATOM     14  C   UNL     1       5.124   4.453  18.469  0.00  0.00    +0.000 A 
ATOM     15  C   UNL     1       6.550   4.936  18.693  0.00  0.00    +0.000 C 
ATOM     16  C   UNL     1       6.748   6.525  18.755  0.00  0.00    +0.000 C 
ATOM     17  C   UNL     1       7.272   4.354  17.486  0.00  0.00    +0.000 C 
ENDROOT
BRANCH  13  18
ATOM     18  N   UNL     1       5.314   2.407  19.803  0.00  0.00    +0.000 N 
ATOM     19  H   UNL     1       6.311   2.585  19.715  0.00  0.00    +0.000 HD
ATOM     20  H   UNL     1       5.058   2.457  20.786  0.00  0.00    +0.000 HD
ENDBRANCH  13  18
BRANCH   1  22
ATOM     21  C   UNL     1       8.752   8.976  18.782  0.00  0.00    +0.000 C 
ATOM     22  C   UNL     1       7.860   8.633  17.581  0.00  0.00    +0.000 C 
ENDBRANCH   1  22
TORSDOF 2
ENDMDL
MODEL 5
REMARK VINA RESULT:      -6.9      9.315     11.838
REMARK  Name = 
REMARK  3 active torsions:
REMARK  status: ('A' for Active; 'I' for Inactive)
REMARK    1  A    between atoms: C_1  and  C_2
REMARK    2  A    between atoms: C_2  and  C_3
REMARK    3  A    between atoms: C_15  and  N_16
REMARK                            x       y       z     vdW  Elec       q    Type
REMARK                         _______ _______ _______ _____ _____    ______ ____
ROOT
ATOM      1  C   UNL     1       9.484  10.353  19.009  0.00  0.00    +0.000 C 
ATOM      2  C   UNL     1      10.112  10.657  20.156  0.00  0.00    +0.000 C 
ATOM      3  C   UNL     1      10.841  11.957  20.279  0.00  0.00    +0.000 C 
ATOM      4  C   UNL     1       9.736  13.063  20.413  0.00  0.00    +0.000 C 
ATOM      5  C   UNL     1       9.618  14.022  19.245  0.00  0.00    +0.000 A 
ATOM      6  N   UNL     1       8.970  15.186  19.471  0.00  0.00    +0.000 NA
ATOM      7  C   UNL     1       9.307  16.248  18.717  0.00  0.00    +0.000 A 
ATOM      8  C   UNL     1       8.620  17.451  18.826  0.00  0.00    +0.000 A 
ATOM      9  N   UNL     1       8.972  18.630  18.249  0.00  0.00    +0.000 NA
ATOM     10  C   UNL     1      10.097  18.610  17.514  0.00  0.00    +0.000 A 
ATOM     11  C   UNL     1      10.831  17.458  17.281  0.00  0.00    +0.000 A 
ATOM     12  C   UNL     1      10.409  16.229  17.848  0.00  0.00    +0.000 A 
ATOM     13  C   UNL     1      11.031  14.963  17.628  0.00  0.00    +0.000 A 
ATOM     14  C   UNL     1      10.423  13.801  18.147  0.00  0.00    +0.000 A 
ATOM     15  C   UNL     1      10.834  12.363  17.864  0.00  0.00    +0.000 C 
ATOM     16  C   UNL     1       9.640  11.297  17.790  0.00  0.00    +0.000 C 
ATOM     17  C   UNL     1      11.749  12.061  19.042  0.00  0.00    +0.000 C 
ENDROOT
BRANCH  13  18
ATOM     18  N   UNL     1      12.184  14.860  16.812  0.00  0.00    +0.000 N 
ATOM     19  H   UNL     1      12.119  14.094  16.147  0.00  0.00    +0.000 HD
ATOM     20  H   UNL     1      12.361  15.722  16.303  0.00  0.00    +0.000 HD
ENDBRANCH  13  18
BRANCH   1  22
ATOM     21  C   UNL     1       8.139   8.747  17.491  0.00  0.00    +0.000 C 
ATOM     22  C   UNL     1       8.567   9.142  18.911  0.00  0.00    +0.000 C 
ENDBRANCH   1  22
TORSDOF 2
ENDMDL
MODEL 6
REMARK VINA RESULT:      -6.6      2.396      6.392
REMARK  Name = 
REMARK  3 active torsions:
REMARK  status: ('A' for Active; 'I' for Inactive)
REMARK    1  A    between atoms: C_1  and  C_2
REMARK    2  A    between atoms: C_2  and  C_3
REMARK    3  A    between atoms: C_15  and  N_16
REMARK                            x       y       z     vdW  Elec       q    Type
REMARK                         _______ _______ _______ _____ _____    ______ ____
ROOT
ATOM      1  C   UNL     1       3.682   3.570  19.809  0.00  0.00    +0.000 C 
ATOM      2  C   UNL     1       2.753   4.378  19.273  0.00  0.00    +0.000 C 
ATOM      3  C   UNL     1       3.118   5.266  18.126  0.00  0.00    +0.000 C 
ATOM      4  C   UNL     1       3.242   4.328  16.874  0.00  0.00    +0.000 C 
ATOM      5  C   UNL     1       4.640   4.168  16.307  0.00  0.00    +0.000 A 
ATOM      6  N   UNL     1       4.738   3.699  15.044  0.00  0.00    +0.000 NA
ATOM      7  C   UNL     1       5.818   4.054  14.325  0.00  0.00    +0.000 A 
ATOM      8  C   UNL     1       6.035   3.535  13.055  0.00  0.00    +0.000 A 
ATOM      9  N   UNL     1       6.987   3.944  12.175  0.00  0.00    +0.000 NA
ATOM     10  C   UNL     1       7.776   4.948  12.589  0.00  0.00    +0.000 A 
ATOM     11  C   UNL     1       7.696   5.504  13.857  0.00  0.00    +0.000 A 
ATOM     12  C   UNL     1       6.732   5.019  14.776  0.00  0.00    +0.000 A 
ATOM     13  C   UNL     1       6.593   5.451  16.129  0.00  0.00    +0.000 A 
ATOM     14  C   UNL     1       5.678   4.786  16.971  0.00  0.00    +0.000 A 
ATOM     15  C   UNL     1       5.526   4.982  18.473  0.00  0.00    +0.000 C 
ATOM     16  C   UNL     1       5.148   3.672  19.314  0.00  0.00    +0.000 C 
ATOM     17  C   UNL     1       4.400   6.005  18.542  0.00  0.00    +0.000 C 
ENDROOT
BRANCH  13  18
ATOM     18  N   UNL     1       7.435   6.464  16.651  0.00  0.00    +0.000 N 
ATOM     19  H   UNL     1       8.387   6.394  16.301  0.00  0.00    +0.000 HD
ATOM     20  H   UNL     1       7.077   7.393  16.441  0.00  0.00    +0.000 HD
ENDBRANCH  13  18
BRANCH   1  22
ATOM     21  C   UNL     1       1.973   2.737  21.562  0.00  0.00    +0.000 C 
ATOM     22  C   UNL     1       3.306   2.512  20.836  0.00  0.00    +0.000 C 
ENDBRANCH   1  22
TORSDOF 2
ENDMDL
MODEL 7
REMARK VINA RESULT:      -6.5      2.611      5.746
REMARK  Name = 
REMARK  3 active torsions:
REMARK  status: ('A' for Active; 'I' for Inactive)
REMARK    1  A    between atoms: C_1  and  C_2
REMARK    2  A    between atoms: C_2  and  C_3
REMARK    3  A    between atoms: C_15  and  N_16
REMARK                            x       y       z     vdW  Elec       q    Type
REMARK                         _______ _______ _______ _____ _____    ______ ____
ROOT
ATOM      1  C   UNL     1       1.572   3.006  19.566  0.00  0.00    +0.000 C 
ATOM      2  C   UNL     1       2.197   2.135  18.758  0.00  0.00    +0.000 C 
ATOM      3  C   UNL     1       3.236   2.628  17.801  0.00  0.00    +0.000 C 
ATOM      4  C   UNL     1       4.500   2.964  18.669  0.00  0.00    +0.000 C 
ATOM      5  C   UNL     1       4.865   4.433  18.758  0.00  0.00    +0.000 A 
ATOM      6  N   UNL     1       6.121   4.728  19.158  0.00  0.00    +0.000 NA
ATOM      7  C   UNL     1       6.659   5.886  18.735  0.00  0.00    +0.000 A 
ATOM      8  C   UNL     1       7.907   6.302  19.180  0.00  0.00    +0.000 A 
ATOM      9  N   UNL     1       8.620   7.354  18.699  0.00  0.00    +0.000 NA
ATOM     10  C   UNL     1       8.048   8.039  17.695  0.00  0.00    +0.000 A 
ATOM     11  C   UNL     1       6.781   7.759  17.210  0.00  0.00    +0.000 A 
ATOM     12  C   UNL     1       6.034   6.691  17.769  0.00  0.00    +0.000 A 
ATOM     13  C   UNL     1       4.697   6.345  17.412  0.00  0.00    +0.000 A 
ATOM     14  C   UNL     1       4.029   5.343  18.147  0.00  0.00    +0.000 A 
ATOM     15  C   UNL     1       2.558   4.970  18.034  0.00  0.00    +0.000 C 
ATOM     16  C   UNL     1       1.844   4.523  19.397  0.00  0.00    +0.000 C 
ATOM     17  C   UNL     1       2.604   3.810  17.048  0.00  0.00    +0.000 C 
ENDROOT
BRANCH  13  18
ATOM     18  N   UNL     1       4.011   7.066  16.404  0.00  0.00    +0.000 N 
ATOM     19  H   UNL     1       3.847   6.505  15.572  0.00  0.00    +0.000 HD
ATOM     20  H   UNL     1       3.119   7.421  16.740  0.00  0.00    +0.000 HD
ENDBRANCH  13  18
BRANCH   1  22
ATOM     21  C   UNL     1       1.305   2.449  22.078  0.00  0.00    +0.000 C 
ATOM     22  C   UNL     1       0.661   2.524  20.687  0.00  0.00    +0.000 C 
ENDBRANCH   1  22
TORSDOF 2
ENDMDL
MODEL 8
REMARK VINA RESULT:      -6.2      3.513      5.306
REMARK  Name = 
REMARK  3 active torsions:
REMARK  status: ('A' for Active; 'I' for Inactive)
REMARK    1  A    between atoms: C_1  and  C_2
REMARK    2  A    between atoms: C_2  and  C_3
REMARK    3  A    between atoms: C_15  and  N_16
REMARK                            x       y       z     vdW  Elec       q    Type
REMARK                         _______ _______ _______ _____ _____    ______ ____
ROOT
ATOM      1  C   UNL     1       2.950   3.714  18.059  0.00  0.00    +0.000 C 
ATOM      2  C   UNL     1       4.036   4.031  18.780  0.00  0.00    +0.000 C 
ATOM      3  C   UNL     1       4.241   5.445  19.225  0.00  0.00    +0.000 C 
ATOM      4  C   UNL     1       3.213   5.688  20.385  0.00  0.00    +0.000 C 
ATOM      5  C   UNL     1       2.095   6.667  20.080  0.00  0.00    +0.000 A 
ATOM      6  N   UNL     1       1.432   7.186  21.136  0.00  0.00    +0.000 NA
ATOM      7  C   UNL     1       0.870   8.400  20.988  0.00  0.00    +0.000 A 
ATOM      8  C   UNL     1       0.092   8.957  21.995  0.00  0.00    +0.000 A 
ATOM      9  N   UNL     1      -0.380  10.231  22.031  0.00  0.00    +0.000 NA
ATOM     10  C   UNL     1      -0.047  11.009  20.988  0.00  0.00    +0.000 A 
ATOM     11  C   UNL     1       0.670  10.548  19.895  0.00  0.00    +0.000 A 
ATOM     12  C   UNL     1       1.101   9.198  19.856  0.00  0.00    +0.000 A 
ATOM     13  C   UNL     1       1.781   8.581  18.764  0.00  0.00    +0.000 A 
ATOM     14  C   UNL     1       2.030   7.193  18.807  0.00  0.00    +0.000 A 
ATOM     15  C   UNL     1       2.572   6.337  17.671  0.00  0.00    +0.000 C 
ATOM     16  C   UNL     1       1.998   4.843  17.588  0.00  0.00    +0.000 C 
ATOM     17  C   UNL     1       4.064   6.321  17.975  0.00  0.00    +0.000 C 
ENDROOT
BRANCH  13  18
ATOM     18  N   UNL     1       2.108   9.327  17.605  0.00  0.00    +0.000 N 
ATOM     19  H   UNL     1       2.533   8.752  16.883  0.00  0.00    +0.000 HD
ATOM     20  H   UNL     1       1.292   9.791  17.215  0.00  0.00    +0.000 HD
ENDBRANCH  13  18
BRANCH   1  22
ATOM     21  C   UNL     1       3.503   1.213  18.425  0.00  0.00    +0.000 C 
ATOM     22  C   UNL     1       2.601   2.262  17.761  0.00  0.00    +0.000 C 
ENDBRANCH   1  22
TORSDOF 2
ENDMDL
MODEL 9
REMARK VINA RESULT:      -6.0      9.203     11.540
REMARK  Name = 
REMARK  3 active torsions:
REMARK  status: ('A' for Active; 'I' for Inactive)
REMARK    1  A    between atoms: C_1  and  C_2
REMARK    2  A    between atoms: C_2  and  C_3
REMARK    3  A    between atoms: C_15  and  N_16
REMARK                            x       y       z     vdW  Elec       q    Type
REMARK                         _______ _______ _______ _____ _____    ______ ____
ROOT
ATOM      1  C   UNL     1       8.969  10.377  18.345  0.00  0.00    +0.000 C 
ATOM      2  C   UNL     1       9.547  10.267  19.552  0.00  0.00    +0.000 C 
ATOM      3  C   UNL     1      10.336  11.412  20.102  0.00  0.00    +0.000 C 
ATOM      4  C   UNL     1       9.286  12.494  20.535  0.00  0.00    +0.000 C 
ATOM      5  C   UNL     1       9.284  13.774  19.722  0.00  0.00    +0.000 A 
ATOM      6  N   UNL     1       8.687  14.851  20.278  0.00  0.00    +0.000 NA
ATOM      7  C   UNL     1       9.122  16.070  19.907  0.00  0.00    +0.000 A 
ATOM      8  C   UNL     1       8.494  17.223  20.362  0.00  0.00    +0.000 A 
ATOM      9  N   UNL     1       8.940  18.496  20.196  0.00  0.00    +0.000 NA
ATOM     10  C   UNL     1      10.101  18.628  19.534  0.00  0.00    +0.000 A 
ATOM     11  C   UNL     1      10.785  17.559  18.979  0.00  0.00    +0.000 A 
ATOM     12  C   UNL     1      10.268  16.246  19.116  0.00  0.00    +0.000 A 
ATOM     13  C   UNL     1      10.832  15.072  18.534  0.00  0.00    +0.000 A 
ATOM     14  C   UNL     1      10.136  13.851  18.641  0.00  0.00    +0.000 A 
ATOM     15  C   UNL     1      10.485  12.547  17.936  0.00  0.00    +0.000 C 
ATOM     16  C   UNL     1       9.243  11.640  17.489  0.00  0.00    +0.000 C 
ATOM     17  C   UNL     1      11.316  11.833  18.994  0.00  0.00    +0.000 C 
ENDROOT
BRANCH  13  18
ATOM     18  N   UNL     1      12.023  15.149  17.769  0.00  0.00    +0.000 N 
ATOM     19  H   UNL     1      12.759  15.658  18.251  0.00  0.00    +0.000 HD
ATOM     20  H   UNL     1      12.370  14.225  17.525  0.00  0.00    +0.000 HD
ENDBRANCH  13  18
BRANCH   1  22
ATOM     21  C   UNL     1       8.243   7.894  18.347  0.00  0.00    +0.000 C 
ATOM     22  C   UNL     1       7.996   9.321  17.840  0.00  0.00    +0.000 C 
ENDBRANCH   1  22
TORSDOF 2
ENDMDL
