MODEL 1
REMARK VINA RESULT:      -7.5      0.000      0.000
REMARK  Name = 
REMARK  10 active torsions:
REMARK  status: ('A' for Active; 'I' for Inactive)
REMARK    1  A    between atoms: C_1  and  C_2
REMARK    2  A    between atoms: C_2  and  C_3
REMARK    3  A    between atoms: C_2  and  O_4
REMARK    4  A    between atoms: O_4  and  C_5
REMARK    5  A    between atoms: C_7  and  C_8
REMARK    6  A    between atoms: C_8  and  N_9
REMARK    7  A    between atoms: N_9  and  C_21
REMARK    8  A    between atoms: C_10  and  C_12
REMARK    9  A    between atoms: N_15  and  C_16
REMARK   10  A    between atoms: C_16  and  C_17
REMARK                            x       y       z     vdW  Elec       q    Type
REMARK                         _______ _______ _______ _____ _____    ______ ____
ROOT
ATOM      1  N   UNL     1       2.999   4.819  18.284  0.00  0.00    +0.000 N 
ATOM      2  C   UNL     1       3.193   6.227  18.048  0.00  0.00    +0.000 C 
ATOM      3  O   UNL     1       3.891   6.663  17.139  0.00  0.00    +0.000 OA
ENDROOT
BRANCH   2   4
ATOM      4  C   UNL     1       2.386   7.177  18.924  0.00  0.00    +0.000 A 
ATOM      5  C   UNL     1       2.133   7.119  20.324  0.00  0.00    +0.000 A 
ATOM      6  C   UNL     1       1.493   8.304  20.639  0.00  0.00    +0.000 A 
ATOM      7  N   UNL     1       1.341   8.967  19.459  0.00  0.00    +0.000 N 
ATOM      8  N   UNL     1       1.829   8.288  18.410  0.00  0.00    +0.000 NA
BRANCH   7   9
ATOM      9  C   UNL     1       0.842  10.309  19.255  0.00  0.00    +0.000 C 
BRANCH   9  10
ATOM     10  C   UNL     1      -0.657  10.339  19.069  0.00  0.00    +0.000 C 
ATOM     11  F   UNL     1      -1.118  11.618  19.125  0.00  0.00    +0.000 F 
ATOM     12  F   UNL     1      -0.957   9.889  17.820  0.00  0.00    +0.000 F 
ENDBRANCH   9  10
ENDBRANCH   7   9
ENDBRANCH   2   4
BRANCH   1  13
ATOM     13  C   UNL     1       1.735   4.440  18.919  0.00  0.00    +0.000 C 
ATOM     14  C   UNL     1       1.038   3.117  18.902  0.00  0.00    +0.000 C 
ATOM     15  C   UNL     1       1.775   3.536  20.131  0.00  0.00    +0.000 C 
ENDBRANCH   1  13
BRANCH   1  16
ATOM     16  C   UNL     1       3.660   3.804  17.378  0.00  0.00    +0.000 C 
BRANCH  16  19
ATOM     17  C   UNL     1       6.536   4.549  14.808  0.00  0.00    +0.000 A 
ATOM     18  C   UNL     1       5.254   4.270  15.355  0.00  0.00    +0.000 A 
ATOM     19  C   UNL     1       5.049   4.113  16.765  0.00  0.00    +0.000 A 
ATOM     20  C   UNL     1       6.165   4.350  17.559  0.00  0.00    +0.000 A 
ATOM     21  C   UNL     1       7.377   4.684  16.941  0.00  0.00    +0.000 A 
ATOM     22  N   UNL     1       7.594   4.777  15.596  0.00  0.00    +0.000 NA
BRANCH  17  23
ATOM     23  O   UNL     1       6.698   4.421  13.426  0.00  0.00    +0.000 OA
BRANCH  23  25
ATOM     24  C   UNL     1       4.834   3.541  11.921  0.00  0.00    +0.000 C 
ATOM     25  C   UNL     1       6.145   3.300  12.683  0.00  0.00    +0.000 C 
ATOM     26  C   UNL     1       7.164   2.905  11.578  0.00  0.00    +0.000 C 
ENDBRANCH  23  25
ENDBRANCH  17  23
ENDBRANCH  16  19
ENDBRANCH   1  16
TORSDOF 8
ENDMDL
MODEL 2
REMARK VINA RESULT:      -7.4      0.997      1.242
REMARK  Name = 
REMARK  10 active torsions:
REMARK  status: ('A' for Active; 'I' for Inactive)
REMARK    1  A    between atoms: C_1  and  C_2
REMARK    2  A    between atoms: C_2  and  C_3
REMARK    3  A    between atoms: C_2  and  O_4
REMARK    4  A    between atoms: O_4  and  C_5
REMARK    5  A    between atoms: C_7  and  C_8
REMARK    6  A    between atoms: C_8  and  N_9
REMARK    7  A    between atoms: N_9  and  C_21
REMARK    8  A    between atoms: C_10  and  C_12
REMARK    9  A    between atoms: N_15  and  C_16
REMARK   10  A    between atoms: C_16  and  C_17
REMARK                            x       y       z     vdW  Elec       q    Type
REMARK                         _______ _______ _______ _____ _____    ______ ____
ROOT
ATOM      1  N   UNL     1       2.861   5.250  18.738  0.00  0.00    +0.000 N 
ATOM      2  C   UNL     1       2.989   6.611  18.282  0.00  0.00    +0.000 C 
ATOM      3  O   UNL     1       3.650   6.929  17.301  0.00  0.00    +0.000 OA
ENDROOT
BRANCH   2   4
ATOM      4  C   UNL     1       2.156   7.651  19.021  0.00  0.00    +0.000 A 
ATOM      5  C   UNL     1       1.893   7.773  20.415  0.00  0.00    +0.000 A 
ATOM      6  C   UNL     1       1.227   8.976  20.567  0.00  0.00    +0.000 A 
ATOM      7  N   UNL     1       1.071   9.474  19.310  0.00  0.00    +0.000 N 
ATOM      8  N   UNL     1       1.581   8.673  18.362  0.00  0.00    +0.000 NA
BRANCH   7   9
ATOM      9  C   UNL     1       0.548  10.767  18.928  0.00  0.00    +0.000 C 
BRANCH   9  10
ATOM     10  C   UNL     1      -0.876  10.683  18.428  0.00  0.00    +0.000 C 
ATOM     11  F   UNL     1      -0.912  10.140  17.182  0.00  0.00    +0.000 F 
ATOM     12  F   UNL     1      -1.574   9.830  19.227  0.00  0.00    +0.000 F 
ENDBRANCH   9  10
ENDBRANCH   7   9
ENDBRANCH   2   4
BRANCH   1  13
ATOM     13  C   UNL     1       1.627   4.922  19.454  0.00  0.00    +0.000 C 
ATOM     14  C   UNL     1       1.014   3.580  19.699  0.00  0.00    +0.000 C 
ATOM     15  C   UNL     1       1.730   4.269  20.814  0.00  0.00    +0.000 C 
ENDBRANCH   1  13
BRANCH   1  16
ATOM     16  C   UNL     1       3.550   4.134  17.983  0.00  0.00    +0.000 C 
BRANCH  16  19
ATOM     17  C   UNL     1       6.887   4.340  15.920  0.00  0.00    +0.000 A 
ATOM     18  C   UNL     1       5.510   4.214  16.250  0.00  0.00    +0.000 A 
ATOM     19  C   UNL     1       5.046   4.274  17.604  0.00  0.00    +0.000 A 
ATOM     20  C   UNL     1       6.018   4.563  18.555  0.00  0.00    +0.000 A 
ATOM     21  C   UNL     1       7.344   4.736  18.136  0.00  0.00    +0.000 A 
ATOM     22  N   UNL     1       7.803   4.621  16.855  0.00  0.00    +0.000 NA
BRANCH  17  23
ATOM     23  O   UNL     1       7.281   4.004  14.623  0.00  0.00    +0.000 OA
BRANCH  23  25
ATOM     24  C   UNL     1       7.580   5.243  12.412  0.00  0.00    +0.000 C 
ATOM     25  C   UNL     1       6.656   4.589  13.447  0.00  0.00    +0.000 C 
ATOM     26  C   UNL     1       5.946   3.450  12.662  0.00  0.00    +0.000 C 
ENDBRANCH  23  25
ENDBRANCH  17  23
ENDBRANCH  16  19
ENDBRANCH   1  16
TORSDOF 8
ENDMDL
MODEL 3
REMARK VINA RESULT:      -7.3      1.596      2.013
REMARK  Name = 
REMARK  10 active torsions:
REMARK  status: ('A' for Active; 'I' for Inactive)
REMARK    1  A    between atoms: C_1  and  C_2
REMARK    2  A    between atoms: C_2  and  C_3
REMARK    3  A    between atoms: C_2  and  O_4
REMARK    4  A    between atoms: O_4  and  C_5
REMARK    5  A    between atoms: C_7  and  C_8
REMARK    6  A    between atoms: C_8  and  N_9
REMARK    7  A    between atoms: N_9  and  C_21
REMARK    8  A    between atoms: C_10  and  C_12
REMARK    9  A    between atoms: N_15  and  C_16
REMARK   10  A    between atoms: C_16  and  C_17
REMARK                            x       y       z     vdW  Elec       q    Type
REMARK                         _______ _______ _______ _____ _____    ______ ____
ROOT
ATOM      1  N   UNL     1       2.622   6.329  18.973  0.00  0.00    +0.000 N 
ATOM      2  C   UNL     1       2.338   7.722  18.740  0.00  0.00    +0.000 C 
ATOM      3  O   UNL     1       2.591   8.291  17.685  0.00  0.00    +0.000 OA
ENDROOT
BRANCH   2   4
ATOM      4  C   UNL     1       1.586   8.452  19.847  0.00  0.00    +0.000 A 
ATOM      5  C   UNL     1       1.553   8.183  21.245  0.00  0.00    +0.000 A 
ATOM      6  C   UNL     1       0.859   9.237  21.813  0.00  0.00    +0.000 A 
ATOM      7  N   UNL     1       0.469  10.026  20.774  0.00  0.00    +0.000 N 
ATOM      8  N   UNL     1       0.855   9.549  19.581  0.00  0.00    +0.000 NA
BRANCH   7   9
ATOM      9  C   UNL     1      -0.179  11.317  20.836  0.00  0.00    +0.000 C 
BRANCH   9  10
ATOM     10  C   UNL     1      -1.221  11.486  19.756  0.00  0.00    +0.000 C 
ATOM     11  F   UNL     1      -2.398  11.907  20.292  0.00  0.00    +0.000 F 
ATOM     12  F   UNL     1      -0.823  12.474  18.908  0.00  0.00    +0.000 F 
ENDBRANCH   9  10
ENDBRANCH   7   9
ENDBRANCH   2   4
BRANCH   1  13
ATOM     13  C   UNL     1       1.755   5.644  19.933  0.00  0.00    +0.000 C 
ATOM     14  C   UNL     1       1.316   4.215  19.947  0.00  0.00    +0.000 C 
ATOM     15  C   UNL     1       2.378   4.660  20.899  0.00  0.00    +0.000 C 
ENDBRANCH   1  13
BRANCH   1  16
ATOM     16  C   UNL     1       3.250   5.495  17.877  0.00  0.00    +0.000 C 
BRANCH  16  19
ATOM     17  C   UNL     1       6.932   5.011  16.594  0.00  0.00    +0.000 A 
ATOM     18  C   UNL     1       5.521   5.181  16.613  0.00  0.00    +0.000 A 
ATOM     19  C   UNL     1       4.788   5.314  17.838  0.00  0.00    +0.000 A 
ATOM     20  C   UNL     1       5.562   5.365  18.992  0.00  0.00    +0.000 A 
ATOM     21  C   UNL     1       6.955   5.255  18.878  0.00  0.00    +0.000 A 
ATOM     22  N   UNL     1       7.654   5.067  17.721  0.00  0.00    +0.000 NA
BRANCH  17  23
ATOM     23  O   UNL     1       7.527   4.622  15.392  0.00  0.00    +0.000 OA
BRANCH  23  25
ATOM     24  C   UNL     1       7.959   5.265  12.960  0.00  0.00    +0.000 C 
ATOM     25  C   UNL     1       6.969   4.986  14.099  0.00  0.00    +0.000 C 
ATOM     26  C   UNL     1       6.122   3.787  13.586  0.00  0.00    +0.000 C 
ENDBRANCH  23  25
ENDBRANCH  17  23
ENDBRANCH  16  19
ENDBRANCH   1  16
TORSDOF 8
ENDMDL
MODEL 4
REMARK VINA RESULT:      -7.3      1.941      2.358
REMARK  Name = 
REMARK  10 active torsions:
REMARK  status: ('A' for Active; 'I' for Inactive)
REMARK    1  A    between atoms: C_1  and  C_2
REMARK    2  A    between atoms: C_2  and  C_3
REMARK    3  A    between atoms: C_2  and  O_4
REMARK    4  A    between atoms: O_4  and  C_5
REMARK    5  A    between atoms: C_7  and  C_8
REMARK    6  A    between atoms: C_8  and  N_9
REMARK    7  A    between atoms: N_9  and  C_21
REMARK    8  A    between atoms: C_10  and  C_12
REMARK    9  A    between atoms: N_15  and  C_16
REMARK   10  A    between atoms: C_16  and  C_17
REMARK                            x       y       z     vdW  Elec       q    Type
REMARK                         _______ _______ _______ _____ _____    ______ ____
ROOT
ATOM      1  N   UNL     1       2.811   5.431  19.130  0.00  0.00    +0.000 N 
ATOM      2  C   UNL     1       2.831   6.771  18.602  0.00  0.00    +0.000 C 
ATOM      3  O   UNL     1       3.401   7.072  17.560  0.00  0.00    +0.000 OA
ENDROOT
BRANCH   2   4
ATOM      4  C   UNL     1       1.997   7.805  19.349  0.00  0.00    +0.000 A 
ATOM      5  C   UNL     1       1.544   9.083  18.917  0.00  0.00    +0.000 A 
ATOM      6  C   UNL     1       0.694   9.535  19.911  0.00  0.00    +0.000 A 
ATOM      7  N   UNL     1       0.718   8.581  20.881  0.00  0.00    +0.000 N 
ATOM      8  N   UNL     1       1.530   7.554  20.586  0.00  0.00    +0.000 NA
BRANCH   7   9
ATOM      9  C   UNL     1      -0.093   8.511  22.076  0.00  0.00    +0.000 C 
BRANCH   9  10
ATOM     10  C   UNL     1       0.004   9.770  22.907  0.00  0.00    +0.000 C 
ATOM     11  F   UNL     1      -1.168  10.460  22.863  0.00  0.00    +0.000 F 
ATOM     12  F   UNL     1       0.187   9.426  24.211  0.00  0.00    +0.000 F 
ENDBRANCH   9  10
ENDBRANCH   7   9
ENDBRANCH   2   4
BRANCH   1  13
ATOM     13  C   UNL     1       1.652   5.078  19.951  0.00  0.00    +0.000 C 
ATOM     14  C   UNL     1       0.935   3.768  20.047  0.00  0.00    +0.000 C 
ATOM     15  C   UNL     1       1.858   4.177  21.148  0.00  0.00    +0.000 C 
ENDBRANCH   1  13
BRANCH   1  16
ATOM     16  C   UNL     1       3.506   4.315  18.381  0.00  0.00    +0.000 C 
BRANCH  16  19
ATOM     17  C   UNL     1       6.783   4.462  16.220  0.00  0.00    +0.000 A 
ATOM     18  C   UNL     1       5.421   4.307  16.598  0.00  0.00    +0.000 A 
ATOM     19  C   UNL     1       4.984   4.484  17.951  0.00  0.00    +0.000 A 
ATOM     20  C   UNL     1       5.962   4.911  18.842  0.00  0.00    +0.000 A 
ATOM     21  C   UNL     1       7.269   5.102  18.373  0.00  0.00    +0.000 A 
ATOM     22  N   UNL     1       7.705   4.878  17.098  0.00  0.00    +0.000 NA
BRANCH  17  23
ATOM     23  O   UNL     1       7.165   4.014  14.954  0.00  0.00    +0.000 OA
BRANCH  23  25
ATOM     24  C   UNL     1       7.765   5.261  12.810  0.00  0.00    +0.000 C 
ATOM     25  C   UNL     1       6.700   4.654  13.733  0.00  0.00    +0.000 C 
ATOM     26  C   UNL     1       6.003   3.575  12.858  0.00  0.00    +0.000 C 
ENDBRANCH  23  25
ENDBRANCH  17  23
ENDBRANCH  16  19
ENDBRANCH   1  16
TORSDOF 8
ENDMDL
MODEL 5
REMARK VINA RESULT:      -7.3      3.994      7.886
REMARK  Name = 
REMARK  10 active torsions:
REMARK  status: ('A' for Active; 'I' for Inactive)
REMARK    1  A    between atoms: C_1  and  C_2
REMARK    2  A    between atoms: C_2  and  C_3
REMARK    3  A    between atoms: C_2  and  O_4
REMARK    4  A    between atoms: O_4  and  C_5
REMARK    5  A    between atoms: C_7  and  C_8
REMARK    6  A    between atoms: C_8  and  N_9
REMARK    7  A    between atoms: N_9  and  C_21
REMARK    8  A    between atoms: C_10  and  C_12
REMARK    9  A    between atoms: N_15  and  C_16
REMARK   10  A    between atoms: C_16  and  C_17
REMARK                            x       y       z     vdW  Elec       q    Type
REMARK                         _______ _______ _______ _____ _____    ______ ____
ROOT
ATOM      1  N   UNL     1       2.504   7.779  18.584  0.00  0.00    +0.000 N 
ATOM      2  C   UNL     1       3.356   6.875  17.854  0.00  0.00    +0.000 C 
ATOM      3  O   UNL     1       3.952   7.193  16.832  0.00  0.00    +0.000 OA
ENDROOT
BRANCH   2   4
ATOM      4  C   UNL     1       3.584   5.505  18.484  0.00  0.00    +0.000 A 
ATOM      5  C   UNL     1       4.719   5.012  19.187  0.00  0.00    +0.000 A 
ATOM      6  C   UNL     1       4.343   3.778  19.687  0.00  0.00    +0.000 A 
ATOM      7  N   UNL     1       3.078   3.565  19.233  0.00  0.00    +0.000 N 
ATOM      8  N   UNL     1       2.618   4.568  18.470  0.00  0.00    +0.000 NA
BRANCH   7   9
ATOM      9  C   UNL     1       2.185   2.479  19.573  0.00  0.00    +0.000 C 
BRANCH   9  10
ATOM     10  C   UNL     1       1.229   2.851  20.682  0.00  0.00    +0.000 C 
ATOM     11  F   UNL     1       1.867   3.582  21.636  0.00  0.00    +0.000 F 
ATOM     12  F   UNL     1       0.260   3.661  20.177  0.00  0.00    +0.000 F 
ENDBRANCH   9  10
ENDBRANCH   7   9
ENDBRANCH   2   4
BRANCH   1  13
ATOM     13  C   UNL     1       2.379   7.531  20.021  0.00  0.00    +0.000 C 
ATOM     14  C   UNL     1       1.455   8.174  21.006  0.00  0.00    +0.000 C 
ATOM     15  C   UNL     1       1.161   6.791  20.526  0.00  0.00    +0.000 C 
ENDBRANCH   1  13
BRANCH   1  16
ATOM     16  C   UNL     1       2.324   9.201  18.100  0.00  0.00    +0.000 C 
BRANCH  16  19
ATOM     17  C   UNL     1      -1.457  10.263  18.171  0.00  0.00    +0.000 A 
ATOM     18  C   UNL     1      -0.260   9.555  17.878  0.00  0.00    +0.000 A 
ATOM     19  C   UNL     1       1.009   9.957  18.411  0.00  0.00    +0.000 A 
ATOM     20  C   UNL     1       0.968  11.020  19.307  0.00  0.00    +0.000 A 
ATOM     21  C   UNL     1      -0.266  11.621  19.590  0.00  0.00    +0.000 A 
ATOM     22  N   UNL     1      -1.468  11.282  19.040  0.00  0.00    +0.000 NA
BRANCH  17  23
ATOM     23  O   UNL     1      -2.590   9.974  17.406  0.00  0.00    +0.000 OA
BRANCH  23  25
ATOM     24  C   UNL     1      -3.025  10.129  14.896  0.00  0.00    +0.000 C 
ATOM     25  C   UNL     1      -2.993  10.797  16.277  0.00  0.00    +0.000 C 
ATOM     26  C   UNL     1      -4.459  11.257  16.515  0.00  0.00    +0.000 C 
ENDBRANCH  23  25
ENDBRANCH  17  23
ENDBRANCH  16  19
ENDBRANCH   1  16
TORSDOF 8
ENDMDL
MODEL 6
REMARK VINA RESULT:      -7.2      1.616      1.982
REMARK  Name = 
REMARK  10 active torsions:
REMARK  status: ('A' for Active; 'I' for Inactive)
REMARK    1  A    between atoms: C_1  and  C_2
REMARK    2  A    between atoms: C_2  and  C_3
REMARK    3  A    between atoms: C_2  and  O_4
REMARK    4  A    between atoms: O_4  and  C_5
REMARK    5  A    between atoms: C_7  and  C_8
REMARK    6  A    between atoms: C_8  and  N_9
REMARK    7  A    between atoms: N_9  and  C_21
REMARK    8  A    between atoms: C_10  and  C_12
REMARK    9  A    between atoms: N_15  and  C_16
REMARK   10  A    between atoms: C_16  and  C_17
REMARK                            x       y       z     vdW  Elec       q    Type
REMARK                         _______ _______ _______ _____ _____    ______ ____
ROOT
ATOM      1  N   UNL     1       2.631   6.163  19.161  0.00  0.00    +0.000 N 
ATOM      2  C   UNL     1       2.404   7.541  18.809  0.00  0.00    +0.000 C 
ATOM      3  O   UNL     1       2.705   8.013  17.719  0.00  0.00    +0.000 OA
ENDROOT
BRANCH   2   4
ATOM      4  C   UNL     1       1.652   8.385  19.832  0.00  0.00    +0.000 A 
ATOM      5  C   UNL     1       1.387   8.115  21.205  0.00  0.00    +0.000 A 
ATOM      6  C   UNL     1       0.819   9.271  21.711  0.00  0.00    +0.000 A 
ATOM      7  N   UNL     1       0.716  10.125  20.656  0.00  0.00    +0.000 N 
ATOM      8  N   UNL     1       1.168   9.597  19.508  0.00  0.00    +0.000 NA
BRANCH   7   9
ATOM      9  C   UNL     1       0.303  11.510  20.675  0.00  0.00    +0.000 C 
BRANCH   9  10
ATOM     10  C   UNL     1      -1.124  11.688  20.211  0.00  0.00    +0.000 C 
ATOM     11  F   UNL     1      -1.552  10.578  19.552  0.00  0.00    +0.000 F 
ATOM     12  F   UNL     1      -1.930  11.810  21.300  0.00  0.00    +0.000 F 
ENDBRANCH   9  10
ENDBRANCH   7   9
ENDBRANCH   2   4
BRANCH   1  13
ATOM     13  C   UNL     1       1.716   5.589  20.149  0.00  0.00    +0.000 C 
ATOM     14  C   UNL     1       1.137   4.211  20.201  0.00  0.00    +0.000 C 
ATOM     15  C   UNL     1       2.252   4.569  21.128  0.00  0.00    +0.000 C 
ENDBRANCH   1  13
BRANCH   1  16
ATOM     16  C   UNL     1       3.256   5.221  18.155  0.00  0.00    +0.000 C 
BRANCH  16  19
ATOM     17  C   UNL     1       6.765   5.666  16.447  0.00  0.00    +0.000 A 
ATOM     18  C   UNL     1       5.359   5.638  16.654  0.00  0.00    +0.000 A 
ATOM     19  C   UNL     1       4.785   5.262  17.912  0.00  0.00    +0.000 A 
ATOM     20  C   UNL     1       5.696   5.026  18.936  0.00  0.00    +0.000 A 
ATOM     21  C   UNL     1       7.066   5.139  18.662  0.00  0.00    +0.000 A 
ATOM     22  N   UNL     1       7.621   5.437  17.451  0.00  0.00    +0.000 NA
BRANCH  17  23
ATOM     23  O   UNL     1       7.230   5.779  15.134  0.00  0.00    +0.000 OA
BRANCH  23  25
ATOM     24  C   UNL     1       5.914   3.987  13.881  0.00  0.00    +0.000 C 
ATOM     25  C   UNL     1       7.257   4.646  14.223  0.00  0.00    +0.000 C 
ATOM     26  C   UNL     1       7.800   5.142  12.853  0.00  0.00    +0.000 C 
ENDBRANCH  23  25
ENDBRANCH  17  23
ENDBRANCH  16  19
ENDBRANCH   1  16
TORSDOF 8
ENDMDL
MODEL 7
REMARK VINA RESULT:      -7.2      3.872      8.561
REMARK  Name = 
REMARK  10 active torsions:
REMARK  status: ('A' for Active; 'I' for Inactive)
REMARK    1  A    between atoms: C_1  and  C_2
REMARK    2  A    between atoms: C_2  and  C_3
REMARK    3  A    between atoms: C_2  and  O_4
REMARK    4  A    between atoms: O_4  and  C_5
REMARK    5  A    between atoms: C_7  and  C_8
REMARK    6  A    between atoms: C_8  and  N_9
REMARK    7  A    between atoms: N_9  and  C_21
REMARK    8  A    between atoms: C_10  and  C_12
REMARK    9  A    between atoms: N_15  and  C_16
REMARK   10  A    between atoms: C_16  and  C_17
REMARK                            x       y       z     vdW  Elec       q    Type
REMARK                         _______ _______ _______ _____ _____    ______ ____
ROOT
ATOM      1  N   UNL     1       3.811   5.502  18.132  0.00  0.00    +0.000 N 
ATOM      2  C   UNL     1       4.982   6.079  17.522  0.00  0.00    +0.000 C 
ATOM      3  O   UNL     1       5.516   7.103  17.933  0.00  0.00    +0.000 OA
ENDROOT
BRANCH   2   4
ATOM      4  C   UNL     1       5.614   5.283  16.386  0.00  0.00    +0.000 A 
ATOM      5  C   UNL     1       6.741   4.414  16.410  0.00  0.00    +0.000 A 
ATOM      6  C   UNL     1       6.786   3.824  15.160  0.00  0.00    +0.000 A 
ATOM      7  N   UNL     1       5.768   4.384  14.450  0.00  0.00    +0.000 N 
ATOM      8  N   UNL     1       5.080   5.296  15.151  0.00  0.00    +0.000 NA
BRANCH   7   9
ATOM      9  C   UNL     1       5.308   4.023  13.127  0.00  0.00    +0.000 C 
BRANCH   9  10
ATOM     10  C   UNL     1       6.342   3.237  12.356  0.00  0.00    +0.000 C 
ATOM     11  F   UNL     1       5.742   2.437  11.434  0.00  0.00    +0.000 F 
ATOM     12  F   UNL     1       7.120   4.102  11.651  0.00  0.00    +0.000 F 
ENDBRANCH   9  10
ENDBRANCH   7   9
ENDBRANCH   2   4
BRANCH   1  13
ATOM     13  C   UNL     1       3.657   4.053  17.992  0.00  0.00    +0.000 C 
ATOM     14  C   UNL     1       2.669   3.147  18.654  0.00  0.00    +0.000 C 
ATOM     15  C   UNL     1       2.469   3.522  17.222  0.00  0.00    +0.000 C 
ENDBRANCH   1  13
BRANCH   1  16
ATOM     16  C   UNL     1       3.194   6.158  19.348  0.00  0.00    +0.000 C 
BRANCH  16  19
ATOM     17  C   UNL     1       0.998   9.324  20.115  0.00  0.00    +0.000 A 
ATOM     18  C   UNL     1       1.791   8.157  20.290  0.00  0.00    +0.000 A 
ATOM     19  C   UNL     1       2.332   7.434  19.177  0.00  0.00    +0.000 A 
ATOM     20  C   UNL     1       2.111   8.007  17.930  0.00  0.00    +0.000 A 
ATOM     21  C   UNL     1       1.373   9.196  17.852  0.00  0.00    +0.000 A 
ATOM     22  N   UNL     1       0.803   9.857  18.902  0.00  0.00    +0.000 NA
BRANCH  17  23
ATOM     23  O   UNL     1       0.294   9.807  21.221  0.00  0.00    +0.000 OA
BRANCH  23  25
ATOM     24  C   UNL     1      -1.324  11.395  22.392  0.00  0.00    +0.000 C 
ATOM     25  C   UNL     1      -0.438  11.063  21.184  0.00  0.00    +0.000 C 
ATOM     26  C   UNL     1       0.598  12.222  21.138  0.00  0.00    +0.000 C 
ENDBRANCH  23  25
ENDBRANCH  17  23
ENDBRANCH  16  19
ENDBRANCH   1  16
TORSDOF 8
ENDMDL
MODEL 8
REMARK VINA RESULT:      -7.2      1.646      2.039
REMARK  Name = 
REMARK  10 active torsions:
REMARK  status: ('A' for Active; 'I' for Inactive)
REMARK    1  A    between atoms: C_1  and  C_2
REMARK    2  A    between atoms: C_2  and  C_3
REMARK    3  A    between atoms: C_2  and  O_4
REMARK    4  A    between atoms: O_4  and  C_5
REMARK    5  A    between atoms: C_7  and  C_8
REMARK    6  A    between atoms: C_8  and  N_9
REMARK    7  A    between atoms: N_9  and  C_21
REMARK    8  A    between atoms: C_10  and  C_12
REMARK    9  A    between atoms: N_15  and  C_16
REMARK   10  A    between atoms: C_16  and  C_17
REMARK                            x       y       z     vdW  Elec       q    Type
REMARK                         _______ _______ _______ _____ _____    ______ ____
ROOT
ATOM      1  N   UNL     1       2.665   5.880  19.302  0.00  0.00    +0.000 N 
ATOM      2  C   UNL     1       2.498   7.247  18.879  0.00  0.00    +0.000 C 
ATOM      3  O   UNL     1       2.860   7.658  17.783  0.00  0.00    +0.000 OA
ENDROOT
BRANCH   2   4
ATOM      4  C   UNL     1       1.732   8.160  19.829  0.00  0.00    +0.000 A 
ATOM      5  C   UNL     1       1.674   8.139  21.251  0.00  0.00    +0.000 A 
ATOM      6  C   UNL     1       0.975   9.276  21.615  0.00  0.00    +0.000 A 
ATOM      7  N   UNL     1       0.607   9.873  20.448  0.00  0.00    +0.000 N 
ATOM      8  N   UNL     1       1.011   9.196  19.363  0.00  0.00    +0.000 NA
BRANCH   7   9
ATOM      9  C   UNL     1      -0.035  11.157  20.274  0.00  0.00    +0.000 C 
BRANCH   9  10
ATOM     10  C   UNL     1       0.957  12.255  19.967  0.00  0.00    +0.000 C 
ATOM     11  F   UNL     1       1.865  12.372  20.972  0.00  0.00    +0.000 F 
ATOM     12  F   UNL     1       1.668  11.911  18.859  0.00  0.00    +0.000 F 
ENDBRANCH   9  10
ENDBRANCH   7   9
ENDBRANCH   2   4
BRANCH   1  13
ATOM     13  C   UNL     1       1.690   5.382  20.274  0.00  0.00    +0.000 C 
ATOM     14  C   UNL     1       1.082   4.019  20.377  0.00  0.00    +0.000 C 
ATOM     15  C   UNL     1       2.157   4.413  21.337  0.00  0.00    +0.000 C 
ENDBRANCH   1  13
BRANCH   1  16
ATOM     16  C   UNL     1       3.300   4.874  18.368  0.00  0.00    +0.000 C 
BRANCH  16  19
ATOM     17  C   UNL     1       6.751   4.793  16.493  0.00  0.00    +0.000 A 
ATOM     18  C   UNL     1       5.357   4.711  16.757  0.00  0.00    +0.000 A 
ATOM     19  C   UNL     1       4.816   4.963  18.060  0.00  0.00    +0.000 A 
ATOM     20  C   UNL     1       5.733   5.388  19.015  0.00  0.00    +0.000 A 
ATOM     21  C   UNL     1       7.082   5.504  18.652  0.00  0.00    +0.000 A 
ATOM     22  N   UNL     1       7.614   5.207  17.430  0.00  0.00    +0.000 NA
BRANCH  17  23
ATOM     23  O   UNL     1       7.218   4.275  15.282  0.00  0.00    +0.000 OA
BRANCH  23  25
ATOM     24  C   UNL     1       7.945   5.320  13.071  0.00  0.00    +0.000 C 
ATOM     25  C   UNL     1       6.824   4.833  13.999  0.00  0.00    +0.000 C 
ATOM     26  C   UNL     1       6.112   3.716  13.186  0.00  0.00    +0.000 C 
ENDBRANCH  23  25
ENDBRANCH  17  23
ENDBRANCH  16  19
ENDBRANCH   1  16
TORSDOF 8
ENDMDL
MODEL 9
REMARK VINA RESULT:      -7.2      4.285      9.340
REMARK  Name = 
REMARK  10 active torsions:
REMARK  status: ('A' for Active; 'I' for Inactive)
REMARK    1  A    between atoms: C_1  and  C_2
REMARK    2  A    between atoms: C_2  and  C_3
REMARK    3  A    between atoms: C_2  and  O_4
REMARK    4  A    between atoms: O_4  and  C_5
REMARK    5  A    between atoms: C_7  and  C_8
REMARK    6  A    between atoms: C_8  and  N_9
REMARK    7  A    between atoms: N_9  and  C_21
REMARK    8  A    between atoms: C_10  and  C_12
REMARK    9  A    between atoms: N_15  and  C_16
REMARK   10  A    between atoms: C_16  and  C_17
REMARK                            x       y       z     vdW  Elec       q    Type
REMARK                         _______ _______ _______ _____ _____    ______ ____
ROOT
ATOM      1  N   UNL     1       1.584   8.663  19.067  0.00  0.00    +0.000 N 
ATOM      2  C   UNL     1       2.363   7.918  18.111  0.00  0.00    +0.000 C 
ATOM      3  O   UNL     1       2.792   8.405  17.072  0.00  0.00    +0.000 OA
ENDROOT
BRANCH   2   4
ATOM      4  C   UNL     1       2.737   6.495  18.508  0.00  0.00    +0.000 A 
ATOM      5  C   UNL     1       3.836   6.035  19.288  0.00  0.00    +0.000 A 
ATOM      6  C   UNL     1       3.616   4.683  19.484  0.00  0.00    +0.000 A 
ATOM      7  N   UNL     1       2.480   4.389  18.794  0.00  0.00    +0.000 N 
ATOM      8  N   UNL     1       1.960   5.452  18.163  0.00  0.00    +0.000 NA
BRANCH   7   9
ATOM      9  C   UNL     1       1.752   3.139  18.777  0.00  0.00    +0.000 C 
BRANCH   9  10
ATOM     10  C   UNL     1       0.870   2.975  19.992  0.00  0.00    +0.000 C 
ATOM     11  F   UNL     1       1.591   2.503  21.044  0.00  0.00    +0.000 F 
ATOM     12  F   UNL     1       0.410   4.197  20.373  0.00  0.00    +0.000 F 
ENDBRANCH   9  10
ENDBRANCH   7   9
ENDBRANCH   2   4
BRANCH   1  13
ATOM     13  C   UNL     1       1.676   8.221  20.460  0.00  0.00    +0.000 C 
ATOM     14  C   UNL     1       1.311   8.965  21.705  0.00  0.00    +0.000 C 
ATOM     15  C   UNL     1       0.400   7.893  21.203  0.00  0.00    +0.000 C 
ENDBRANCH   1  13
BRANCH   1  16
ATOM     16  C   UNL     1       1.275  10.123  18.814  0.00  0.00    +0.000 C 
BRANCH  16  19
ATOM     17  C   UNL     1      -2.056  12.060  19.576  0.00  0.00    +0.000 A 
ATOM     18  C   UNL     1      -0.700  11.638  19.624  0.00  0.00    +0.000 A 
ATOM     19  C   UNL     1      -0.199  10.599  18.773  0.00  0.00    +0.000 A 
ATOM     20  C   UNL     1      -1.102  10.107  17.838  0.00  0.00    +0.000 A 
ATOM     21  C   UNL     1      -2.404  10.625  17.817  0.00  0.00    +0.000 A 
ATOM     22  N   UNL     1      -2.906  11.572  18.663  0.00  0.00    +0.000 NA
BRANCH  17  23
ATOM     23  O   UNL     1      -2.523  12.876  20.610  0.00  0.00    +0.000 OA
BRANCH  23  25
ATOM     24  C   UNL     1      -4.112  12.717  22.600  0.00  0.00    +0.000 C 
ATOM     25  C   UNL     1      -3.896  12.816  21.084  0.00  0.00    +0.000 C 
ATOM     26  C   UNL     1      -4.603  14.141  20.681  0.00  0.00    +0.000 C 
ENDBRANCH  23  25
ENDBRANCH  17  23
ENDBRANCH  16  19
ENDBRANCH   1  16
TORSDOF 8
ENDMDL
