MODEL 1
REMARK VINA RESULT:      -7.1      0.000      0.000
REMARK  Name = 
REMARK  8 active torsions:
REMARK  status: ('A' for Active; 'I' for Inactive)
REMARK    1  A    between atoms: C_1  and  C_2
REMARK    2  A    between atoms: C_2  and  C_3
REMARK    3  A    between atoms: C_3  and  N_4
REMARK    4  A    between atoms: N_15  and  C_16
REMARK    5  A    between atoms: C_16  and  C_17
REMARK    6  A    between atoms: N_24  and  C_25
REMARK    7  A    between atoms: C_25  and  C_26
REMARK    8  A    between atoms: C_26  and  C_27
REMARK                            x       y       z     vdW  Elec       q    Type
REMARK                         _______ _______ _______ _____ _____    ______ ____
ROOT
ATOM      1  N   UNL     1      -4.682  12.232  19.274  0.00  0.00    +0.000 N 
ATOM      2  C   UNL     1      -3.490  12.533  19.933  0.00  0.00    +0.000 A 
ATOM      3  O   UNL     1      -3.399  13.287  20.896  0.00  0.00    +0.000 OA
ATOM      4  C   UNL     1      -2.361  11.891  19.360  0.00  0.00    +0.000 A 
ATOM      5  C   UNL     1      -2.428  11.058  18.285  0.00  0.00    +0.000 A 
ATOM      6  N   UNL     1      -1.197  10.570  17.948  0.00  0.00    +0.000 NA
ATOM      7  C   UNL     1      -0.352  11.180  18.757  0.00  0.00    +0.000 A 
ATOM      8  N   UNL     1      -1.036  11.967  19.659  0.00  0.00    +0.000 N 
ATOM      9  C   UNL     1      -0.401  12.783  20.672  0.00  0.00    +0.000 C 
ATOM     10  C   UNL     1       1.044  12.364  20.906  0.00  0.00    +0.000 C 
ATOM     11  C   UNL     1       1.737  12.149  19.562  0.00  0.00    +0.000 C 
ATOM     12  N   UNL     1       1.006  11.147  18.794  0.00  0.00    +0.000 N 
ATOM     13  N   UNL     1      -3.621  10.837  17.629  0.00  0.00    +0.000 N 
ATOM     14  C   UNL     1      -4.778  11.485  18.082  0.00  0.00    +0.000 A 
ATOM     15  O   UNL     1      -5.844  11.414  17.462  0.00  0.00    +0.000 OA
ENDROOT
BRANCH   1  16
ATOM     16  C   UNL     1      -5.906  12.844  19.787  0.00  0.00    +0.000 C 
BRANCH  16  18
ATOM     17  C   UNL     1      -7.452  10.950  20.533  0.00  0.00    +0.000 C 
ATOM     18  C   UNL     1      -6.533  12.084  20.964  0.00  0.00    +0.000 C 
ENDBRANCH  16  18
ENDBRANCH   1  16
BRANCH  12  19
ATOM     19  C   UNL     1       1.753  10.159  18.025  0.00  0.00    +0.000 C 
BRANCH  19  20
ATOM     20  C   UNL     1       1.980   8.833  18.724  0.00  0.00    +0.000 A 
ATOM     21  C   UNL     1       1.551   8.666  20.055  0.00  0.00    +0.000 A 
ATOM     22  C   UNL     1       1.600   7.413  20.676  0.00  0.00    +0.000 A 
ATOM     23  C   UNL     1       2.081   6.308  19.975  0.00  0.00    +0.000 A 
ATOM     24  C   UNL     1       2.519   6.462  18.665  0.00  0.00    +0.000 A 
ATOM     25 CL   UNL     1       3.093   5.096  17.789  0.00  0.00    +0.000 Cl
ATOM     26  C   UNL     1       2.470   7.709  18.042  0.00  0.00    +0.000 A 
ENDBRANCH  19  20
ENDBRANCH  12  19
BRANCH  13  27
ATOM     27  C   UNL     1      -3.681  10.026  16.416  0.00  0.00    +0.000 C 
BRANCH  27  28
ATOM     28  C   UNL     1      -3.162  10.741  15.165  0.00  0.00    +0.000 C 
ATOM     29  C   UNL     1      -3.419   9.987  13.868  0.00  0.00    +0.000 C 
ENDBRANCH  27  28
ENDBRANCH  13  27
TORSDOF 6
ENDMDL
MODEL 2
REMARK VINA RESULT:      -6.8      4.988      9.196
REMARK  Name = 
REMARK  8 active torsions:
REMARK  status: ('A' for Active; 'I' for Inactive)
REMARK    1  A    between atoms: C_1  and  C_2
REMARK    2  A    between atoms: C_2  and  C_3
REMARK    3  A    between atoms: C_3  and  N_4
REMARK    4  A    between atoms: N_15  and  C_16
REMARK    5  A    between atoms: C_16  and  C_17
REMARK    6  A    between atoms: N_24  and  C_25
REMARK    7  A    between atoms: C_25  and  C_26
REMARK    8  A    between atoms: C_26  and  C_27
REMARK                            x       y       z     vdW  Elec       q    Type
REMARK                         _______ _______ _______ _____ _____    ______ ____
ROOT
ATOM      1  N   UNL     1       4.551   4.610  17.907  0.00  0.00    +0.000 N 
ATOM      2  C   UNL     1       4.086   5.893  17.614  0.00  0.00    +0.000 A 
ATOM      3  O   UNL     1       4.438   6.554  16.643  0.00  0.00    +0.000 OA
ATOM      4  C   UNL     1       3.167   6.384  18.577  0.00  0.00    +0.000 A 
ATOM      5  C   UNL     1       2.766   5.678  19.670  0.00  0.00    +0.000 A 
ATOM      6  N   UNL     1       1.868   6.382  20.424  0.00  0.00    +0.000 NA
ATOM      7  C   UNL     1       1.788   7.565  19.846  0.00  0.00    +0.000 A 
ATOM      8  N   UNL     1       2.542   7.587  18.692  0.00  0.00    +0.000 N 
ATOM      9  C   UNL     1       2.682   8.743  17.832  0.00  0.00    +0.000 C 
ATOM     10  C   UNL     1       1.597   9.778  18.104  0.00  0.00    +0.000 C 
ATOM     11  C   UNL     1       1.438   9.968  19.610  0.00  0.00    +0.000 C 
ATOM     12  N   UNL     1       1.123   8.686  20.230  0.00  0.00    +0.000 N 
ATOM     13  N   UNL     1       3.298   4.437  19.951  0.00  0.00    +0.000 N 
ATOM     14  C   UNL     1       4.267   3.901  19.092  0.00  0.00    +0.000 A 
ATOM     15  O   UNL     1       4.858   2.850  19.360  0.00  0.00    +0.000 OA
ENDROOT
BRANCH   1  16
ATOM     16  C   UNL     1       5.506   4.012  16.975  0.00  0.00    +0.000 C 
BRANCH  16  18
ATOM     17  C   UNL     1       7.616   4.836  18.157  0.00  0.00    +0.000 C 
ATOM     18  C   UNL     1       6.825   4.787  16.859  0.00  0.00    +0.000 C 
ENDBRANCH  16  18
ENDBRANCH   1  16
BRANCH  12  19
ATOM     19  C   UNL     1       0.136   8.641  21.303  0.00  0.00    +0.000 C 
BRANCH  19  20
ATOM     20  C   UNL     1      -0.588   9.946  21.569  0.00  0.00    +0.000 A 
ATOM     21  C   UNL     1      -0.666  10.443  22.884  0.00  0.00    +0.000 A 
ATOM     22  C   UNL     1      -1.186  11.716  23.143  0.00  0.00    +0.000 A 
ATOM     23  C   UNL     1      -1.635  12.512  22.090  0.00  0.00    +0.000 A 
ATOM     24  C   UNL     1      -1.575  12.028  20.788  0.00  0.00    +0.000 A 
ATOM     25 CL   UNL     1      -2.109  13.015  19.484  0.00  0.00    +0.000 Cl
ATOM     26  C   UNL     1      -1.056  10.760  20.526  0.00  0.00    +0.000 A 
ENDBRANCH  19  20
ENDBRANCH  12  19
BRANCH  13  27
ATOM     27  C   UNL     1       2.948   3.720  21.174  0.00  0.00    +0.000 C 
BRANCH  27  28
ATOM     28  C   UNL     1       1.597   3.002  21.108  0.00  0.00    +0.000 C 
ATOM     29  C   UNL     1       1.295   2.372  19.755  0.00  0.00    +0.000 C 
ENDBRANCH  27  28
ENDBRANCH  13  27
TORSDOF 6
ENDMDL
MODEL 3
REMARK VINA RESULT:      -6.7      1.556      2.138
REMARK  Name = 
REMARK  8 active torsions:
REMARK  status: ('A' for Active; 'I' for Inactive)
REMARK    1  A    between atoms: C_1  and  C_2
REMARK    2  A    between atoms: C_2  and  C_3
REMARK    3  A    between atoms: C_3  and  N_4
REMARK    4  A    between atoms: N_15  and  C_16
REMARK    5  A    between atoms: C_16  and  C_17
REMARK    6  A    between atoms: N_24  and  C_25
REMARK    7  A    between atoms: C_25  and  C_26
REMARK    8  A    between atoms: C_26  and  C_27
REMARK                            x       y       z     vdW  Elec       q    Type
REMARK                         _______ _______ _______ _____ _____    ______ ____
ROOT
ATOM      1  N   UNL     1      -5.954  12.266  19.743  0.00  0.00    +0.000 N 
ATOM      2  C   UNL     1      -4.916  12.571  20.623  0.00  0.00    +0.000 A 
ATOM      3  O   UNL     1      -5.074  12.948  21.780  0.00  0.00    +0.000 OA
ATOM      4  C   UNL     1      -3.631  12.426  20.039  0.00  0.00    +0.000 A 
ATOM      5  C   UNL     1      -3.425  12.020  18.756  0.00  0.00    +0.000 A 
ATOM      6  N   UNL     1      -2.092  11.955  18.455  0.00  0.00    +0.000 NA
ATOM      7  C   UNL     1      -1.476  12.416  19.527  0.00  0.00    +0.000 A 
ATOM      8  N   UNL     1      -2.387  12.677  20.528  0.00  0.00    +0.000 N 
ATOM      9  C   UNL     1      -2.037  13.211  21.828  0.00  0.00    +0.000 C 
ATOM     10  C   UNL     1      -0.550  13.058  22.115  0.00  0.00    +0.000 C 
ATOM     11  C   UNL     1       0.253  13.474  20.885  0.00  0.00    +0.000 C 
ATOM     12  N   UNL     1      -0.158  12.666  19.742  0.00  0.00    +0.000 N 
ATOM     13  N   UNL     1      -4.484  11.787  17.903  0.00  0.00    +0.000 N 
ATOM     14  C   UNL     1      -5.790  11.974  18.373  0.00  0.00    +0.000 A 
ATOM     15  O   UNL     1      -6.767  11.892  17.620  0.00  0.00    +0.000 OA
ENDROOT
BRANCH   1  16
ATOM     16  C   UNL     1      -7.321  12.385  20.248  0.00  0.00    +0.000 C 
BRANCH  16  18
ATOM     17  C   UNL     1      -7.606   9.854  20.459  0.00  0.00    +0.000 C 
ATOM     18  C   UNL     1      -7.758  11.210  21.133  0.00  0.00    +0.000 C 
ENDBRANCH  16  18
ENDBRANCH   1  16
BRANCH  12  19
ATOM     19  C   UNL     1       0.856  12.189  18.809  0.00  0.00    +0.000 C 
BRANCH  19  20
ATOM     20  C   UNL     1       1.157  10.705  18.886  0.00  0.00    +0.000 A 
ATOM     21  C   UNL     1       1.841  10.078  17.827  0.00  0.00    +0.000 A 
ATOM     22  C   UNL     1       2.273   8.752  17.934  0.00  0.00    +0.000 A 
ATOM     23  C   UNL     1       2.027   8.032  19.102  0.00  0.00    +0.000 A 
ATOM     24  C   UNL     1       1.342   8.635  20.150  0.00  0.00    +0.000 A 
ATOM     25 CL   UNL     1       1.055   7.757  21.602  0.00  0.00    +0.000 Cl
ATOM     26  C   UNL     1       0.911   9.958  20.048  0.00  0.00    +0.000 A 
ENDBRANCH  19  20
ENDBRANCH  12  19
BRANCH  13  27
ATOM     27  C   UNL     1      -4.267  11.451  16.498  0.00  0.00    +0.000 C 
BRANCH  27  28
ATOM     28  C   UNL     1      -3.549  10.116  16.283  0.00  0.00    +0.000 C 
ATOM     29  C   UNL     1      -2.892   9.978  14.917  0.00  0.00    +0.000 C 
ENDBRANCH  27  28
ENDBRANCH  13  27
TORSDOF 6
ENDMDL
MODEL 4
REMARK VINA RESULT:      -6.6      5.924     10.192
REMARK  Name = 
REMARK  8 active torsions:
REMARK  status: ('A' for Active; 'I' for Inactive)
REMARK    1  A    between atoms: C_1  and  C_2
REMARK    2  A    between atoms: C_2  and  C_3
REMARK    3  A    between atoms: C_3  and  N_4
REMARK    4  A    between atoms: N_15  and  C_16
REMARK    5  A    between atoms: C_16  and  C_17
REMARK    6  A    between atoms: N_24  and  C_25
REMARK    7  A    between atoms: C_25  and  C_26
REMARK    8  A    between atoms: C_26  and  C_27
REMARK                            x       y       z     vdW  Elec       q    Type
REMARK                         _______ _______ _______ _____ _____    ______ ____
ROOT
ATOM      1  N   UNL     1       5.732   4.306  16.025  0.00  0.00    +0.000 N 
ATOM      2  C   UNL     1       4.632   3.816  16.729  0.00  0.00    +0.000 A 
ATOM      3  O   UNL     1       4.077   2.748  16.497  0.00  0.00    +0.000 OA
ATOM      4  C   UNL     1       4.186   4.700  17.747  0.00  0.00    +0.000 A 
ATOM      5  C   UNL     1       4.775   5.897  18.021  0.00  0.00    +0.000 A 
ATOM      6  N   UNL     1       4.153   6.539  19.056  0.00  0.00    +0.000 NA
ATOM      7  C   UNL     1       3.118   5.779  19.359  0.00  0.00    +0.000 A 
ATOM      8  N   UNL     1       3.130   4.627  18.601  0.00  0.00    +0.000 N 
ATOM      9  C   UNL     1       2.121   3.592  18.678  0.00  0.00    +0.000 C 
ATOM     10  C   UNL     1       1.295   3.708  19.952  0.00  0.00    +0.000 C 
ATOM     11  C   UNL     1       0.902   5.166  20.175  0.00  0.00    +0.000 C 
ATOM     12  N   UNL     1       2.106   5.988  20.241  0.00  0.00    +0.000 N 
ATOM     13  N   UNL     1       5.823   6.366  17.258  0.00  0.00    +0.000 N 
ATOM     14  C   UNL     1       6.285   5.592  16.185  0.00  0.00    +0.000 A 
ATOM     15  O   UNL     1       7.141   6.018  15.402  0.00  0.00    +0.000 OA
ENDROOT
BRANCH   1  16
ATOM     16  C   UNL     1       6.268   3.470  14.952  0.00  0.00    +0.000 C 
BRANCH  16  18
ATOM     17  C   UNL     1       6.603   3.624  12.423  0.00  0.00    +0.000 C 
ATOM     18  C   UNL     1       5.625   3.731  13.583  0.00  0.00    +0.000 C 
ENDBRANCH  16  18
ENDBRANCH   1  16
BRANCH  12  19
ATOM     19  C   UNL     1       2.175   7.066  21.220  0.00  0.00    +0.000 C 
BRANCH  19  20
ATOM     20  C   UNL     1       1.417   8.325  20.848  0.00  0.00    +0.000 A 
ATOM     21  C   UNL     1       1.322   8.706  19.496  0.00  0.00    +0.000 A 
ATOM     22  C   UNL     1       0.501   9.769  19.103  0.00  0.00    +0.000 A 
ATOM     23  C   UNL     1      -0.237  10.467  20.057  0.00  0.00    +0.000 A 
ATOM     24  C   UNL     1      -0.142  10.110  21.397  0.00  0.00    +0.000 A 
ATOM     25 CL   UNL     1      -1.068  10.956  22.575  0.00  0.00    +0.000 Cl
ATOM     26  C   UNL     1       0.674   9.050  21.792  0.00  0.00    +0.000 A 
ENDBRANCH  19  20
ENDBRANCH  12  19
BRANCH  13  27
ATOM     27  C   UNL     1       6.391   7.693  17.483  0.00  0.00    +0.000 C 
BRANCH  27  28
ATOM     28  C   UNL     1       7.824   7.672  18.025  0.00  0.00    +0.000 C 
ATOM     29  C   UNL     1       8.443   9.052  18.196  0.00  0.00    +0.000 C 
ENDBRANCH  27  28
ENDBRANCH  13  27
TORSDOF 6
ENDMDL
MODEL 5
REMARK VINA RESULT:      -6.6      4.846      9.046
REMARK  Name = 
REMARK  8 active torsions:
REMARK  status: ('A' for Active; 'I' for Inactive)
REMARK    1  A    between atoms: C_1  and  C_2
REMARK    2  A    between atoms: C_2  and  C_3
REMARK    3  A    between atoms: C_3  and  N_4
REMARK    4  A    between atoms: N_15  and  C_16
REMARK    5  A    between atoms: C_16  and  C_17
REMARK    6  A    between atoms: N_24  and  C_25
REMARK    7  A    between atoms: C_25  and  C_26
REMARK    8  A    between atoms: C_26  and  C_27
REMARK                            x       y       z     vdW  Elec       q    Type
REMARK                         _______ _______ _______ _____ _____    ______ ____
ROOT
ATOM      1  N   UNL     1       4.487   4.998  18.052  0.00  0.00    +0.000 N 
ATOM      2  C   UNL     1       4.120   6.290  17.674  0.00  0.00    +0.000 A 
ATOM      3  O   UNL     1       4.598   6.899  16.723  0.00  0.00    +0.000 OA
ATOM      4  C   UNL     1       3.137   6.860  18.526  0.00  0.00    +0.000 A 
ATOM      5  C   UNL     1       2.596   6.213  19.595  0.00  0.00    +0.000 A 
ATOM      6  N   UNL     1       1.666   6.986  20.234  0.00  0.00    +0.000 NA
ATOM      7  C   UNL     1       1.704   8.150  19.614  0.00  0.00    +0.000 A 
ATOM      8  N   UNL     1       2.567   8.094  18.540  0.00  0.00    +0.000 N 
ATOM      9  C   UNL     1       2.849   9.211  17.664  0.00  0.00    +0.000 C 
ATOM     10  C   UNL     1       1.798  10.306  17.794  0.00  0.00    +0.000 C 
ATOM     11  C   UNL     1       1.503  10.558  19.271  0.00  0.00    +0.000 C 
ATOM     12  N   UNL     1       1.063   9.315  19.896  0.00  0.00    +0.000 N 
ATOM     13  N   UNL     1       3.034   4.959  19.965  0.00  0.00    +0.000 N 
ATOM     14  C   UNL     1       4.052   4.347  19.224  0.00  0.00    +0.000 A 
ATOM     15  O   UNL     1       4.560   3.278  19.582  0.00  0.00    +0.000 OA
ENDROOT
BRANCH   1  16
ATOM     16  C   UNL     1       5.496   4.322  17.238  0.00  0.00    +0.000 C 
BRANCH  16  18
ATOM     17  C   UNL     1       6.129   3.934  14.793  0.00  0.00    +0.000 C 
ATOM     18  C   UNL     1       5.013   3.962  15.827  0.00  0.00    +0.000 C 
ENDBRANCH  16  18
ENDBRANCH   1  16
BRANCH  12  19
ATOM     19  C   UNL     1      -0.025   9.356  20.866  0.00  0.00    +0.000 C 
BRANCH  19  20
ATOM     20  C   UNL     1      -0.772  10.673  20.941  0.00  0.00    +0.000 A 
ATOM     21  C   UNL     1      -1.531  11.107  19.838  0.00  0.00    +0.000 A 
ATOM     22  C   UNL     1      -2.357  12.232  19.929  0.00  0.00    +0.000 A 
ATOM     23  C   UNL     1      -2.436  12.942  21.126  0.00  0.00    +0.000 A 
ATOM     24  C   UNL     1      -1.682  12.532  22.220  0.00  0.00    +0.000 A 
ATOM     25 CL   UNL     1      -1.793  13.392  23.706  0.00  0.00    +0.000 Cl
ATOM     26  C   UNL     1      -0.859  11.409  22.133  0.00  0.00    +0.000 A 
ENDBRANCH  19  20
ENDBRANCH  12  19
BRANCH  13  27
ATOM     27  C   UNL     1       2.529   4.304  21.170  0.00  0.00    +0.000 C 
BRANCH  27  28
ATOM     28  C   UNL     1       1.190   3.588  20.972  0.00  0.00    +0.000 C 
ATOM     29  C   UNL     1       1.041   2.913  19.616  0.00  0.00    +0.000 C 
ENDBRANCH  27  28
ENDBRANCH  13  27
TORSDOF 6
ENDMDL
MODEL 6
REMARK VINA RESULT:      -6.6      5.991     10.181
REMARK  Name = 
REMARK  8 active torsions:
REMARK  status: ('A' for Active; 'I' for Inactive)
REMARK    1  A    between atoms: C_1  and  C_2
REMARK    2  A    between atoms: C_2  and  C_3
REMARK    3  A    between atoms: C_3  and  N_4
REMARK    4  A    between atoms: N_15  and  C_16
REMARK    5  A    between atoms: C_16  and  C_17
REMARK    6  A    between atoms: N_24  and  C_25
REMARK    7  A    between atoms: C_25  and  C_26
REMARK    8  A    between atoms: C_26  and  C_27
REMARK                            x       y       z     vdW  Elec       q    Type
REMARK                         _______ _______ _______ _____ _____    ______ ____
ROOT
ATOM      1  N   UNL     1       5.799   4.268  15.927  0.00  0.00    +0.000 N 
ATOM      2  C   UNL     1       4.714   3.714  16.606  0.00  0.00    +0.000 A 
ATOM      3  O   UNL     1       4.202   2.633  16.335  0.00  0.00    +0.000 OA
ATOM      4  C   UNL     1       4.227   4.546  17.648  0.00  0.00    +0.000 A 
ATOM      5  C   UNL     1       4.766   5.755  17.966  0.00  0.00    +0.000 A 
ATOM      6  N   UNL     1       4.113   6.339  19.015  0.00  0.00    +0.000 NA
ATOM      7  C   UNL     1       3.106   5.531  19.284  0.00  0.00    +0.000 A 
ATOM      8  N   UNL     1       3.168   4.405  18.491  0.00  0.00    +0.000 N 
ATOM      9  C   UNL     1       2.200   3.330  18.525  0.00  0.00    +0.000 C 
ATOM     10  C   UNL     1       1.360   3.372  19.795  0.00  0.00    +0.000 C 
ATOM     11  C   UNL     1       0.909   4.806  20.062  0.00  0.00    +0.000 C 
ATOM     12  N   UNL     1       2.080   5.671  20.165  0.00  0.00    +0.000 N 
ATOM     13  N   UNL     1       5.802   6.289  17.227  0.00  0.00    +0.000 N 
ATOM     14  C   UNL     1       6.301   5.569  16.134  0.00  0.00    +0.000 A 
ATOM     15  O   UNL     1       7.145   6.053  15.372  0.00  0.00    +0.000 OA
ENDROOT
BRANCH   1  16
ATOM     16  C   UNL     1       6.375   3.489  14.832  0.00  0.00    +0.000 C 
BRANCH  16  18
ATOM     17  C   UNL     1       6.675   3.667  12.301  0.00  0.00    +0.000 C 
ATOM     18  C   UNL     1       5.709   3.743  13.474  0.00  0.00    +0.000 C 
ENDBRANCH  16  18
ENDBRANCH   1  16
BRANCH  12  19
ATOM     19  C   UNL     1       2.100   6.719  21.178  0.00  0.00    +0.000 C 
BRANCH  19  20
ATOM     20  C   UNL     1       1.290   7.956  20.844  0.00  0.00    +0.000 A 
ATOM     21  C   UNL     1       0.280   8.387  21.725  0.00  0.00    +0.000 A 
ATOM     22  C   UNL     1      -0.376   9.606  21.528  0.00  0.00    +0.000 A 
ATOM     23  C   UNL     1      -0.033  10.414  20.446  0.00  0.00    +0.000 A 
ATOM     24  C   UNL     1       0.954   9.995  19.560  0.00  0.00    +0.000 A 
ATOM     25 CL   UNL     1       1.395  10.999  18.235  0.00  0.00    +0.000 Cl
ATOM     26  C   UNL     1       1.611   8.780  19.754  0.00  0.00    +0.000 A 
ENDBRANCH  19  20
ENDBRANCH  12  19
BRANCH  13  27
ATOM     27  C   UNL     1       6.316   7.629  17.499  0.00  0.00    +0.000 C 
BRANCH  27  28
ATOM     28  C   UNL     1       7.775   7.652  17.963  0.00  0.00    +0.000 C 
ATOM     29  C   UNL     1       8.351   9.051  18.132  0.00  0.00    +0.000 C 
ENDBRANCH  27  28
ENDBRANCH  13  27
TORSDOF 6
ENDMDL
MODEL 7
REMARK VINA RESULT:      -6.5      3.749      5.414
REMARK  Name = 
REMARK  8 active torsions:
REMARK  status: ('A' for Active; 'I' for Inactive)
REMARK    1  A    between atoms: C_1  and  C_2
REMARK    2  A    between atoms: C_2  and  C_3
REMARK    3  A    between atoms: C_3  and  N_4
REMARK    4  A    between atoms: N_15  and  C_16
REMARK    5  A    between atoms: C_16  and  C_17
REMARK    6  A    between atoms: N_24  and  C_25
REMARK    7  A    between atoms: C_25  and  C_26
REMARK    8  A    between atoms: C_26  and  C_27
REMARK                            x       y       z     vdW  Elec       q    Type
REMARK                         _______ _______ _______ _____ _____    ______ ____
ROOT
ATOM      1  N   UNL     1      -0.269  11.274  21.699  0.00  0.00    +0.000 N 
ATOM      2  C   UNL     1       0.054   9.921  21.810  0.00  0.00    +0.000 A 
ATOM      3  O   UNL     1      -0.209   9.221  22.782  0.00  0.00    +0.000 OA
ATOM      4  C   UNL     1       0.752   9.422  20.679  0.00  0.00    +0.000 A 
ATOM      5  C   UNL     1       1.067  10.177  19.591  0.00  0.00    +0.000 A 
ATOM      6  N   UNL     1       1.729   9.445  18.645  0.00  0.00    +0.000 NA
ATOM      7  C   UNL     1       1.908   8.258  19.192  0.00  0.00    +0.000 A 
ATOM      8  N   UNL     1       1.289   8.199  20.423  0.00  0.00    +0.000 N 
ATOM      9  C   UNL     1       1.312   7.041  21.290  0.00  0.00    +0.000 C 
ATOM     10  C   UNL     1       1.723   5.783  20.537  0.00  0.00    +0.000 C 
ATOM     11  C   UNL     1       2.928   6.089  19.650  0.00  0.00    +0.000 C 
ATOM     12  N   UNL     1       2.594   7.177  18.737  0.00  0.00    +0.000 N 
ATOM     13  N   UNL     1       0.781  11.525  19.552  0.00  0.00    +0.000 N 
ATOM     14  C   UNL     1       0.154  12.121  20.655  0.00  0.00    +0.000 A 
ATOM     15  O   UNL     1      -0.018  13.343  20.719  0.00  0.00    +0.000 OA
ENDROOT
BRANCH   1  16
ATOM     16  C   UNL     1      -0.990  11.886  22.814  0.00  0.00    +0.000 C 
BRANCH  16  18
ATOM     17  C   UNL     1      -3.179  12.971  23.563  0.00  0.00    +0.000 C 
ATOM     18  C   UNL     1      -2.494  12.053  22.561  0.00  0.00    +0.000 C 
ENDBRANCH  16  18
ENDBRANCH   1  16
BRANCH  12  19
ATOM     19  C   UNL     1       3.059   7.111  17.357  0.00  0.00    +0.000 C 
BRANCH  19  20
ATOM     20  C   UNL     1       4.488   6.635  17.180  0.00  0.00    +0.000 A 
ATOM     21  C   UNL     1       4.751   5.497  16.393  0.00  0.00    +0.000 A 
ATOM     22  C   UNL     1       6.062   5.124  16.081  0.00  0.00    +0.000 A 
ATOM     23  C   UNL     1       7.132   5.885  16.550  0.00  0.00    +0.000 A 
ATOM     24  C   UNL     1       6.888   7.003  17.338  0.00  0.00    +0.000 A 
ATOM     25 CL   UNL     1       8.205   7.956  17.902  0.00  0.00    +0.000 Cl
ATOM     26  C   UNL     1       5.581   7.379  17.651  0.00  0.00    +0.000 A 
ENDBRANCH  19  20
ENDBRANCH  12  19
BRANCH  13  27
ATOM     27  C   UNL     1       1.207  12.360  18.432  0.00  0.00    +0.000 C 
BRANCH  27  28
ATOM     28  C   UNL     1       2.606  12.961  18.602  0.00  0.00    +0.000 C 
ATOM     29  C   UNL     1       2.644  14.480  18.507  0.00  0.00    +0.000 C 
ENDBRANCH  27  28
ENDBRANCH  13  27
TORSDOF 6
ENDMDL
MODEL 8
REMARK VINA RESULT:      -6.4      5.035      8.448
REMARK  Name = 
REMARK  8 active torsions:
REMARK  status: ('A' for Active; 'I' for Inactive)
REMARK    1  A    between atoms: C_1  and  C_2
REMARK    2  A    between atoms: C_2  and  C_3
REMARK    3  A    between atoms: C_3  and  N_4
REMARK    4  A    between atoms: N_15  and  C_16
REMARK    5  A    between atoms: C_16  and  C_17
REMARK    6  A    between atoms: N_24  and  C_25
REMARK    7  A    between atoms: C_25  and  C_26
REMARK    8  A    between atoms: C_26  and  C_27
REMARK                            x       y       z     vdW  Elec       q    Type
REMARK                         _______ _______ _______ _____ _____    ______ ____
ROOT
ATOM      1  N   UNL     1       3.334   4.442  19.450  0.00  0.00    +0.000 N 
ATOM      2  C   UNL     1       2.530   5.331  20.163  0.00  0.00    +0.000 A 
ATOM      3  O   UNL     1       1.912   5.045  21.183  0.00  0.00    +0.000 OA
ATOM      4  C   UNL     1       2.469   6.621  19.574  0.00  0.00    +0.000 A 
ATOM      5  C   UNL     1       3.135   6.966  18.438  0.00  0.00    +0.000 A 
ATOM      6  N   UNL     1       2.910   8.271  18.098  0.00  0.00    +0.000 NA
ATOM      7  C   UNL     1       2.026   8.707  18.976  0.00  0.00    +0.000 A 
ATOM      8  N   UNL     1       1.764   7.733  19.915  0.00  0.00    +0.000 N 
ATOM      9  C   UNL     1       0.824   7.886  21.006  0.00  0.00    +0.000 C 
ATOM     10  C   UNL     1       0.479   9.350  21.247  0.00  0.00    +0.000 C 
ATOM     11  C   UNL     1       0.208  10.038  19.912  0.00  0.00    +0.000 C 
ATOM     12  N   UNL     1       1.376   9.898  19.048  0.00  0.00    +0.000 N 
ATOM     13  N   UNL     1       3.871   6.036  17.733  0.00  0.00    +0.000 N 
ATOM     14  C   UNL     1       3.930   4.717  18.202  0.00  0.00    +0.000 A 
ATOM     15  O   UNL     1       4.476   3.822  17.548  0.00  0.00    +0.000 OA
ENDROOT
BRANCH   1  16
ATOM     16  C   UNL     1       3.463   3.084  19.974  0.00  0.00    +0.000 C 
BRANCH  16  18
ATOM     17  C   UNL     1       1.479   2.208  18.622  0.00  0.00    +0.000 C 
ATOM     18  C   UNL     1       2.144   2.298  19.987  0.00  0.00    +0.000 C 
ENDBRANCH  16  18
ENDBRANCH   1  16
BRANCH  12  19
ATOM     19  C   UNL     1       1.790  11.029  18.227  0.00  0.00    +0.000 C 
BRANCH  19  20
ATOM     20  C   UNL     1       1.443  12.395  18.787  0.00  0.00    +0.000 A 
ATOM     21  C   UNL     1       0.288  13.060  18.334  0.00  0.00    +0.000 A 
ATOM     22  C   UNL     1      -0.146  14.244  18.940  0.00  0.00    +0.000 A 
ATOM     23  C   UNL     1       0.569  14.780  20.010  0.00  0.00    +0.000 A 
ATOM     24  C   UNL     1       1.719  14.140  20.459  0.00  0.00    +0.000 A 
ATOM     25 CL   UNL     1       2.592  14.788  21.792  0.00  0.00    +0.000 Cl
ATOM     26  C   UNL     1       2.154  12.959  19.858  0.00  0.00    +0.000 A 
ENDBRANCH  19  20
ENDBRANCH  12  19
BRANCH  13  27
ATOM     27  C   UNL     1       4.502   6.375  16.460  0.00  0.00    +0.000 C 
BRANCH  27  28
ATOM     28  C   UNL     1       6.027   6.234  16.467  0.00  0.00    +0.000 C 
ATOM     29  C   UNL     1       6.739   7.244  17.357  0.00  0.00    +0.000 C 
ENDBRANCH  27  28
ENDBRANCH  13  27
TORSDOF 6
ENDMDL
MODEL 9
REMARK VINA RESULT:      -6.4      3.475      4.374
REMARK  Name = 
REMARK  8 active torsions:
REMARK  status: ('A' for Active; 'I' for Inactive)
REMARK    1  A    between atoms: C_1  and  C_2
REMARK    2  A    between atoms: C_2  and  C_3
REMARK    3  A    between atoms: C_3  and  N_4
REMARK    4  A    between atoms: N_15  and  C_16
REMARK    5  A    between atoms: C_16  and  C_17
REMARK    6  A    between atoms: N_24  and  C_25
REMARK    7  A    between atoms: C_25  and  C_26
REMARK    8  A    between atoms: C_26  and  C_27
REMARK                            x       y       z     vdW  Elec       q    Type
REMARK                         _______ _______ _______ _____ _____    ______ ____
ROOT
ATOM      1  N   UNL     1      -1.223  12.858  22.122  0.00  0.00    +0.000 N 
ATOM      2  C   UNL     1      -0.846  11.532  22.335  0.00  0.00    +0.000 A 
ATOM      3  O   UNL     1      -1.037  10.914  23.378  0.00  0.00    +0.000 OA
ATOM      4  C   UNL     1      -0.185  10.956  21.219  0.00  0.00    +0.000 A 
ATOM      5  C   UNL     1       0.050  11.619  20.054  0.00  0.00    +0.000 A 
ATOM      6  N   UNL     1       0.693  10.827  19.143  0.00  0.00    +0.000 NA
ATOM      7  C   UNL     1       0.941   9.700  19.784  0.00  0.00    +0.000 A 
ATOM      8  N   UNL     1       0.384   9.733  21.045  0.00  0.00    +0.000 N 
ATOM      9  C   UNL     1       0.491   8.659  22.009  0.00  0.00    +0.000 C 
ATOM     10  C   UNL     1       0.911   7.352  21.350  0.00  0.00    +0.000 C 
ATOM     11  C   UNL     1       2.060   7.616  20.380  0.00  0.00    +0.000 C 
ATOM     12  N   UNL     1       1.643   8.605  19.392  0.00  0.00    +0.000 N 
ATOM     13  N   UNL     1      -0.288  12.948  19.910  0.00  0.00    +0.000 N 
ATOM     14  C   UNL     1      -0.882  13.620  20.986  0.00  0.00    +0.000 A 
ATOM     15  O   UNL     1      -1.096  14.837  20.950  0.00  0.00    +0.000 OA
ENDROOT
BRANCH   1  16
ATOM     16  C   UNL     1      -1.913  13.544  23.213  0.00  0.00    +0.000 C 
BRANCH  16  18
ATOM     17  C   UNL     1      -4.044  12.931  24.483  0.00  0.00    +0.000 C 
ATOM     18  C   UNL     1      -3.440  13.401  23.168  0.00  0.00    +0.000 C 
ENDBRANCH  16  18
ENDBRANCH   1  16
BRANCH  12  19
ATOM     19  C   UNL     1       2.045   8.430  18.001  0.00  0.00    +0.000 C 
BRANCH  19  20
ATOM     20  C   UNL     1       2.790   7.144  17.701  0.00  0.00    +0.000 A 
ATOM     21  C   UNL     1       4.167   7.188  17.412  0.00  0.00    +0.000 A 
ATOM     22  C   UNL     1       4.915   6.013  17.287  0.00  0.00    +0.000 A 
ATOM     23  C   UNL     1       4.297   4.775  17.450  0.00  0.00    +0.000 A 
ATOM     24  C   UNL     1       2.936   4.715  17.723  0.00  0.00    +0.000 A 
ATOM     25 CL   UNL     1       2.174   3.189  17.945  0.00  0.00    +0.000 Cl
ATOM     26  C   UNL     1       2.187   5.886  17.850  0.00  0.00    +0.000 A 
ENDBRANCH  19  20
ENDBRANCH  12  19
BRANCH  13  27
ATOM     27  C   UNL     1       0.054  13.692  18.700  0.00  0.00    +0.000 C 
BRANCH  27  28
ATOM     28  C   UNL     1       1.401  14.417  18.776  0.00  0.00    +0.000 C 
ATOM     29  C   UNL     1       2.561  13.635  18.175  0.00  0.00    +0.000 C 
ENDBRANCH  27  28
ENDBRANCH  13  27
TORSDOF 6
ENDMDL
