MODEL 1
REMARK VINA RESULT:      -7.4      0.000      0.000
REMARK  Name = 
REMARK  17 active torsions:
REMARK  status: ('A' for Active; 'I' for Inactive)
REMARK    1  A    between atoms: C_1  and  C_2
REMARK    2  A    between atoms: C_2  and  C_3
REMARK    3  A    between atoms: C_3  and  C_4
REMARK    4  A    between atoms: C_4  and  N_5
REMARK    5  A    between atoms: N_5  and  C_6
REMARK    6  A    between atoms: N_5  and  C_10
REMARK    7  A    between atoms: C_6  and  C_7
REMARK    8  A    between atoms: C_7  and  C_8
REMARK    9  A    between atoms: C_8  and  C_9
REMARK   10  A    between atoms: C_10  and  C_11
REMARK   11  A    between atoms: C_11  and  O_12
REMARK   12  A    between atoms: C_11  and  C_13
REMARK   13  A    between atoms: C_15  and  C_16
REMARK   14  A    between atoms: C_16  and  C_17
REMARK   15  A    between atoms: C_16  and  C_18
REMARK   16  A    between atoms: C_16  and  C_19
REMARK   17  A    between atoms: C_24  and  C_25
REMARK                            x       y       z     vdW  Elec       q    Type
REMARK                         _______ _______ _______ _____ _____    ______ ____
ROOT
ATOM      1  C   UNL     1       3.603   6.314  17.956  0.00  0.00    +0.000 A 
ATOM      2  C   UNL     1       3.537   5.044  18.541  0.00  0.00    +0.000 A 
ATOM      3  C   UNL     1       2.715   4.818  19.629  0.00  0.00    +0.000 A 
ATOM      4  N   UNL     1       1.973   5.823  20.151  0.00  0.00    +0.000 NA
ATOM      5  C   UNL     1       2.013   7.077  19.625  0.00  0.00    +0.000 A 
ATOM      6  C   UNL     1       2.842   7.369  18.514  0.00  0.00    +0.000 A 
ATOM      7  C   UNL     1       2.883   8.689  18.020  0.00  0.00    +0.000 A 
ATOM      8  C   UNL     1       2.114   9.722  18.567  0.00  0.00    +0.000 A 
ATOM      9  C   UNL     1       2.227  11.097  17.961  0.00  0.00    +0.000 C 
ATOM     10  C   UNL     1       1.266   9.442  19.655  0.00  0.00    +0.000 A 
ATOM     11  C   UNL     1       0.449  10.436  20.238  0.00  0.00    +0.000 A 
ATOM     12  C   UNL     1      -0.390  10.151  21.319  0.00  0.00    +0.000 A 
ATOM     13  C   UNL     1      -0.433   8.868  21.830  0.00  0.00    +0.000 A 
ATOM     14  C   UNL     1       0.363   7.867  21.267  0.00  0.00    +0.000 A 
ATOM     15  C   UNL     1       1.225   8.117  20.176  0.00  0.00    +0.000 A 
ENDROOT
BRANCH   3  16
ATOM     16  C   UNL     1       2.640   3.419  20.252  0.00  0.00    +0.000 C 
ATOM     17  C   UNL     1       3.989   2.688  20.071  0.00  0.00    +0.000 C 
ATOM     18  C   UNL     1       2.329   3.485  21.759  0.00  0.00    +0.000 C 
ATOM     19  C   UNL     1       1.528   2.590  19.575  0.00  0.00    +0.000 C 
ENDBRANCH   3  16
BRANCH   1  20
ATOM     20  C   UNL     1       4.522   6.491  16.767  0.00  0.00    +0.000 C 
BRANCH  20  21
ATOM     21  O   UNL     1       3.864   7.281  15.765  0.00  0.00    +0.000 OA
ATOM     22  H   UNL     1       4.339   8.133  15.730  0.00  0.00    +0.000 HD
ENDBRANCH  20  21
BRANCH  20  23
ATOM     23  C   UNL     1       4.915   5.101  16.176  0.00  0.00    +0.000 C 
BRANCH  23  24
ATOM     24  N   UNL     1       6.080   5.114  15.243  0.00  0.00    +0.000 NA
BRANCH  24  25
ATOM     25  C   UNL     1       7.334   5.194  16.036  0.00  0.00    +0.000 C 
BRANCH  25  26
ATOM     26  C   UNL     1       7.347   4.563  17.437  0.00  0.00    +0.000 C 
BRANCH  26  28
ATOM     27  C   UNL     1       7.734   6.963  18.040  0.00  0.00    +0.000 C 
ATOM     28  C   UNL     1       7.710   5.532  18.559  0.00  0.00    +0.000 C 
ENDBRANCH  26  28
ENDBRANCH  25  26
ENDBRANCH  24  25
BRANCH  24  29
ATOM     29  C   UNL     1       6.070   3.892  14.404  0.00  0.00    +0.000 C 
BRANCH  29  30
ATOM     30  C   UNL     1       6.491   4.066  12.932  0.00  0.00    +0.000 C 
BRANCH  30  31
ATOM     31  C   UNL     1       5.975   2.964  12.006  0.00  0.00    +0.000 C 
ATOM     32  C   UNL     1       4.527   3.223  11.612  0.00  0.00    +0.000 C 
ENDBRANCH  30  31
ENDBRANCH  29  30
ENDBRANCH  24  29
ENDBRANCH  23  24
ENDBRANCH  20  23
ENDBRANCH   1  20
TORSDOF 11
ENDMDL
MODEL 2
REMARK VINA RESULT:      -7.4      0.494      3.179
REMARK  Name = 
REMARK  17 active torsions:
REMARK  status: ('A' for Active; 'I' for Inactive)
REMARK    1  A    between atoms: C_1  and  C_2
REMARK    2  A    between atoms: C_2  and  C_3
REMARK    3  A    between atoms: C_3  and  C_4
REMARK    4  A    between atoms: C_4  and  N_5
REMARK    5  A    between atoms: N_5  and  C_6
REMARK    6  A    between atoms: N_5  and  C_10
REMARK    7  A    between atoms: C_6  and  C_7
REMARK    8  A    between atoms: C_7  and  C_8
REMARK    9  A    between atoms: C_8  and  C_9
REMARK   10  A    between atoms: C_10  and  C_11
REMARK   11  A    between atoms: C_11  and  O_12
REMARK   12  A    between atoms: C_11  and  C_13
REMARK   13  A    between atoms: C_15  and  C_16
REMARK   14  A    between atoms: C_16  and  C_17
REMARK   15  A    between atoms: C_16  and  C_18
REMARK   16  A    between atoms: C_16  and  C_19
REMARK   17  A    between atoms: C_24  and  C_25
REMARK                            x       y       z     vdW  Elec       q    Type
REMARK                         _______ _______ _______ _____ _____    ______ ____
ROOT
ATOM      1  C   UNL     1       3.796   6.037  17.898  0.00  0.00    +0.000 A 
ATOM      2  C   UNL     1       3.757   4.772  18.497  0.00  0.00    +0.000 A 
ATOM      3  C   UNL     1       2.942   4.540  19.588  0.00  0.00    +0.000 A 
ATOM      4  N   UNL     1       2.180   5.536  20.101  0.00  0.00    +0.000 NA
ATOM      5  C   UNL     1       2.194   6.784  19.561  0.00  0.00    +0.000 A 
ATOM      6  C   UNL     1       3.015   7.082  18.447  0.00  0.00    +0.000 A 
ATOM      7  C   UNL     1       3.028   8.397  17.939  0.00  0.00    +0.000 A 
ATOM      8  C   UNL     1       2.239   9.420  18.475  0.00  0.00    +0.000 A 
ATOM      9  C   UNL     1       2.323  10.791  17.855  0.00  0.00    +0.000 C 
ATOM     10  C   UNL     1       1.398   9.134  19.568  0.00  0.00    +0.000 A 
ATOM     11  C   UNL     1       0.563  10.118  20.141  0.00  0.00    +0.000 A 
ATOM     12  C   UNL     1      -0.269   9.827  21.227  0.00  0.00    +0.000 A 
ATOM     13  C   UNL     1      -0.286   8.549  21.752  0.00  0.00    +0.000 A 
ATOM     14  C   UNL     1       0.530   7.558  21.198  0.00  0.00    +0.000 A 
ATOM     15  C   UNL     1       1.385   7.814  20.103  0.00  0.00    +0.000 A 
ENDROOT
BRANCH   3  16
ATOM     16  C   UNL     1       2.896   3.147  20.226  0.00  0.00    +0.000 C 
ATOM     17  C   UNL     1       4.305   2.514  20.212  0.00  0.00    +0.000 C 
ATOM     18  C   UNL     1       2.413   3.207  21.687  0.00  0.00    +0.000 C 
ATOM     19  C   UNL     1       1.929   2.231  19.445  0.00  0.00    +0.000 C 
ENDBRANCH   3  16
BRANCH   1  20
ATOM     20  C   UNL     1       4.710   6.220  16.706  0.00  0.00    +0.000 C 
BRANCH  20  21
ATOM     21  O   UNL     1       4.165   7.220  15.832  0.00  0.00    +0.000 OA
ATOM     22  H   UNL     1       3.216   7.010  15.731  0.00  0.00    +0.000 HD
ENDBRANCH  20  21
BRANCH  20  23
ATOM     23  C   UNL     1       4.872   4.872  15.937  0.00  0.00    +0.000 C 
BRANCH  23  24
ATOM     24  N   UNL     1       6.277   4.501  15.594  0.00  0.00    +0.000 NA
BRANCH  24  25
ATOM     25  C   UNL     1       6.505   4.759  14.149  0.00  0.00    +0.000 C 
BRANCH  25  26
ATOM     26  C   UNL     1       6.527   3.557  13.193  0.00  0.00    +0.000 C 
BRANCH  26  28
ATOM     27  C   UNL     1       5.394   2.214  11.407  0.00  0.00    +0.000 C 
ATOM     28  C   UNL     1       5.307   3.458  12.280  0.00  0.00    +0.000 C 
ENDBRANCH  26  28
ENDBRANCH  25  26
ENDBRANCH  24  25
BRANCH  24  29
ATOM     29  C   UNL     1       7.225   5.287  16.421  0.00  0.00    +0.000 C 
BRANCH  29  30
ATOM     30  C   UNL     1       7.671   4.646  17.748  0.00  0.00    +0.000 C 
BRANCH  30  31
ATOM     31  C   UNL     1       7.633   5.603  18.941  0.00  0.00    +0.000 C 
ATOM     32  C   UNL     1       7.999   7.017  18.512  0.00  0.00    +0.000 C 
ENDBRANCH  30  31
ENDBRANCH  29  30
ENDBRANCH  24  29
ENDBRANCH  23  24
ENDBRANCH  20  23
ENDBRANCH   1  20
TORSDOF 11
ENDMDL
MODEL 3
REMARK VINA RESULT:      -7.2      0.979      3.197
REMARK  Name = 
REMARK  17 active torsions:
REMARK  status: ('A' for Active; 'I' for Inactive)
REMARK    1  A    between atoms: C_1  and  C_2
REMARK    2  A    between atoms: C_2  and  C_3
REMARK    3  A    between atoms: C_3  and  C_4
REMARK    4  A    between atoms: C_4  and  N_5
REMARK    5  A    between atoms: N_5  and  C_6
REMARK    6  A    between atoms: N_5  and  C_10
REMARK    7  A    between atoms: C_6  and  C_7
REMARK    8  A    between atoms: C_7  and  C_8
REMARK    9  A    between atoms: C_8  and  C_9
REMARK   10  A    between atoms: C_10  and  C_11
REMARK   11  A    between atoms: C_11  and  O_12
REMARK   12  A    between atoms: C_11  and  C_13
REMARK   13  A    between atoms: C_15  and  C_16
REMARK   14  A    between atoms: C_16  and  C_17
REMARK   15  A    between atoms: C_16  and  C_18
REMARK   16  A    between atoms: C_16  and  C_19
REMARK   17  A    between atoms: C_24  and  C_25
REMARK                            x       y       z     vdW  Elec       q    Type
REMARK                         _______ _______ _______ _____ _____    ______ ____
ROOT
ATOM      1  C   UNL     1       3.339   5.452  17.902  0.00  0.00    +0.000 A 
ATOM      2  C   UNL     1       3.294   4.259  18.634  0.00  0.00    +0.000 A 
ATOM      3  C   UNL     1       2.670   4.218  19.866  0.00  0.00    +0.000 A 
ATOM      4  N   UNL     1       2.106   5.333  20.388  0.00  0.00    +0.000 NA
ATOM      5  C   UNL     1       2.136   6.518  19.721  0.00  0.00    +0.000 A 
ATOM      6  C   UNL     1       2.767   6.621  18.457  0.00  0.00    +0.000 A 
ATOM      7  C   UNL     1       2.808   7.875  17.813  0.00  0.00    +0.000 A 
ATOM      8  C   UNL     1       2.224   9.022  18.361  0.00  0.00    +0.000 A 
ATOM      9  C   UNL     1       2.319  10.313  17.589  0.00  0.00    +0.000 C 
ATOM     10  C   UNL     1       1.570   8.931  19.605  0.00  0.00    +0.000 A 
ATOM     11  C   UNL     1       0.944  10.048  20.201  0.00  0.00    +0.000 A 
ATOM     12  C   UNL     1       0.298   9.950  21.437  0.00  0.00    +0.000 A 
ATOM     13  C   UNL     1       0.260   8.734  22.094  0.00  0.00    +0.000 A 
ATOM     14  C   UNL     1       0.871   7.615  21.521  0.00  0.00    +0.000 A 
ATOM     15  C   UNL     1       1.534   7.675  20.276  0.00  0.00    +0.000 A 
ENDROOT
BRANCH   3  16
ATOM     16  C   UNL     1       2.614   2.903  20.652  0.00  0.00    +0.000 C 
ATOM     17  C   UNL     1       4.040   2.340  20.842  0.00  0.00    +0.000 C 
ATOM     18  C   UNL     1       1.987   3.100  22.044  0.00  0.00    +0.000 C 
ATOM     19  C   UNL     1       1.764   1.861  19.892  0.00  0.00    +0.000 C 
ENDBRANCH   3  16
BRANCH   1  20
ATOM     20  C   UNL     1       4.036   5.424  16.560  0.00  0.00    +0.000 C 
BRANCH  20  21
ATOM     21  O   UNL     1       3.967   4.101  16.009  0.00  0.00    +0.000 OA
ATOM     22  H   UNL     1       3.918   3.488  16.768  0.00  0.00    +0.000 HD
ENDBRANCH  20  21
BRANCH  20  23
ATOM     23  C   UNL     1       5.527   5.858  16.716  0.00  0.00    +0.000 C 
BRANCH  23  24
ATOM     24  N   UNL     1       6.524   4.751  16.621  0.00  0.00    +0.000 NA
BRANCH  24  25
ATOM     25  C   UNL     1       7.215   4.835  15.308  0.00  0.00    +0.000 C 
BRANCH  25  26
ATOM     26  C   UNL     1       6.353   4.850  14.036  0.00  0.00    +0.000 C 
BRANCH  26  28
ATOM     27  C   UNL     1       5.569   3.331  12.205  0.00  0.00    +0.000 C 
ATOM     28  C   UNL     1       6.780   3.835  12.978  0.00  0.00    +0.000 C 
ENDBRANCH  26  28
ENDBRANCH  25  26
ENDBRANCH  24  25
BRANCH  24  29
ATOM     29  C   UNL     1       7.501   4.851  17.732  0.00  0.00    +0.000 C 
BRANCH  29  30
ATOM     30  C   UNL     1       7.255   5.968  18.764  0.00  0.00    +0.000 C 
BRANCH  30  31
ATOM     31  C   UNL     1       8.279   7.102  18.706  0.00  0.00    +0.000 C 
ATOM     32  C   UNL     1       7.867   8.150  17.680  0.00  0.00    +0.000 C 
ENDBRANCH  30  31
ENDBRANCH  29  30
ENDBRANCH  24  29
ENDBRANCH  23  24
ENDBRANCH  20  23
ENDBRANCH   1  20
TORSDOF 11
ENDMDL
MODEL 4
REMARK VINA RESULT:      -7.0      0.631      3.211
REMARK  Name = 
REMARK  17 active torsions:
REMARK  status: ('A' for Active; 'I' for Inactive)
REMARK    1  A    between atoms: C_1  and  C_2
REMARK    2  A    between atoms: C_2  and  C_3
REMARK    3  A    between atoms: C_3  and  C_4
REMARK    4  A    between atoms: C_4  and  N_5
REMARK    5  A    between atoms: N_5  and  C_6
REMARK    6  A    between atoms: N_5  and  C_10
REMARK    7  A    between atoms: C_6  and  C_7
REMARK    8  A    between atoms: C_7  and  C_8
REMARK    9  A    between atoms: C_8  and  C_9
REMARK   10  A    between atoms: C_10  and  C_11
REMARK   11  A    between atoms: C_11  and  O_12
REMARK   12  A    between atoms: C_11  and  C_13
REMARK   13  A    between atoms: C_15  and  C_16
REMARK   14  A    between atoms: C_16  and  C_17
REMARK   15  A    between atoms: C_16  and  C_18
REMARK   16  A    between atoms: C_16  and  C_19
REMARK   17  A    between atoms: C_24  and  C_25
REMARK                            x       y       z     vdW  Elec       q    Type
REMARK                         _______ _______ _______ _____ _____    ______ ____
ROOT
ATOM      1  C   UNL     1       3.713   5.790  18.076  0.00  0.00    +0.000 A 
ATOM      2  C   UNL     1       3.620   4.554  18.728  0.00  0.00    +0.000 A 
ATOM      3  C   UNL     1       2.780   4.398  19.814  0.00  0.00    +0.000 A 
ATOM      4  N   UNL     1       2.046   5.441  20.270  0.00  0.00    +0.000 NA
ATOM      5  C   UNL     1       2.113   6.664  19.678  0.00  0.00    +0.000 A 
ATOM      6  C   UNL     1       2.961   6.884  18.566  0.00  0.00    +0.000 A 
ATOM      7  C   UNL     1       3.028   8.174  18.002  0.00  0.00    +0.000 A 
ATOM      8  C   UNL     1       2.267   9.246  18.481  0.00  0.00    +0.000 A 
ATOM      9  C   UNL     1       2.409  10.585  17.804  0.00  0.00    +0.000 C 
ATOM     10  C   UNL     1       1.400   9.037  19.570  0.00  0.00    +0.000 A 
ATOM     11  C   UNL     1       0.590  10.073  20.086  0.00  0.00    +0.000 A 
ATOM     12  C   UNL     1      -0.268   9.859  21.169  0.00  0.00    +0.000 A 
ATOM     13  C   UNL     1      -0.338   8.606  21.748  0.00  0.00    +0.000 A 
ATOM     14  C   UNL     1       0.452   7.565  21.251  0.00  0.00    +0.000 A 
ATOM     15  C   UNL     1       1.332   7.743  20.161  0.00  0.00    +0.000 A 
ENDROOT
BRANCH   3  16
ATOM     16  C   UNL     1       2.676   3.036  20.510  0.00  0.00    +0.000 C 
ATOM     17  C   UNL     1       1.728   2.110  19.716  0.00  0.00    +0.000 C 
ATOM     18  C   UNL     1       4.047   2.345  20.612  0.00  0.00    +0.000 C 
ATOM     19  C   UNL     1       2.123   3.207  21.942  0.00  0.00    +0.000 C 
ENDBRANCH   3  16
BRANCH   1  20
ATOM     20  C   UNL     1       4.651   5.889  16.893  0.00  0.00    +0.000 C 
BRANCH  20  21
ATOM     21  O   UNL     1       4.138   6.844  15.952  0.00  0.00    +0.000 OA
ATOM     22  H   UNL     1       3.463   7.365  16.428  0.00  0.00    +0.000 HD
ENDBRANCH  20  21
BRANCH  20  23
ATOM     23  C   UNL     1       4.806   4.496  16.207  0.00  0.00    +0.000 C 
BRANCH  23  24
ATOM     24  N   UNL     1       6.213   4.036  16.013  0.00  0.00    +0.000 NA
BRANCH  24  25
ATOM     25  C   UNL     1       6.679   4.462  14.668  0.00  0.00    +0.000 C 
BRANCH  25  26
ATOM     26  C   UNL     1       5.724   4.274  13.478  0.00  0.00    +0.000 C 
BRANCH  26  28
ATOM     27  C   UNL     1       5.143   2.725  11.597  0.00  0.00    +0.000 C 
ATOM     28  C   UNL     1       6.278   3.389  12.364  0.00  0.00    +0.000 C 
ENDBRANCH  26  28
ENDBRANCH  25  26
ENDBRANCH  24  25
BRANCH  24  29
ATOM     29  C   UNL     1       7.083   4.605  17.071  0.00  0.00    +0.000 C 
BRANCH  29  30
ATOM     30  C   UNL     1       7.496   6.079  16.901  0.00  0.00    +0.000 C 
BRANCH  30  31
ATOM     31  C   UNL     1       7.798   6.794  18.219  0.00  0.00    +0.000 C 
ATOM     32  C   UNL     1       7.713   5.825  19.391  0.00  0.00    +0.000 C 
ENDBRANCH  30  31
ENDBRANCH  29  30
ENDBRANCH  24  29
ENDBRANCH  23  24
ENDBRANCH  20  23
ENDBRANCH   1  20
TORSDOF 11
ENDMDL
MODEL 5
REMARK VINA RESULT:      -7.0      1.106      3.167
REMARK  Name = 
REMARK  17 active torsions:
REMARK  status: ('A' for Active; 'I' for Inactive)
REMARK    1  A    between atoms: C_1  and  C_2
REMARK    2  A    between atoms: C_2  and  C_3
REMARK    3  A    between atoms: C_3  and  C_4
REMARK    4  A    between atoms: C_4  and  N_5
REMARK    5  A    between atoms: N_5  and  C_6
REMARK    6  A    between atoms: N_5  and  C_10
REMARK    7  A    between atoms: C_6  and  C_7
REMARK    8  A    between atoms: C_7  and  C_8
REMARK    9  A    between atoms: C_8  and  C_9
REMARK   10  A    between atoms: C_10  and  C_11
REMARK   11  A    between atoms: C_11  and  O_12
REMARK   12  A    between atoms: C_11  and  C_13
REMARK   13  A    between atoms: C_15  and  C_16
REMARK   14  A    between atoms: C_16  and  C_17
REMARK   15  A    between atoms: C_16  and  C_18
REMARK   16  A    between atoms: C_16  and  C_19
REMARK   17  A    between atoms: C_24  and  C_25
REMARK                            x       y       z     vdW  Elec       q    Type
REMARK                         _______ _______ _______ _____ _____    ______ ____
ROOT
ATOM      1  C   UNL     1       3.355   5.562  17.919  0.00  0.00    +0.000 A 
ATOM      2  C   UNL     1       3.323   4.355  18.628  0.00  0.00    +0.000 A 
ATOM      3  C   UNL     1       2.682   4.278  19.850  0.00  0.00    +0.000 A 
ATOM      4  N   UNL     1       2.087   5.371  20.383  0.00  0.00    +0.000 NA
ATOM      5  C   UNL     1       2.103   6.569  19.739  0.00  0.00    +0.000 A 
ATOM      6  C   UNL     1       2.751   6.709  18.487  0.00  0.00    +0.000 A 
ATOM      7  C   UNL     1       2.776   7.975  17.868  0.00  0.00    +0.000 A 
ATOM      8  C   UNL     1       2.161   9.100  18.428  0.00  0.00    +0.000 A 
ATOM      9  C   UNL     1       2.242  10.407  17.682  0.00  0.00    +0.000 C 
ATOM     10  C   UNL     1       1.491   8.972  19.659  0.00  0.00    +0.000 A 
ATOM     11  C   UNL     1       0.833  10.064  20.266  0.00  0.00    +0.000 A 
ATOM     12  C   UNL     1       0.171   9.930  21.490  0.00  0.00    +0.000 A 
ATOM     13  C   UNL     1       0.147   8.702  22.123  0.00  0.00    +0.000 A 
ATOM     14  C   UNL     1       0.789   7.606  21.540  0.00  0.00    +0.000 A 
ATOM     15  C   UNL     1       1.470   7.703  20.306  0.00  0.00    +0.000 A 
ENDROOT
BRANCH   3  16
ATOM     16  C   UNL     1       2.640   2.947  20.609  0.00  0.00    +0.000 C 
ATOM     17  C   UNL     1       2.028   3.159  22.012  0.00  0.00    +0.000 C 
ATOM     18  C   UNL     1       1.790   1.898  19.869  0.00  0.00    +0.000 C 
ATOM     19  C   UNL     1       4.065   2.376  20.768  0.00  0.00    +0.000 C 
ENDBRANCH   3  16
BRANCH   1  20
ATOM     20  C   UNL     1       4.073   5.574  16.588  0.00  0.00    +0.000 C 
BRANCH  20  21
ATOM     21  O   UNL     1       3.940   4.290  15.958  0.00  0.00    +0.000 OA
ATOM     22  H   UNL     1       4.598   3.706  16.382  0.00  0.00    +0.000 HD
ENDBRANCH  20  21
BRANCH  20  23
ATOM     23  C   UNL     1       5.583   5.913  16.791  0.00  0.00    +0.000 C 
BRANCH  23  24
ATOM     24  N   UNL     1       6.519   4.762  16.633  0.00  0.00    +0.000 NA
BRANCH  24  25
ATOM     25  C   UNL     1       7.174   4.851  15.302  0.00  0.00    +0.000 C 
BRANCH  25  26
ATOM     26  C   UNL     1       6.399   4.342  14.077  0.00  0.00    +0.000 C 
BRANCH  26  28
ATOM     27  C   UNL     1       8.074   5.568  12.676  0.00  0.00    +0.000 C 
ATOM     28  C   UNL     1       7.211   4.319  12.785  0.00  0.00    +0.000 C 
ENDBRANCH  26  28
ENDBRANCH  25  26
ENDBRANCH  24  25
BRANCH  24  29
ATOM     29  C   UNL     1       7.533   4.781  17.716  0.00  0.00    +0.000 C 
BRANCH  29  30
ATOM     30  C   UNL     1       7.331   5.828  18.826  0.00  0.00    +0.000 C 
BRANCH  30  31
ATOM     31  C   UNL     1       8.279   7.025  18.729  0.00  0.00    +0.000 C 
ATOM     32  C   UNL     1       7.790   8.019  17.684  0.00  0.00    +0.000 C 
ENDBRANCH  30  31
ENDBRANCH  29  30
ENDBRANCH  24  29
ENDBRANCH  23  24
ENDBRANCH  20  23
ENDBRANCH   1  20
TORSDOF 11
ENDMDL
MODEL 6
REMARK VINA RESULT:      -6.8      0.670      2.978
REMARK  Name = 
REMARK  17 active torsions:
REMARK  status: ('A' for Active; 'I' for Inactive)
REMARK    1  A    between atoms: C_1  and  C_2
REMARK    2  A    between atoms: C_2  and  C_3
REMARK    3  A    between atoms: C_3  and  C_4
REMARK    4  A    between atoms: C_4  and  N_5
REMARK    5  A    between atoms: N_5  and  C_6
REMARK    6  A    between atoms: N_5  and  C_10
REMARK    7  A    between atoms: C_6  and  C_7
REMARK    8  A    between atoms: C_7  and  C_8
REMARK    9  A    between atoms: C_8  and  C_9
REMARK   10  A    between atoms: C_10  and  C_11
REMARK   11  A    between atoms: C_11  and  O_12
REMARK   12  A    between atoms: C_11  and  C_13
REMARK   13  A    between atoms: C_15  and  C_16
REMARK   14  A    between atoms: C_16  and  C_17
REMARK   15  A    between atoms: C_16  and  C_18
REMARK   16  A    between atoms: C_16  and  C_19
REMARK   17  A    between atoms: C_24  and  C_25
REMARK                            x       y       z     vdW  Elec       q    Type
REMARK                         _______ _______ _______ _____ _____    ______ ____
ROOT
ATOM      1  C   UNL     1       3.605   5.900  18.113  0.00  0.00    +0.000 A 
ATOM      2  C   UNL     1       3.533   4.663  18.765  0.00  0.00    +0.000 A 
ATOM      3  C   UNL     1       2.724   4.503  19.874  0.00  0.00    +0.000 A 
ATOM      4  N   UNL     1       2.000   5.543  20.352  0.00  0.00    +0.000 NA
ATOM      5  C   UNL     1       2.048   6.767  19.761  0.00  0.00    +0.000 A 
ATOM      6  C   UNL     1       2.864   6.991  18.626  0.00  0.00    +0.000 A 
ATOM      7  C   UNL     1       2.913   8.283  18.063  0.00  0.00    +0.000 A 
ATOM      8  C   UNL     1       2.164   9.352  18.565  0.00  0.00    +0.000 A 
ATOM      9  C   UNL     1       2.284  10.692  17.887  0.00  0.00    +0.000 C 
ATOM     10  C   UNL     1       1.327   9.139  19.677  0.00  0.00    +0.000 A 
ATOM     11  C   UNL     1       0.530  10.173  20.218  0.00  0.00    +0.000 A 
ATOM     12  C   UNL     1      -0.297   9.955  21.324  0.00  0.00    +0.000 A 
ATOM     13  C   UNL     1      -0.348   8.700  21.902  0.00  0.00    +0.000 A 
ATOM     14  C   UNL     1       0.429   7.662  21.382  0.00  0.00    +0.000 A 
ATOM     15  C   UNL     1       1.278   7.844  20.268  0.00  0.00    +0.000 A 
ENDROOT
BRANCH   3  16
ATOM     16  C   UNL     1       2.641   3.140  20.571  0.00  0.00    +0.000 C 
ATOM     17  C   UNL     1       2.150   3.319  22.025  0.00  0.00    +0.000 C 
ATOM     18  C   UNL     1       1.666   2.192  19.849  0.00  0.00    +0.000 C 
ATOM     19  C   UNL     1       4.030   2.464  20.593  0.00  0.00    +0.000 C 
ENDBRANCH   3  16
BRANCH   1  20
ATOM     20  C   UNL     1       4.510   6.003  16.905  0.00  0.00    +0.000 C 
BRANCH  20  21
ATOM     21  O   UNL     1       4.044   7.054  16.045  0.00  0.00    +0.000 OA
ATOM     22  H   UNL     1       3.571   7.689  16.617  0.00  0.00    +0.000 HD
ENDBRANCH  20  21
BRANCH  20  23
ATOM     23  C   UNL     1       4.531   4.650  16.128  0.00  0.00    +0.000 C 
BRANCH  23  24
ATOM     24  N   UNL     1       5.830   4.313  15.475  0.00  0.00    +0.000 NA
BRANCH  24  25
ATOM     25  C   UNL     1       5.715   4.564  14.015  0.00  0.00    +0.000 C 
BRANCH  25  26
ATOM     26  C   UNL     1       6.519   3.668  13.060  0.00  0.00    +0.000 C 
BRANCH  26  28
ATOM     27  C   UNL     1       8.118   5.539  12.595  0.00  0.00    +0.000 C 
ATOM     28  C   UNL     1       7.280   4.428  11.977  0.00  0.00    +0.000 C 
ENDBRANCH  26  28
ENDBRANCH  25  26
ENDBRANCH  24  25
BRANCH  24  29
ATOM     29  C   UNL     1       6.919   5.130  16.061  0.00  0.00    +0.000 C 
BRANCH  29  30
ATOM     30  C   UNL     1       7.636   4.539  17.289  0.00  0.00    +0.000 C 
BRANCH  30  31
ATOM     31  C   UNL     1       7.406   5.326  18.580  0.00  0.00    +0.000 C 
ATOM     32  C   UNL     1       7.855   6.772  18.419  0.00  0.00    +0.000 C 
ENDBRANCH  30  31
ENDBRANCH  29  30
ENDBRANCH  24  29
ENDBRANCH  23  24
ENDBRANCH  20  23
ENDBRANCH   1  20
TORSDOF 11
ENDMDL
MODEL 7
REMARK VINA RESULT:      -6.8      1.151      3.499
REMARK  Name = 
REMARK  17 active torsions:
REMARK  status: ('A' for Active; 'I' for Inactive)
REMARK    1  A    between atoms: C_1  and  C_2
REMARK    2  A    between atoms: C_2  and  C_3
REMARK    3  A    between atoms: C_3  and  C_4
REMARK    4  A    between atoms: C_4  and  N_5
REMARK    5  A    between atoms: N_5  and  C_6
REMARK    6  A    between atoms: N_5  and  C_10
REMARK    7  A    between atoms: C_6  and  C_7
REMARK    8  A    between atoms: C_7  and  C_8
REMARK    9  A    between atoms: C_8  and  C_9
REMARK   10  A    between atoms: C_10  and  C_11
REMARK   11  A    between atoms: C_11  and  O_12
REMARK   12  A    between atoms: C_11  and  C_13
REMARK   13  A    between atoms: C_15  and  C_16
REMARK   14  A    between atoms: C_16  and  C_17
REMARK   15  A    between atoms: C_16  and  C_18
REMARK   16  A    between atoms: C_16  and  C_19
REMARK   17  A    between atoms: C_24  and  C_25
REMARK                            x       y       z     vdW  Elec       q    Type
REMARK                         _______ _______ _______ _____ _____    ______ ____
ROOT
ATOM      1  C   UNL     1       3.758   5.438  17.979  0.00  0.00    +0.000 A 
ATOM      2  C   UNL     1       3.670   4.231  18.682  0.00  0.00    +0.000 A 
ATOM      3  C   UNL     1       2.881   4.137  19.813  0.00  0.00    +0.000 A 
ATOM      4  N   UNL     1       2.194   5.213  20.263  0.00  0.00    +0.000 NA
ATOM      5  C   UNL     1       2.259   6.411  19.621  0.00  0.00    +0.000 A 
ATOM      6  C   UNL     1       3.056   6.568  18.462  0.00  0.00    +0.000 A 
ATOM      7  C   UNL     1       3.124   7.835  17.845  0.00  0.00    +0.000 A 
ATOM      8  C   UNL     1       2.412   8.942  18.319  0.00  0.00    +0.000 A 
ATOM      9  C   UNL     1       2.551  10.250  17.584  0.00  0.00    +0.000 C 
ATOM     10  C   UNL     1       1.595   8.795  19.456  0.00  0.00    +0.000 A 
ATOM     11  C   UNL     1       0.836   9.869  19.971  0.00  0.00    +0.000 A 
ATOM     12  C   UNL     1       0.028   9.717  21.101  0.00  0.00    +0.000 A 
ATOM     13  C   UNL     1      -0.041   8.489  21.731  0.00  0.00    +0.000 A 
ATOM     14  C   UNL     1       0.699   7.411  21.238  0.00  0.00    +0.000 A 
ATOM     15  C   UNL     1       1.528   7.527  20.100  0.00  0.00    +0.000 A 
ENDROOT
BRANCH   3  16
ATOM     16  C   UNL     1       2.781   2.805  20.566  0.00  0.00    +0.000 C 
ATOM     17  C   UNL     1       1.929   1.803  19.754  0.00  0.00    +0.000 C 
ATOM     18  C   UNL     1       4.168   2.178  20.797  0.00  0.00    +0.000 C 
ATOM     19  C   UNL     1       2.121   3.018  21.945  0.00  0.00    +0.000 C 
ENDBRANCH   3  16
BRANCH   1  20
ATOM     20  C   UNL     1       4.638   5.470  16.748  0.00  0.00    +0.000 C 
BRANCH  20  21
ATOM     21  O   UNL     1       3.996   4.760  15.679  0.00  0.00    +0.000 OA
ATOM     22  H   UNL     1       3.609   5.437  15.092  0.00  0.00    +0.000 HD
ENDBRANCH  20  21
BRANCH  20  23
ATOM     23  C   UNL     1       6.025   4.824  17.059  0.00  0.00    +0.000 C 
BRANCH  23  24
ATOM     24  N   UNL     1       7.203   5.547  16.496  0.00  0.00    +0.000 NA
BRANCH  24  25
ATOM     25  C   UNL     1       7.299   5.255  15.042  0.00  0.00    +0.000 C 
BRANCH  25  26
ATOM     26  C   UNL     1       6.614   3.986  14.511  0.00  0.00    +0.000 C 
BRANCH  26  28
ATOM     27  C   UNL     1       5.207   3.379  12.530  0.00  0.00    +0.000 C 
ATOM     28  C   UNL     1       6.566   3.890  12.988  0.00  0.00    +0.000 C 
ENDBRANCH  26  28
ENDBRANCH  25  26
ENDBRANCH  24  25
BRANCH  24  29
ATOM     29  C   UNL     1       7.061   7.005  16.727  0.00  0.00    +0.000 C 
BRANCH  29  30
ATOM     30  C   UNL     1       7.828   7.586  17.930  0.00  0.00    +0.000 C 
BRANCH  30  31
ATOM     31  C   UNL     1       8.007   9.104  17.875  0.00  0.00    +0.000 C 
ATOM     32  C   UNL     1       9.016   9.568  18.918  0.00  0.00    +0.000 C 
ENDBRANCH  30  31
ENDBRANCH  29  30
ENDBRANCH  24  29
ENDBRANCH  23  24
ENDBRANCH  20  23
ENDBRANCH   1  20
TORSDOF 11
ENDMDL
MODEL 8
REMARK VINA RESULT:      -6.7      4.871      8.961
REMARK  Name = 
REMARK  17 active torsions:
REMARK  status: ('A' for Active; 'I' for Inactive)
REMARK    1  A    between atoms: C_1  and  C_2
REMARK    2  A    between atoms: C_2  and  C_3
REMARK    3  A    between atoms: C_3  and  C_4
REMARK    4  A    between atoms: C_4  and  N_5
REMARK    5  A    between atoms: N_5  and  C_6
REMARK    6  A    between atoms: N_5  and  C_10
REMARK    7  A    between atoms: C_6  and  C_7
REMARK    8  A    between atoms: C_7  and  C_8
REMARK    9  A    between atoms: C_8  and  C_9
REMARK   10  A    between atoms: C_10  and  C_11
REMARK   11  A    between atoms: C_11  and  O_12
REMARK   12  A    between atoms: C_11  and  C_13
REMARK   13  A    between atoms: C_15  and  C_16
REMARK   14  A    between atoms: C_16  and  C_17
REMARK   15  A    between atoms: C_16  and  C_18
REMARK   16  A    between atoms: C_16  and  C_19
REMARK   17  A    between atoms: C_24  and  C_25
REMARK                            x       y       z     vdW  Elec       q    Type
REMARK                         _______ _______ _______ _____ _____    ______ ____
ROOT
ATOM      1  C   UNL     1      -2.576  12.185  18.928  0.00  0.00    +0.000 A 
ATOM      2  C   UNL     1      -3.869  11.751  18.611  0.00  0.00    +0.000 A 
ATOM      3  C   UNL     1      -4.926  12.030  19.455  0.00  0.00    +0.000 A 
ATOM      4  N   UNL     1      -4.725  12.715  20.606  0.00  0.00    +0.000 NA
ATOM      5  C   UNL     1      -3.485  13.146  20.963  0.00  0.00    +0.000 A 
ATOM      6  C   UNL     1      -2.363  12.883  20.140  0.00  0.00    +0.000 A 
ATOM      7  C   UNL     1      -1.089  13.316  20.562  0.00  0.00    +0.000 A 
ATOM      8  C   UNL     1      -0.890  14.022  21.753  0.00  0.00    +0.000 A 
ATOM      9  C   UNL     1       0.511  14.444  22.111  0.00  0.00    +0.000 C 
ATOM     10  C   UNL     1      -2.000  14.313  22.570  0.00  0.00    +0.000 A 
ATOM     11  C   UNL     1      -1.867  15.039  23.774  0.00  0.00    +0.000 A 
ATOM     12  C   UNL     1      -2.973  15.324  24.581  0.00  0.00    +0.000 A 
ATOM     13  C   UNL     1      -4.229  14.895  24.195  0.00  0.00    +0.000 A 
ATOM     14  C   UNL     1      -4.384  14.177  23.006  0.00  0.00    +0.000 A 
ATOM     15  C   UNL     1      -3.291  13.869  22.166  0.00  0.00    +0.000 A 
ENDROOT
BRANCH   3  16
ATOM     16  C   UNL     1      -6.340  11.562  19.090  0.00  0.00    +0.000 C 
ATOM     17  C   UNL     1      -6.871  12.376  17.889  0.00  0.00    +0.000 C 
ATOM     18  C   UNL     1      -6.363  10.071  18.706  0.00  0.00    +0.000 C 
ATOM     19  C   UNL     1      -7.295  11.758  20.287  0.00  0.00    +0.000 C 
ENDBRANCH   3  16
BRANCH   1  20
ATOM     20  C   UNL     1      -1.465  11.846  17.957  0.00  0.00    +0.000 C 
BRANCH  20  21
ATOM     21  O   UNL     1      -2.016  11.649  16.647  0.00  0.00    +0.000 OA
ATOM     22  H   UNL     1      -1.869  12.481  16.158  0.00  0.00    +0.000 HD
ENDBRANCH  20  21
BRANCH  20  23
ATOM     23  C   UNL     1      -0.718  10.557  18.421  0.00  0.00    +0.000 C 
BRANCH  23  24
ATOM     24  N   UNL     1       0.687  10.767  18.877  0.00  0.00    +0.000 NA
BRANCH  24  25
ATOM     25  C   UNL     1       0.843  10.199  20.241  0.00  0.00    +0.000 C 
BRANCH  25  26
ATOM     26  C   UNL     1      -0.420   9.722  20.975  0.00  0.00    +0.000 C 
BRANCH  26  28
ATOM     27  C   UNL     1       0.029   9.461  23.426  0.00  0.00    +0.000 C 
ATOM     28  C   UNL     1      -0.611  10.338  22.359  0.00  0.00    +0.000 C 
ENDBRANCH  26  28
ENDBRANCH  25  26
ENDBRANCH  24  25
BRANCH  24  29
ATOM     29  C   UNL     1       1.629  10.120  17.931  0.00  0.00    +0.000 C 
BRANCH  29  30
ATOM     30  C   UNL     1       1.578   8.582  17.857  0.00  0.00    +0.000 C 
BRANCH  30  31
ATOM     31  C   UNL     1       2.956   7.918  17.820  0.00  0.00    +0.000 C 
ATOM     32  C   UNL     1       2.856   6.446  18.197  0.00  0.00    +0.000 C 
ENDBRANCH  30  31
ENDBRANCH  29  30
ENDBRANCH  24  29
ENDBRANCH  23  24
ENDBRANCH  20  23
ENDBRANCH   1  20
TORSDOF 11
ENDMDL
MODEL 9
REMARK VINA RESULT:      -6.6      0.909      1.539
REMARK  Name = 
REMARK  17 active torsions:
REMARK  status: ('A' for Active; 'I' for Inactive)
REMARK    1  A    between atoms: C_1  and  C_2
REMARK    2  A    between atoms: C_2  and  C_3
REMARK    3  A    between atoms: C_3  and  C_4
REMARK    4  A    between atoms: C_4  and  N_5
REMARK    5  A    between atoms: N_5  and  C_6
REMARK    6  A    between atoms: N_5  and  C_10
REMARK    7  A    between atoms: C_6  and  C_7
REMARK    8  A    between atoms: C_7  and  C_8
REMARK    9  A    between atoms: C_8  and  C_9
REMARK   10  A    between atoms: C_10  and  C_11
REMARK   11  A    between atoms: C_11  and  O_12
REMARK   12  A    between atoms: C_11  and  C_13
REMARK   13  A    between atoms: C_15  and  C_16
REMARK   14  A    between atoms: C_16  and  C_17
REMARK   15  A    between atoms: C_16  and  C_18
REMARK   16  A    between atoms: C_16  and  C_19
REMARK   17  A    between atoms: C_24  and  C_25
REMARK                            x       y       z     vdW  Elec       q    Type
REMARK                         _______ _______ _______ _____ _____    ______ ____
ROOT
ATOM      1  C   UNL     1       3.414   6.816  18.161  0.00  0.00    +0.000 A 
ATOM      2  C   UNL     1       3.367   5.509  18.662  0.00  0.00    +0.000 A 
ATOM      3  C   UNL     1       2.544   5.199  19.729  0.00  0.00    +0.000 A 
ATOM      4  N   UNL     1       1.783   6.156  20.311  0.00  0.00    +0.000 NA
ATOM      5  C   UNL     1       1.806   7.442  19.868  0.00  0.00    +0.000 A 
ATOM      6  C   UNL     1       2.634   7.820  18.783  0.00  0.00    +0.000 A 
ATOM      7  C   UNL     1       2.655   9.169  18.376  0.00  0.00    +0.000 A 
ATOM      8  C   UNL     1       1.867  10.152  18.984  0.00  0.00    +0.000 A 
ATOM      9  C   UNL     1       1.960  11.565  18.470  0.00  0.00    +0.000 C 
ATOM     10  C   UNL     1       1.019   9.788  20.048  0.00  0.00    +0.000 A 
ATOM     11  C   UNL     1       0.184  10.729  20.689  0.00  0.00    +0.000 A 
ATOM     12  C   UNL     1      -0.655  10.361  21.746  0.00  0.00    +0.000 A 
ATOM     13  C   UNL     1      -0.679   9.047  22.173  0.00  0.00    +0.000 A 
ATOM     14  C   UNL     1       0.136   8.098  21.550  0.00  0.00    +0.000 A 
ATOM     15  C   UNL     1       0.997   8.432  20.482  0.00  0.00    +0.000 A 
ENDROOT
BRANCH   3  16
ATOM     16  C   UNL     1       2.490   3.762  20.260  0.00  0.00    +0.000 C 
ATOM     17  C   UNL     1       2.342   3.773  21.797  0.00  0.00    +0.000 C 
ATOM     18  C   UNL     1       1.299   2.985  19.670  0.00  0.00    +0.000 C 
ATOM     19  C   UNL     1       3.782   3.004  19.888  0.00  0.00    +0.000 C 
ENDBRANCH   3  16
BRANCH   1  20
ATOM     20  C   UNL     1       4.335   7.084  16.991  0.00  0.00    +0.000 C 
BRANCH  20  21
ATOM     21  O   UNL     1       3.565   7.539  15.868  0.00  0.00    +0.000 OA
ATOM     22  H   UNL     1       3.429   6.761  15.293  0.00  0.00    +0.000 HD
ENDBRANCH  20  21
BRANCH  20  23
ATOM     23  C   UNL     1       5.117   5.789  16.610  0.00  0.00    +0.000 C 
BRANCH  23  24
ATOM     24  N   UNL     1       6.498   6.011  16.089  0.00  0.00    +0.000 NA
BRANCH  24  25
ATOM     25  C   UNL     1       7.363   6.486  17.199  0.00  0.00    +0.000 C 
BRANCH  25  26
ATOM     26  C   UNL     1       7.562   8.000  17.365  0.00  0.00    +0.000 C 
BRANCH  26  28
ATOM     27  C   UNL     1       8.838   9.862  18.452  0.00  0.00    +0.000 C 
ATOM     28  C   UNL     1       8.457   8.390  18.539  0.00  0.00    +0.000 C 
ENDBRANCH  26  28
ENDBRANCH  25  26
ENDBRANCH  24  25
BRANCH  24  29
ATOM     29  C   UNL     1       7.030   4.752  15.513  0.00  0.00    +0.000 C 
BRANCH  29  30
ATOM     30  C   UNL     1       6.001   3.797  14.879  0.00  0.00    +0.000 C 
BRANCH  30  31
ATOM     31  C   UNL     1       5.598   4.180  13.454  0.00  0.00    +0.000 C 
ATOM     32  C   UNL     1       6.273   3.268  12.438  0.00  0.00    +0.000 C 
ENDBRANCH  30  31
ENDBRANCH  29  30
ENDBRANCH  24  29
ENDBRANCH  23  24
ENDBRANCH  20  23
ENDBRANCH   1  20
TORSDOF 11
ENDMDL
