MODEL 1
REMARK VINA RESULT:      -6.8      0.000      0.000
REMARK  Name = 
REMARK  13 active torsions:
REMARK  status: ('A' for Active; 'I' for Inactive)
REMARK    1  A    between atoms: C_1  and  C_2
REMARK    2  A    between atoms: C_2  and  O_3
REMARK    3  A    between atoms: O_3  and  C_4
REMARK    4  A    between atoms: C_4  and  C_6
REMARK    5  A    between atoms: C_8  and  C_9
REMARK    6  A    between atoms: N_10  and  C_11
REMARK    7  A    between atoms: C_11  and  C_12
REMARK    8  A    between atoms: C_15  and  O_16
REMARK    9  A    between atoms: O_16  and  C_17
REMARK   10  A    between atoms: C_17  and  C_18
REMARK   11  A    between atoms: C_19  and  O_20
REMARK   12  A    between atoms: O_20  and  C_21
REMARK   13  A    between atoms: C_23  and  C_24
REMARK                            x       y       z     vdW  Elec       q    Type
REMARK                         _______ _______ _______ _____ _____    ______ ____
ROOT
ATOM      1  C   UNL     1       4.119   3.697  18.673  0.00  0.00    +0.000 A 
ATOM      2  C   UNL     1       5.411   4.291  18.688  0.00  0.00    +0.000 A 
ATOM      3  C   UNL     1       5.327   5.542  18.112  0.00  0.00    +0.000 A 
ATOM      4  C   UNL     1       6.413   6.530  17.862  0.00  0.00    +0.000 C 
ATOM      5  N   UNL     1       4.002   5.752  17.776  0.00  0.00    +0.000 N 
ATOM      6  C   UNL     1       3.271   4.606  18.045  0.00  0.00    +0.000 A 
ATOM      7  C   UNL     1       1.819   4.452  17.733  0.00  0.00    +0.000 C 
ENDROOT
BRANCH   1   8
ATOM      8  C   UNL     1       3.715   2.417  19.241  0.00  0.00    +0.000 C 
ATOM      9  O   UNL     1       3.309   1.469  18.576  0.00  0.00    +0.000 OA
BRANCH   8  10
ATOM     10  O   UNL     1       3.731   2.436  20.608  0.00  0.00    +0.000 OA
BRANCH  10  12
ATOM     11  C   UNL     1       2.070   3.934  21.447  0.00  0.00    +0.000 C 
ATOM     12  C   UNL     1       2.436   2.477  21.218  0.00  0.00    +0.000 C 
ENDBRANCH  10  12
ENDBRANCH   8  10
ENDBRANCH   1   8
BRANCH   5  13
ATOM     13  C   UNL     1       3.463   7.004  17.228  0.00  0.00    +0.000 C 
BRANCH  13  14
ATOM     14  C   UNL     1       2.546   7.757  18.167  0.00  0.00    +0.000 A 
ATOM     15  C   UNL     1       2.475   7.361  19.506  0.00  0.00    +0.000 A 
ATOM     16  C   UNL     1       1.686   8.077  20.412  0.00  0.00    +0.000 A 
ATOM     17  C   UNL     1       0.952   9.203  20.014  0.00  0.00    +0.000 A 
ATOM     18  C   UNL     1       0.990   9.600  18.664  0.00  0.00    +0.000 A 
ATOM     19  C   UNL     1       1.769   8.857  17.761  0.00  0.00    +0.000 A 
BRANCH  18  20
ATOM     20  O   UNL     1       0.275  10.699  18.277  0.00  0.00    +0.000 OA
ATOM     21  C   UNL     1      -1.107  10.539  17.975  0.00  0.00    +0.000 C 
ENDBRANCH  18  20
BRANCH  17  22
ATOM     22  O   UNL     1       0.276   9.785  21.055  0.00  0.00    +0.000 OA
BRANCH  22  23
ATOM     23  C   UNL     1       0.733   9.542  22.382  0.00  0.00    +0.000 C 
ATOM     24  C   UNL     1      -0.432   9.719  23.340  0.00  0.00    +0.000 C 
ENDBRANCH  22  23
ENDBRANCH  17  22
ENDBRANCH  13  14
ENDBRANCH   5  13
TORSDOF 8
ENDMDL
MODEL 2
REMARK VINA RESULT:      -6.8      2.543      4.374
REMARK  Name = 
REMARK  13 active torsions:
REMARK  status: ('A' for Active; 'I' for Inactive)
REMARK    1  A    between atoms: C_1  and  C_2
REMARK    2  A    between atoms: C_2  and  O_3
REMARK    3  A    between atoms: O_3  and  C_4
REMARK    4  A    between atoms: C_4  and  C_6
REMARK    5  A    between atoms: C_8  and  C_9
REMARK    6  A    between atoms: N_10  and  C_11
REMARK    7  A    between atoms: C_11  and  C_12
REMARK    8  A    between atoms: C_15  and  O_16
REMARK    9  A    between atoms: O_16  and  C_17
REMARK   10  A    between atoms: C_17  and  C_18
REMARK   11  A    between atoms: C_19  and  O_20
REMARK   12  A    between atoms: O_20  and  C_21
REMARK   13  A    between atoms: C_23  and  C_24
REMARK                            x       y       z     vdW  Elec       q    Type
REMARK                         _______ _______ _______ _____ _____    ______ ____
ROOT
ATOM      1  C   UNL     1       5.168   4.323  16.899  0.00  0.00    +0.000 A 
ATOM      2  C   UNL     1       3.849   3.878  16.612  0.00  0.00    +0.000 A 
ATOM      3  C   UNL     1       3.024   4.242  17.657  0.00  0.00    +0.000 A 
ATOM      4  C   UNL     1       1.572   3.969  17.841  0.00  0.00    +0.000 C 
ATOM      5  N   UNL     1       3.798   4.940  18.567  0.00  0.00    +0.000 N 
ATOM      6  C   UNL     1       5.119   4.931  18.151  0.00  0.00    +0.000 A 
ATOM      7  C   UNL     1       6.243   5.525  18.934  0.00  0.00    +0.000 C 
ENDROOT
BRANCH   1   8
ATOM      8  C   UNL     1       6.349   4.229  16.050  0.00  0.00    +0.000 C 
ATOM      9  O   UNL     1       7.408   4.804  16.282  0.00  0.00    +0.000 OA
BRANCH   8  10
ATOM     10  O   UNL     1       6.103   3.521  14.907  0.00  0.00    +0.000 OA
BRANCH  10  12
ATOM     11  C   UNL     1       6.002   3.387  12.524  0.00  0.00    +0.000 C 
ATOM     12  C   UNL     1       6.589   4.135  13.708  0.00  0.00    +0.000 C 
ENDBRANCH  10  12
ENDBRANCH   8  10
ENDBRANCH   1   8
BRANCH   5  13
ATOM     13  C   UNL     1       3.285   5.594  19.779  0.00  0.00    +0.000 C 
BRANCH  13  14
ATOM     14  C   UNL     1       2.615   6.928  19.537  0.00  0.00    +0.000 A 
ATOM     15  C   UNL     1       2.691   7.503  18.265  0.00  0.00    +0.000 A 
ATOM     16  C   UNL     1       2.028   8.703  17.993  0.00  0.00    +0.000 A 
ATOM     17  C   UNL     1       1.271   9.360  18.973  0.00  0.00    +0.000 A 
ATOM     18  C   UNL     1       1.205   8.811  20.266  0.00  0.00    +0.000 A 
ATOM     19  C   UNL     1       1.896   7.616  20.531  0.00  0.00    +0.000 A 
BRANCH  18  20
ATOM     20  O   UNL     1       0.465   9.452  21.221  0.00  0.00    +0.000 OA
ATOM     21  C   UNL     1      -0.560   8.724  21.889  0.00  0.00    +0.000 C 
ENDBRANCH  18  20
BRANCH  17  22
ATOM     22  O   UNL     1       0.669  10.498  18.498  0.00  0.00    +0.000 OA
BRANCH  22  23
ATOM     23  C   UNL     1       1.287  11.754  18.764  0.00  0.00    +0.000 C 
ATOM     24  C   UNL     1       0.221  12.836  18.741  0.00  0.00    +0.000 C 
ENDBRANCH  22  23
ENDBRANCH  17  22
ENDBRANCH  13  14
ENDBRANCH   5  13
TORSDOF 8
ENDMDL
MODEL 3
REMARK VINA RESULT:      -6.7      2.609      4.072
REMARK  Name = 
REMARK  13 active torsions:
REMARK  status: ('A' for Active; 'I' for Inactive)
REMARK    1  A    between atoms: C_1  and  C_2
REMARK    2  A    between atoms: C_2  and  O_3
REMARK    3  A    between atoms: O_3  and  C_4
REMARK    4  A    between atoms: C_4  and  C_6
REMARK    5  A    between atoms: C_8  and  C_9
REMARK    6  A    between atoms: N_10  and  C_11
REMARK    7  A    between atoms: C_11  and  C_12
REMARK    8  A    between atoms: C_15  and  O_16
REMARK    9  A    between atoms: O_16  and  C_17
REMARK   10  A    between atoms: C_17  and  C_18
REMARK   11  A    between atoms: C_19  and  O_20
REMARK   12  A    between atoms: O_20  and  C_21
REMARK   13  A    between atoms: C_23  and  C_24
REMARK                            x       y       z     vdW  Elec       q    Type
REMARK                         _______ _______ _______ _____ _____    ______ ____
ROOT
ATOM      1  C   UNL     1       5.524   4.612  16.918  0.00  0.00    +0.000 A 
ATOM      2  C   UNL     1       4.277   4.100  16.467  0.00  0.00    +0.000 A 
ATOM      3  C   UNL     1       3.360   4.207  17.492  0.00  0.00    +0.000 A 
ATOM      4  C   UNL     1       1.935   3.772  17.520  0.00  0.00    +0.000 C 
ATOM      5  N   UNL     1       4.002   4.812  18.557  0.00  0.00    +0.000 N 
ATOM      6  C   UNL     1       5.339   4.995  18.245  0.00  0.00    +0.000 A 
ATOM      7  C   UNL     1       6.347   5.553  19.194  0.00  0.00    +0.000 C 
ENDROOT
BRANCH   1   8
ATOM      8  C   UNL     1       6.756   4.771  16.156  0.00  0.00    +0.000 C 
ATOM      9  O   UNL     1       7.861   4.417  16.556  0.00  0.00    +0.000 OA
BRANCH   8  10
ATOM     10  O   UNL     1       6.554   5.465  14.995  0.00  0.00    +0.000 OA
BRANCH  10  12
ATOM     11  C   UNL     1       6.183   3.799  13.325  0.00  0.00    +0.000 C 
ATOM     12  C   UNL     1       7.138   4.865  13.833  0.00  0.00    +0.000 C 
ENDBRANCH  10  12
ENDBRANCH   8  10
ENDBRANCH   1   8
BRANCH   5  13
ATOM     13  C   UNL     1       3.354   5.204  19.816  0.00  0.00    +0.000 C 
BRANCH  13  14
ATOM     14  C   UNL     1       2.568   6.494  19.742  0.00  0.00    +0.000 A 
ATOM     15  C   UNL     1       1.796   6.881  20.841  0.00  0.00    +0.000 A 
ATOM     16  C   UNL     1       1.109   8.099  20.827  0.00  0.00    +0.000 A 
ATOM     17  C   UNL     1       1.176   8.965  19.727  0.00  0.00    +0.000 A 
ATOM     18  C   UNL     1       1.927   8.581  18.601  0.00  0.00    +0.000 A 
ATOM     19  C   UNL     1       2.592   7.343  18.620  0.00  0.00    +0.000 A 
BRANCH  18  20
ATOM     20  O   UNL     1       1.992   9.426  17.528  0.00  0.00    +0.000 OA
ATOM     21  C   UNL     1       2.405  10.771  17.747  0.00  0.00    +0.000 C 
ENDBRANCH  18  20
BRANCH  17  22
ATOM     22  O   UNL     1       0.467  10.122  19.924  0.00  0.00    +0.000 OA
BRANCH  22  23
ATOM     23  C   UNL     1       0.571  10.776  21.186  0.00  0.00    +0.000 C 
ATOM     24  C   UNL     1      -0.800  11.295  21.581  0.00  0.00    +0.000 C 
ENDBRANCH  22  23
ENDBRANCH  17  22
ENDBRANCH  13  14
ENDBRANCH   5  13
TORSDOF 8
ENDMDL
MODEL 4
REMARK VINA RESULT:      -6.6      2.990      5.440
REMARK  Name = 
REMARK  13 active torsions:
REMARK  status: ('A' for Active; 'I' for Inactive)
REMARK    1  A    between atoms: C_1  and  C_2
REMARK    2  A    between atoms: C_2  and  O_3
REMARK    3  A    between atoms: O_3  and  C_4
REMARK    4  A    between atoms: C_4  and  C_6
REMARK    5  A    between atoms: C_8  and  C_9
REMARK    6  A    between atoms: N_10  and  C_11
REMARK    7  A    between atoms: C_11  and  C_12
REMARK    8  A    between atoms: C_15  and  O_16
REMARK    9  A    between atoms: O_16  and  C_17
REMARK   10  A    between atoms: C_17  and  C_18
REMARK   11  A    between atoms: C_19  and  O_20
REMARK   12  A    between atoms: O_20  and  C_21
REMARK   13  A    between atoms: C_23  and  C_24
REMARK                            x       y       z     vdW  Elec       q    Type
REMARK                         _______ _______ _______ _____ _____    ______ ____
ROOT
ATOM      1  C   UNL     1       1.736   7.698  20.148  0.00  0.00    +0.000 A 
ATOM      2  C   UNL     1       1.152   8.206  21.340  0.00  0.00    +0.000 A 
ATOM      3  C   UNL     1       0.688   9.482  21.093  0.00  0.00    +0.000 A 
ATOM      4  C   UNL     1       0.036  10.437  22.032  0.00  0.00    +0.000 C 
ATOM      5  N   UNL     1       0.936   9.760  19.761  0.00  0.00    +0.000 N 
ATOM      6  C   UNL     1       1.641   8.710  19.196  0.00  0.00    +0.000 A 
ATOM      7  C   UNL     1       2.145   8.707  17.790  0.00  0.00    +0.000 C 
ENDROOT
BRANCH   1   8
ATOM      8  C   UNL     1       2.286   6.368  19.917  0.00  0.00    +0.000 C 
ATOM      9  O   UNL     1       3.041   6.090  18.990  0.00  0.00    +0.000 OA
BRANCH   8  10
ATOM     10  O   UNL     1       1.770   5.443  20.781  0.00  0.00    +0.000 OA
BRANCH  10  12
ATOM     11  C   UNL     1       1.367   3.108  21.083  0.00  0.00    +0.000 C 
ATOM     12  C   UNL     1       1.192   4.294  20.150  0.00  0.00    +0.000 C 
ENDBRANCH  10  12
ENDBRANCH   8  10
ENDBRANCH   1   8
BRANCH   5  13
ATOM     13  C   UNL     1       0.507  10.979  19.063  0.00  0.00    +0.000 C 
BRANCH  13  14
ATOM     14  C   UNL     1      -0.929  10.958  18.589  0.00  0.00    +0.000 A 
ATOM     15  C   UNL     1      -1.868  11.767  19.234  0.00  0.00    +0.000 A 
ATOM     16  C   UNL     1      -3.189  11.817  18.778  0.00  0.00    +0.000 A 
ATOM     17  C   UNL     1      -3.609  11.071  17.669  0.00  0.00    +0.000 A 
ATOM     18  C   UNL     1      -2.685  10.230  17.022  0.00  0.00    +0.000 A 
ATOM     19  C   UNL     1      -1.367  10.172  17.507  0.00  0.00    +0.000 A 
BRANCH  18  20
ATOM     20  O   UNL     1      -3.095   9.503  15.939  0.00  0.00    +0.000 OA
ATOM     21  C   UNL     1      -3.010  10.098  14.649  0.00  0.00    +0.000 C 
ENDBRANCH  18  20
BRANCH  17  22
ATOM     22  O   UNL     1      -4.928  11.287  17.358  0.00  0.00    +0.000 OA
BRANCH  22  23
ATOM     23  C   UNL     1      -5.925  10.780  18.240  0.00  0.00    +0.000 C 
ATOM     24  C   UNL     1      -7.005  11.835  18.411  0.00  0.00    +0.000 C 
ENDBRANCH  22  23
ENDBRANCH  17  22
ENDBRANCH  13  14
ENDBRANCH   5  13
TORSDOF 8
ENDMDL
MODEL 5
REMARK VINA RESULT:      -6.6      2.337      4.117
REMARK  Name = 
REMARK  13 active torsions:
REMARK  status: ('A' for Active; 'I' for Inactive)
REMARK    1  A    between atoms: C_1  and  C_2
REMARK    2  A    between atoms: C_2  and  O_3
REMARK    3  A    between atoms: O_3  and  C_4
REMARK    4  A    between atoms: C_4  and  C_6
REMARK    5  A    between atoms: C_8  and  C_9
REMARK    6  A    between atoms: N_10  and  C_11
REMARK    7  A    between atoms: C_11  and  C_12
REMARK    8  A    between atoms: C_15  and  O_16
REMARK    9  A    between atoms: O_16  and  C_17
REMARK   10  A    between atoms: C_17  and  C_18
REMARK   11  A    between atoms: C_19  and  O_20
REMARK   12  A    between atoms: O_20  and  C_21
REMARK   13  A    between atoms: C_23  and  C_24
REMARK                            x       y       z     vdW  Elec       q    Type
REMARK                         _______ _______ _______ _____ _____    ______ ____
ROOT
ATOM      1  C   UNL     1       6.026   5.238  17.949  0.00  0.00    +0.000 A 
ATOM      2  C   UNL     1       5.585   4.550  19.112  0.00  0.00    +0.000 A 
ATOM      3  C   UNL     1       4.237   4.793  19.282  0.00  0.00    +0.000 A 
ATOM      4  C   UNL     1       3.334   4.328  20.372  0.00  0.00    +0.000 C 
ATOM      5  N   UNL     1       3.825   5.585  18.226  0.00  0.00    +0.000 N 
ATOM      6  C   UNL     1       4.921   5.924  17.449  0.00  0.00    +0.000 A 
ATOM      7  C   UNL     1       4.855   6.835  16.268  0.00  0.00    +0.000 C 
ENDROOT
BRANCH   1   8
ATOM      8  C   UNL     1       7.351   5.211  17.341  0.00  0.00    +0.000 C 
ATOM      9  O   UNL     1       7.999   4.186  17.156  0.00  0.00    +0.000 OA
BRANCH   8  10
ATOM     10  O   UNL     1       7.834   6.469  17.110  0.00  0.00    +0.000 OA
BRANCH  10  12
ATOM     11  C   UNL     1       7.975   8.729  17.870  0.00  0.00    +0.000 C 
ATOM     12  C   UNL     1       8.002   7.268  18.287  0.00  0.00    +0.000 C 
ENDBRANCH  10  12
ENDBRANCH   8  10
ENDBRANCH   1   8
BRANCH   5  13
ATOM     13  C   UNL     1       2.436   5.990  17.971  0.00  0.00    +0.000 C 
BRANCH  13  14
ATOM     14  C   UNL     1       2.065   7.345  18.531  0.00  0.00    +0.000 A 
ATOM     15  C   UNL     1       1.900   8.419  17.651  0.00  0.00    +0.000 A 
ATOM     16  C   UNL     1       1.495   9.668  18.131  0.00  0.00    +0.000 A 
ATOM     17  C   UNL     1       1.238   9.882  19.492  0.00  0.00    +0.000 A 
ATOM     18  C   UNL     1       1.425   8.820  20.396  0.00  0.00    +0.000 A 
ATOM     19  C   UNL     1       1.855   7.577  19.902  0.00  0.00    +0.000 A 
BRANCH  18  20
ATOM     20  O   UNL     1       1.173   9.029  21.724  0.00  0.00    +0.000 OA
ATOM     21  C   UNL     1      -0.158   8.859  22.199  0.00  0.00    +0.000 C 
ENDBRANCH  18  20
BRANCH  17  22
ATOM     22  O   UNL     1       0.816  11.161  19.753  0.00  0.00    +0.000 OA
BRANCH  22  23
ATOM     23  C   UNL     1       1.610  12.247  19.287  0.00  0.00    +0.000 C 
ATOM     24  C   UNL     1       0.693  13.401  18.922  0.00  0.00    +0.000 C 
ENDBRANCH  22  23
ENDBRANCH  17  22
ENDBRANCH  13  14
ENDBRANCH   5  13
TORSDOF 8
ENDMDL
MODEL 6
REMARK VINA RESULT:      -6.5      0.917      1.043
REMARK  Name = 
REMARK  13 active torsions:
REMARK  status: ('A' for Active; 'I' for Inactive)
REMARK    1  A    between atoms: C_1  and  C_2
REMARK    2  A    between atoms: C_2  and  O_3
REMARK    3  A    between atoms: O_3  and  C_4
REMARK    4  A    between atoms: C_4  and  C_6
REMARK    5  A    between atoms: C_8  and  C_9
REMARK    6  A    between atoms: N_10  and  C_11
REMARK    7  A    between atoms: C_11  and  C_12
REMARK    8  A    between atoms: C_15  and  O_16
REMARK    9  A    between atoms: O_16  and  C_17
REMARK   10  A    between atoms: C_17  and  C_18
REMARK   11  A    between atoms: C_19  and  O_20
REMARK   12  A    between atoms: O_20  and  C_21
REMARK   13  A    between atoms: C_23  and  C_24
REMARK                            x       y       z     vdW  Elec       q    Type
REMARK                         _______ _______ _______ _____ _____    ______ ____
ROOT
ATOM      1  C   UNL     1       3.900   3.779  18.491  0.00  0.00    +0.000 A 
ATOM      2  C   UNL     1       5.106   4.528  18.407  0.00  0.00    +0.000 A 
ATOM      3  C   UNL     1       4.804   5.801  17.969  0.00  0.00    +0.000 A 
ATOM      4  C   UNL     1       5.726   6.936  17.687  0.00  0.00    +0.000 C 
ATOM      5  N   UNL     1       3.430   5.869  17.819  0.00  0.00    +0.000 N 
ATOM      6  C   UNL     1       2.878   4.622  18.062  0.00  0.00    +0.000 A 
ATOM      7  C   UNL     1       1.425   4.312  17.914  0.00  0.00    +0.000 C 
ENDROOT
BRANCH   1   8
ATOM      8  C   UNL     1       3.725   2.416  18.977  0.00  0.00    +0.000 C 
ATOM      9  O   UNL     1       3.533   1.448  18.248  0.00  0.00    +0.000 OA
BRANCH   8  10
ATOM     10  O   UNL     1       3.682   2.361  20.342  0.00  0.00    +0.000 OA
BRANCH  10  12
ATOM     11  C   UNL     1       2.153   3.715  21.581  0.00  0.00    +0.000 C 
ATOM     12  C   UNL     1       2.362   2.374  20.898  0.00  0.00    +0.000 C 
ENDBRANCH  10  12
ENDBRANCH   8  10
ENDBRANCH   1   8
BRANCH   5  13
ATOM     13  C   UNL     1       2.683   7.084  17.465  0.00  0.00    +0.000 C 
BRANCH  13  14
ATOM     14  C   UNL     1       2.113   7.837  18.646  0.00  0.00    +0.000 A 
ATOM     15  C   UNL     1       2.163   7.247  19.913  0.00  0.00    +0.000 A 
ATOM     16  C   UNL     1       1.702   7.945  21.034  0.00  0.00    +0.000 A 
ATOM     17  C   UNL     1       1.186   9.243  20.927  0.00  0.00    +0.000 A 
ATOM     18  C   UNL     1       1.103   9.843  19.657  0.00  0.00    +0.000 A 
ATOM     19  C   UNL     1       1.548   9.120  18.537  0.00  0.00    +0.000 A 
BRANCH  18  20
ATOM     20  O   UNL     1       0.600  11.110  19.554  0.00  0.00    +0.000 OA
ATOM     21  C   UNL     1       1.510  12.205  19.553  0.00  0.00    +0.000 C 
ENDBRANCH  18  20
BRANCH  17  22
ATOM     22  O   UNL     1       0.825   9.767  22.143  0.00  0.00    +0.000 OA
BRANCH  22  23
ATOM     23  C   UNL     1      -0.511   9.572  22.597  0.00  0.00    +0.000 C 
ATOM     24  C   UNL     1      -1.100  10.920  22.973  0.00  0.00    +0.000 C 
ENDBRANCH  22  23
ENDBRANCH  17  22
ENDBRANCH  13  14
ENDBRANCH   5  13
TORSDOF 8
ENDMDL
MODEL 7
REMARK VINA RESULT:      -6.3      2.702      5.077
REMARK  Name = 
REMARK  13 active torsions:
REMARK  status: ('A' for Active; 'I' for Inactive)
REMARK    1  A    between atoms: C_1  and  C_2
REMARK    2  A    between atoms: C_2  and  O_3
REMARK    3  A    between atoms: O_3  and  C_4
REMARK    4  A    between atoms: C_4  and  C_6
REMARK    5  A    between atoms: C_8  and  C_9
REMARK    6  A    between atoms: N_10  and  C_11
REMARK    7  A    between atoms: C_11  and  C_12
REMARK    8  A    between atoms: C_15  and  O_16
REMARK    9  A    between atoms: O_16  and  C_17
REMARK   10  A    between atoms: C_17  and  C_18
REMARK   11  A    between atoms: C_19  and  O_20
REMARK   12  A    between atoms: O_20  and  C_21
REMARK   13  A    between atoms: C_23  and  C_24
REMARK                            x       y       z     vdW  Elec       q    Type
REMARK                         _______ _______ _______ _____ _____    ______ ____
ROOT
ATOM      1  C   UNL     1       1.982   7.052  19.722  0.00  0.00    +0.000 A 
ATOM      2  C   UNL     1       1.446   7.359  21.002  0.00  0.00    +0.000 A 
ATOM      3  C   UNL     1       1.066   8.686  21.013  0.00  0.00    +0.000 A 
ATOM      4  C   UNL     1       0.491   9.484  22.132  0.00  0.00    +0.000 C 
ATOM      5  N   UNL     1       1.319   9.197  19.753  0.00  0.00    +0.000 N 
ATOM      6  C   UNL     1       1.945   8.232  18.982  0.00  0.00    +0.000 A 
ATOM      7  C   UNL     1       2.432   8.465  17.589  0.00  0.00    +0.000 C 
ENDROOT
BRANCH   1   8
ATOM      8  C   UNL     1       2.438   5.758  19.229  0.00  0.00    +0.000 C 
ATOM      9  O   UNL     1       1.755   5.008  18.538  0.00  0.00    +0.000 OA
BRANCH   8  10
ATOM     10  O   UNL     1       3.668   5.427  19.722  0.00  0.00    +0.000 OA
BRANCH  10  12
ATOM     11  C   UNL     1       5.640   4.352  18.909  0.00  0.00    +0.000 C 
ATOM     12  C   UNL     1       4.745   5.573  18.789  0.00  0.00    +0.000 C 
ENDBRANCH  10  12
ENDBRANCH   8  10
ENDBRANCH   1   8
BRANCH   5  13
ATOM     13  C   UNL     1       0.965  10.552  19.310  0.00  0.00    +0.000 C 
BRANCH  13  14
ATOM     14  C   UNL     1      -0.467  10.708  18.849  0.00  0.00    +0.000 A 
ATOM     15  C   UNL     1      -1.297  11.617  19.512  0.00  0.00    +0.000 A 
ATOM     16  C   UNL     1      -2.606  11.830  19.070  0.00  0.00    +0.000 A 
ATOM     17  C   UNL     1      -3.123  11.151  17.957  0.00  0.00    +0.000 A 
ATOM     18  C   UNL     1      -2.311  10.213  17.293  0.00  0.00    +0.000 A 
ATOM     19  C   UNL     1      -1.005   9.993  17.765  0.00  0.00    +0.000 A 
BRANCH  18  20
ATOM     20  O   UNL     1      -2.815   9.552  16.208  0.00  0.00    +0.000 OA
ATOM     21  C   UNL     1      -2.874  10.238  14.961  0.00  0.00    +0.000 C 
ENDBRANCH  18  20
BRANCH  17  22
ATOM     22  O   UNL     1      -4.408  11.527  17.662  0.00  0.00    +0.000 OA
BRANCH  22  23
ATOM     23  C   UNL     1      -5.330  11.698  18.735  0.00  0.00    +0.000 C 
ATOM     24  C   UNL     1      -6.676  11.135  18.315  0.00  0.00    +0.000 C 
ENDBRANCH  22  23
ENDBRANCH  17  22
ENDBRANCH  13  14
ENDBRANCH   5  13
TORSDOF 8
ENDMDL
MODEL 8
REMARK VINA RESULT:      -6.2      2.501      3.799
REMARK  Name = 
REMARK  13 active torsions:
REMARK  status: ('A' for Active; 'I' for Inactive)
REMARK    1  A    between atoms: C_1  and  C_2
REMARK    2  A    between atoms: C_2  and  O_3
REMARK    3  A    between atoms: O_3  and  C_4
REMARK    4  A    between atoms: C_4  and  C_6
REMARK    5  A    between atoms: C_8  and  C_9
REMARK    6  A    between atoms: N_10  and  C_11
REMARK    7  A    between atoms: C_11  and  C_12
REMARK    8  A    between atoms: C_15  and  O_16
REMARK    9  A    between atoms: O_16  and  C_17
REMARK   10  A    between atoms: C_17  and  C_18
REMARK   11  A    between atoms: C_19  and  O_20
REMARK   12  A    between atoms: O_20  and  C_21
REMARK   13  A    between atoms: C_23  and  C_24
REMARK                            x       y       z     vdW  Elec       q    Type
REMARK                         _______ _______ _______ _____ _____    ______ ____
ROOT
ATOM      1  C   UNL     1       6.000   5.301  17.226  0.00  0.00    +0.000 A 
ATOM      2  C   UNL     1       5.810   4.267  18.182  0.00  0.00    +0.000 A 
ATOM      3  C   UNL     1       4.489   4.275  18.582  0.00  0.00    +0.000 A 
ATOM      4  C   UNL     1       3.812   3.413  19.591  0.00  0.00    +0.000 C 
ATOM      5  N   UNL     1       3.848   5.268  17.863  0.00  0.00    +0.000 N 
ATOM      6  C   UNL     1       4.774   5.948  17.090  0.00  0.00    +0.000 A 
ATOM      7  C   UNL     1       4.444   7.133  16.244  0.00  0.00    +0.000 C 
ENDROOT
BRANCH   1   8
ATOM      8  C   UNL     1       7.211   5.616  16.477  0.00  0.00    +0.000 C 
ATOM      9  O   UNL     1       7.819   6.678  16.573  0.00  0.00    +0.000 OA
BRANCH   8  10
ATOM     10  O   UNL     1       7.522   4.640  15.572  0.00  0.00    +0.000 OA
BRANCH  10  12
ATOM     11  C   UNL     1       5.986   3.908  13.897  0.00  0.00    +0.000 C 
ATOM     12  C   UNL     1       7.081   4.904  14.236  0.00  0.00    +0.000 C 
ENDBRANCH  10  12
ENDBRANCH   8  10
ENDBRANCH   1   8
BRANCH   5  13
ATOM     13  C   UNL     1       2.405   5.543  17.912  0.00  0.00    +0.000 C 
BRANCH  13  14
ATOM     14  C   UNL     1       2.007   6.631  18.884  0.00  0.00    +0.000 A 
ATOM     15  C   UNL     1       1.927   6.327  20.246  0.00  0.00    +0.000 A 
ATOM     16  C   UNL     1       1.623   7.326  21.175  0.00  0.00    +0.000 A 
ATOM     17  C   UNL     1       1.397   8.651  20.778  0.00  0.00    +0.000 A 
ATOM     18  C   UNL     1       1.446   8.971  19.409  0.00  0.00    +0.000 A 
ATOM     19  C   UNL     1       1.729   7.951  18.485  0.00  0.00    +0.000 A 
BRANCH  18  20
ATOM     20  O   UNL     1       1.226  10.264  19.023  0.00  0.00    +0.000 OA
ATOM     21  C   UNL     1      -0.095  10.648  18.655  0.00  0.00    +0.000 C 
ENDBRANCH  18  20
BRANCH  17  22
ATOM     22  O   UNL     1       1.154   9.485  21.840  0.00  0.00    +0.000 OA
BRANCH  22  23
ATOM     23  C   UNL     1      -0.072   9.338  22.552  0.00  0.00    +0.000 C 
ATOM     24  C   UNL     1      -0.839  10.647  22.476  0.00  0.00    +0.000 C 
ENDBRANCH  22  23
ENDBRANCH  17  22
ENDBRANCH  13  14
ENDBRANCH   5  13
TORSDOF 8
ENDMDL
MODEL 9
REMARK VINA RESULT:      -6.2      2.163      3.474
REMARK  Name = 
REMARK  13 active torsions:
REMARK  status: ('A' for Active; 'I' for Inactive)
REMARK    1  A    between atoms: C_1  and  C_2
REMARK    2  A    between atoms: C_2  and  O_3
REMARK    3  A    between atoms: O_3  and  C_4
REMARK    4  A    between atoms: C_4  and  C_6
REMARK    5  A    between atoms: C_8  and  C_9
REMARK    6  A    between atoms: N_10  and  C_11
REMARK    7  A    between atoms: C_11  and  C_12
REMARK    8  A    between atoms: C_15  and  O_16
REMARK    9  A    between atoms: O_16  and  C_17
REMARK   10  A    between atoms: C_17  and  C_18
REMARK   11  A    between atoms: C_19  and  O_20
REMARK   12  A    between atoms: O_20  and  C_21
REMARK   13  A    between atoms: C_23  and  C_24
REMARK                            x       y       z     vdW  Elec       q    Type
REMARK                         _______ _______ _______ _____ _____    ______ ____
ROOT
ATOM      1  C   UNL     1       5.837   5.153  18.421  0.00  0.00    +0.000 A 
ATOM      2  C   UNL     1       5.229   4.172  19.251  0.00  0.00    +0.000 A 
ATOM      3  C   UNL     1       3.874   4.424  19.311  0.00  0.00    +0.000 A 
ATOM      4  C   UNL     1       2.822   3.703  20.081  0.00  0.00    +0.000 C 
ATOM      5  N   UNL     1       3.623   5.518  18.502  0.00  0.00    +0.000 N 
ATOM      6  C   UNL     1       4.821   6.014  18.015  0.00  0.00    +0.000 A 
ATOM      7  C   UNL     1       4.931   7.240  17.168  0.00  0.00    +0.000 C 
ENDROOT
BRANCH   1   8
ATOM      8  C   UNL     1       7.233   5.238  18.010  0.00  0.00    +0.000 C 
ATOM      9  O   UNL     1       8.027   6.064  18.449  0.00  0.00    +0.000 OA
BRANCH   8  10
ATOM     10  O   UNL     1       7.522   4.369  16.995  0.00  0.00    +0.000 OA
BRANCH  10  12
ATOM     11  C   UNL     1       6.152   3.880  15.101  0.00  0.00    +0.000 C 
ATOM     12  C   UNL     1       7.172   4.840  15.689  0.00  0.00    +0.000 C 
ENDBRANCH  10  12
ENDBRANCH   8  10
ENDBRANCH   1   8
BRANCH   5  13
ATOM     13  C   UNL     1       2.288   6.054  18.205  0.00  0.00    +0.000 C 
BRANCH  13  14
ATOM     14  C   UNL     1       1.868   7.213  19.081  0.00  0.00    +0.000 A 
ATOM     15  C   UNL     1       1.750   7.013  20.459  0.00  0.00    +0.000 A 
ATOM     16  C   UNL     1       1.426   8.080  21.303  0.00  0.00    +0.000 A 
ATOM     17  C   UNL     1       1.217   9.372  20.801  0.00  0.00    +0.000 A 
ATOM     18  C   UNL     1       1.306   9.588  19.414  0.00  0.00    +0.000 A 
ATOM     19  C   UNL     1       1.609   8.500  18.576  0.00  0.00    +0.000 A 
BRANCH  18  20
ATOM     20  O   UNL     1       1.103  10.849  18.925  0.00  0.00    +0.000 OA
ATOM     21  C   UNL     1      -0.234  11.287  18.707  0.00  0.00    +0.000 C 
ENDBRANCH  18  20
BRANCH  17  22
ATOM     22  O   UNL     1       0.949  10.284  21.790  0.00  0.00    +0.000 OA
BRANCH  22  23
ATOM     23  C   UNL     1      -0.247  10.131  22.549  0.00  0.00    +0.000 C 
ATOM     24  C   UNL     1      -0.912  11.489  22.689  0.00  0.00    +0.000 C 
ENDBRANCH  22  23
ENDBRANCH  17  22
ENDBRANCH  13  14
ENDBRANCH   5  13
TORSDOF 8
ENDMDL
