MODEL 1
REMARK VINA RESULT:      -5.7      0.000      0.000
REMARK  Name = 
REMARK  29 active torsions:
REMARK  status: ('A' for Active; 'I' for Inactive)
REMARK    1  A    between atoms: C_1  and  C_2
REMARK    2  A    between atoms: C_2  and  C_3
REMARK    3  A    between atoms: C_3  and  C_4
REMARK    4  A    between atoms: C_4  and  C_5
REMARK    5  A    between atoms: C_5  and  C_6
REMARK    6  A    between atoms: C_6  and  C_7
REMARK    7  A    between atoms: C_7  and  C_8
REMARK    8  A    between atoms: C_8  and  C_9
REMARK    9  A    between atoms: C_9  and  C_10
REMARK   10  A    between atoms: C_10  and  C_11
REMARK   11  A    between atoms: C_11  and  C_12
REMARK   12  A    between atoms: C_12  and  C_13
REMARK   13  A    between atoms: C_13  and  C_14
REMARK   14  A    between atoms: C_14  and  N_15
REMARK   15  A    between atoms: N_15  and  C_16
REMARK   16  A    between atoms: N_15  and  C_17
REMARK   17  A    between atoms: N_15  and  C_18
REMARK   18  A    between atoms: C_18  and  C_19
REMARK   19  A    between atoms: C_19  and  N_20
REMARK   20  A    between atoms: N_20  and  C_21
REMARK   21  A    between atoms: N_20  and  C_22
REMARK   22  A    between atoms: N_20  and  C_23
REMARK   23  A    between atoms: C_23  and  C_24
REMARK   24  A    between atoms: C_24  and  C_25
REMARK   25  A    between atoms: C_25  and  C_26
REMARK   26  A    between atoms: C_26  and  C_27
REMARK   27  A    between atoms: C_27  and  C_28
REMARK   28  A    between atoms: C_28  and  C_29
REMARK   29  A    between atoms: C_29  and  C_30
REMARK                            x       y       z     vdW  Elec       q    Type
REMARK                         _______ _______ _______ _____ _____    ______ ____
ROOT
ATOM      1  N   UNL     1       3.511   3.081  18.770  0.00  0.00    +0.000 N 
ATOM      2  C   UNL     1       3.425   1.552  18.678  0.00  0.00    +0.000 C 
ATOM      3  C   UNL     1       2.736   3.718  17.617  0.00  0.00    +0.000 C 
ENDROOT
BRANCH   1   4
ATOM      4  C   UNL     1       2.934   3.561  20.135  0.00  0.00    +0.000 C 
BRANCH   4   5
ATOM      5  C   UNL     1       1.421   3.583  20.154  0.00  0.00    +0.000 C 
BRANCH   5   6
ATOM      6  C   UNL     1       0.903   5.009  20.170  0.00  0.00    +0.000 C 
BRANCH   6   7
ATOM      7  C   UNL     1       1.959   5.873  20.833  0.00  0.00    +0.000 C 
BRANCH   7   8
ATOM      8  C   UNL     1       2.059   7.222  20.158  0.00  0.00    +0.000 C 
BRANCH   8   9
ATOM      9  C   UNL     1       1.867   7.038  18.664  0.00  0.00    +0.000 C 
BRANCH   9  10
ATOM     10  C   UNL     1       2.309   8.288  17.933  0.00  0.00    +0.000 C 
BRANCH  10  11
ATOM     11  C   UNL     1       1.178   9.300  17.902  0.00  0.00    +0.000 C 
BRANCH  11  12
ATOM     12  C   UNL     1       1.696  10.656  18.350  0.00  0.00    +0.000 C 
BRANCH  12  13
ATOM     13  C   UNL     1       0.568  11.485  18.941  0.00  0.00    +0.000 C 
BRANCH  13  14
ATOM     14  C   UNL     1      -0.512  10.575  19.510  0.00  0.00    +0.000 C 
BRANCH  14  15
ATOM     15  C   UNL     1      -1.889  11.029  19.043  0.00  0.00    +0.000 C 
BRANCH  15  17
ATOM     16  C   UNL     1      -2.221  10.217  16.696  0.00  0.00    +0.000 C 
ATOM     17  C   UNL     1      -1.866  11.409  17.566  0.00  0.00    +0.000 C 
ENDBRANCH  15  17
ENDBRANCH  14  15
ENDBRANCH  13  14
ENDBRANCH  12  13
ENDBRANCH  11  12
ENDBRANCH  10  11
ENDBRANCH   9  10
ENDBRANCH   8   9
ENDBRANCH   7   8
ENDBRANCH   6   7
ENDBRANCH   5   6
ENDBRANCH   4   5
ENDBRANCH   1   4
BRANCH   1  18
ATOM     18  C   UNL     1       4.975   3.563  18.758  0.00  0.00    +0.000 C 
BRANCH  18  19
ATOM     19  C   UNL     1       5.121   5.083  18.820  0.00  0.00    +0.000 C 
BRANCH  19  20
ATOM     20  N   UNL     1       6.000   5.637  17.707  0.00  0.00    +0.000 N 
ATOM     21  C   UNL     1       5.317   6.824  17.032  0.00  0.00    +0.000 C 
ATOM     22  C   UNL     1       7.350   6.064  18.268  0.00  0.00    +0.000 C 
BRANCH  20  23
ATOM     23  C   UNL     1       6.158   4.462  16.718  0.00  0.00    +0.000 C 
BRANCH  23  24
ATOM     24  C   UNL     1       7.371   4.606  15.820  0.00  0.00    +0.000 C 
BRANCH  24  25
ATOM     25  C   UNL     1       6.955   4.815  14.369  0.00  0.00    +0.000 C 
BRANCH  25  26
ATOM     26  C   UNL     1       5.626   4.110  14.147  0.00  0.00    +0.000 C 
BRANCH  26  27
ATOM     27  C   UNL     1       5.608   3.345  12.836  0.00  0.00    +0.000 C 
BRANCH  27  28
ATOM     28  C   UNL     1       4.679   4.043  11.850  0.00  0.00    +0.000 C 
BRANCH  28  29
ATOM     29  C   UNL     1       3.867   3.033  11.051  0.00  0.00    +0.000 C 
ATOM     30  C   UNL     1       3.149   3.710   9.898  0.00  0.00    +0.000 C 
ENDBRANCH  28  29
ENDBRANCH  27  28
ENDBRANCH  26  27
ENDBRANCH  25  26
ENDBRANCH  24  25
ENDBRANCH  23  24
ENDBRANCH  20  23
ENDBRANCH  19  20
ENDBRANCH  18  19
ENDBRANCH   1  18
TORSDOF 23
ENDMDL
MODEL 2
REMARK VINA RESULT:      -5.5      4.675      7.867
REMARK  Name = 
REMARK  29 active torsions:
REMARK  status: ('A' for Active; 'I' for Inactive)
REMARK    1  A    between atoms: C_1  and  C_2
REMARK    2  A    between atoms: C_2  and  C_3
REMARK    3  A    between atoms: C_3  and  C_4
REMARK    4  A    between atoms: C_4  and  C_5
REMARK    5  A    between atoms: C_5  and  C_6
REMARK    6  A    between atoms: C_6  and  C_7
REMARK    7  A    between atoms: C_7  and  C_8
REMARK    8  A    between atoms: C_8  and  C_9
REMARK    9  A    between atoms: C_9  and  C_10
REMARK   10  A    between atoms: C_10  and  C_11
REMARK   11  A    between atoms: C_11  and  C_12
REMARK   12  A    between atoms: C_12  and  C_13
REMARK   13  A    between atoms: C_13  and  C_14
REMARK   14  A    between atoms: C_14  and  N_15
REMARK   15  A    between atoms: N_15  and  C_16
REMARK   16  A    between atoms: N_15  and  C_17
REMARK   17  A    between atoms: N_15  and  C_18
REMARK   18  A    between atoms: C_18  and  C_19
REMARK   19  A    between atoms: C_19  and  N_20
REMARK   20  A    between atoms: N_20  and  C_21
REMARK   21  A    between atoms: N_20  and  C_22
REMARK   22  A    between atoms: N_20  and  C_23
REMARK   23  A    between atoms: C_23  and  C_24
REMARK   24  A    between atoms: C_24  and  C_25
REMARK   25  A    between atoms: C_25  and  C_26
REMARK   26  A    between atoms: C_26  and  C_27
REMARK   27  A    between atoms: C_27  and  C_28
REMARK   28  A    between atoms: C_28  and  C_29
REMARK   29  A    between atoms: C_29  and  C_30
REMARK                            x       y       z     vdW  Elec       q    Type
REMARK                         _______ _______ _______ _____ _____    ______ ____
ROOT
ATOM      1  N   UNL     1       7.155   5.539  18.717  0.00  0.00    +0.000 N 
ATOM      2  C   UNL     1       8.318   5.332  19.697  0.00  0.00    +0.000 C 
ATOM      3  C   UNL     1       5.837   5.636  19.484  0.00  0.00    +0.000 C 
ENDROOT
BRANCH   1   4
ATOM      4  C   UNL     1       7.390   6.835  17.887  0.00  0.00    +0.000 C 
BRANCH   4   5
ATOM      5  C   UNL     1       8.303   7.819  18.586  0.00  0.00    +0.000 C 
BRANCH   5   6
ATOM      6  C   UNL     1       8.150   9.209  17.997  0.00  0.00    +0.000 C 
BRANCH   6   7
ATOM      7  C   UNL     1       9.121  10.124  18.720  0.00  0.00    +0.000 C 
BRANCH   7   8
ATOM      8  C   UNL     1       9.251  11.450  18.007  0.00  0.00    +0.000 C 
BRANCH   8   9
ATOM      9  C   UNL     1      10.717  11.708  17.714  0.00  0.00    +0.000 C 
BRANCH   9  10
ATOM     10  C   UNL     1      11.045  13.161  17.986  0.00  0.00    +0.000 C 
BRANCH  10  11
ATOM     11  C   UNL     1      10.101  13.721  19.035  0.00  0.00    +0.000 C 
BRANCH  11  12
ATOM     12  C   UNL     1      10.877  14.032  20.303  0.00  0.00    +0.000 C 
BRANCH  12  13
ATOM     13  C   UNL     1       9.991  13.853  21.525  0.00  0.00    +0.000 C 
BRANCH  13  14
ATOM     14  C   UNL     1       8.717  13.109  21.147  0.00  0.00    +0.000 C 
BRANCH  14  15
ATOM     15  C   UNL     1       8.631  11.787  21.898  0.00  0.00    +0.000 C 
BRANCH  15  17
ATOM     16  C   UNL     1       6.765  11.759  23.569  0.00  0.00    +0.000 C 
ATOM     17  C   UNL     1       8.246  12.013  23.356  0.00  0.00    +0.000 C 
ENDBRANCH  15  17
ENDBRANCH  14  15
ENDBRANCH  13  14
ENDBRANCH  12  13
ENDBRANCH  11  12
ENDBRANCH  10  11
ENDBRANCH   9  10
ENDBRANCH   8   9
ENDBRANCH   7   8
ENDBRANCH   6   7
ENDBRANCH   5   6
ENDBRANCH   4   5
ENDBRANCH   1   4
BRANCH   1  18
ATOM     18  C   UNL     1       7.086   4.402  17.680  0.00  0.00    +0.000 C 
BRANCH  18  19
ATOM     19  C   UNL     1       7.170   4.886  16.232  0.00  0.00    +0.000 C 
BRANCH  19  20
ATOM     20  N   UNL     1       5.875   4.670  15.461  0.00  0.00    +0.000 N 
ATOM     21  C   UNL     1       5.251   6.012  15.087  0.00  0.00    +0.000 C 
ATOM     22  C   UNL     1       6.143   3.852  14.205  0.00  0.00    +0.000 C 
BRANCH  20  23
ATOM     23  C   UNL     1       4.966   3.898  16.440  0.00  0.00    +0.000 C 
BRANCH  23  24
ATOM     24  C   UNL     1       3.685   4.639  16.766  0.00  0.00    +0.000 C 
BRANCH  24  25
ATOM     25  C   UNL     1       2.650   3.702  17.376  0.00  0.00    +0.000 C 
BRANCH  25  26
ATOM     26  C   UNL     1       3.382   2.648  18.192  0.00  0.00    +0.000 C 
BRANCH  26  27
ATOM     27  C   UNL     1       2.443   1.909  19.128  0.00  0.00    +0.000 C 
BRANCH  27  28
ATOM     28  C   UNL     1       1.155   2.707  19.294  0.00  0.00    +0.000 C 
BRANCH  28  29
ATOM     29  C   UNL     1       0.945   3.116  20.745  0.00  0.00    +0.000 C 
ATOM     30  C   UNL     1       2.101   3.966  21.238  0.00  0.00    +0.000 C 
ENDBRANCH  28  29
ENDBRANCH  27  28
ENDBRANCH  26  27
ENDBRANCH  25  26
ENDBRANCH  24  25
ENDBRANCH  23  24
ENDBRANCH  20  23
ENDBRANCH  19  20
ENDBRANCH  18  19
ENDBRANCH   1  18
TORSDOF 23
ENDMDL
MODEL 3
REMARK VINA RESULT:      -5.2      1.809      2.707
REMARK  Name = 
REMARK  29 active torsions:
REMARK  status: ('A' for Active; 'I' for Inactive)
REMARK    1  A    between atoms: C_1  and  C_2
REMARK    2  A    between atoms: C_2  and  C_3
REMARK    3  A    between atoms: C_3  and  C_4
REMARK    4  A    between atoms: C_4  and  C_5
REMARK    5  A    between atoms: C_5  and  C_6
REMARK    6  A    between atoms: C_6  and  C_7
REMARK    7  A    between atoms: C_7  and  C_8
REMARK    8  A    between atoms: C_8  and  C_9
REMARK    9  A    between atoms: C_9  and  C_10
REMARK   10  A    between atoms: C_10  and  C_11
REMARK   11  A    between atoms: C_11  and  C_12
REMARK   12  A    between atoms: C_12  and  C_13
REMARK   13  A    between atoms: C_13  and  C_14
REMARK   14  A    between atoms: C_14  and  N_15
REMARK   15  A    between atoms: N_15  and  C_16
REMARK   16  A    between atoms: N_15  and  C_17
REMARK   17  A    between atoms: N_15  and  C_18
REMARK   18  A    between atoms: C_18  and  C_19
REMARK   19  A    between atoms: C_19  and  N_20
REMARK   20  A    between atoms: N_20  and  C_21
REMARK   21  A    between atoms: N_20  and  C_22
REMARK   22  A    between atoms: N_20  and  C_23
REMARK   23  A    between atoms: C_23  and  C_24
REMARK   24  A    between atoms: C_24  and  C_25
REMARK   25  A    between atoms: C_25  and  C_26
REMARK   26  A    between atoms: C_26  and  C_27
REMARK   27  A    between atoms: C_27  and  C_28
REMARK   28  A    between atoms: C_28  and  C_29
REMARK   29  A    between atoms: C_29  and  C_30
REMARK                            x       y       z     vdW  Elec       q    Type
REMARK                         _______ _______ _______ _____ _____    ______ ____
ROOT
ATOM      1  N   UNL     1       2.610   3.285  19.810  0.00  0.00    +0.000 N 
ATOM      2  C   UNL     1       3.822   2.537  20.379  0.00  0.00    +0.000 C 
ATOM      3  C   UNL     1       1.449   2.313  19.596  0.00  0.00    +0.000 C 
ENDROOT
BRANCH   1   4
ATOM      4  C   UNL     1       2.186   4.422  20.786  0.00  0.00    +0.000 C 
BRANCH   4   5
ATOM      5  C   UNL     1       2.392   5.802  20.200  0.00  0.00    +0.000 C 
BRANCH   5   6
ATOM      6  C   UNL     1       1.468   6.810  20.856  0.00  0.00    +0.000 C 
BRANCH   6   7
ATOM      7  C   UNL     1       1.723   8.158  20.207  0.00  0.00    +0.000 C 
BRANCH   7   8
ATOM      8  C   UNL     1       0.748   9.196  20.712  0.00  0.00    +0.000 C 
BRANCH   8   9
ATOM      9  C   UNL     1       0.680  10.334  19.711  0.00  0.00    +0.000 C 
BRANCH   9  10
ATOM     10  C   UNL     1       0.052   9.846  18.423  0.00  0.00    +0.000 C 
BRANCH  10  11
ATOM     11  C   UNL     1      -1.110  10.744  18.037  0.00  0.00    +0.000 C 
BRANCH  11  12
ATOM     12  C   UNL     1      -2.146   9.935  17.276  0.00  0.00    +0.000 C 
BRANCH  12  13
ATOM     13  C   UNL     1      -2.776  10.779  16.179  0.00  0.00    +0.000 C 
BRANCH  13  14
ATOM     14  C   UNL     1      -4.073  11.404  16.676  0.00  0.00    +0.000 C 
BRANCH  14  15
ATOM     15  C   UNL     1      -4.667  10.570  17.803  0.00  0.00    +0.000 C 
BRANCH  15  17
ATOM     16  C   UNL     1      -6.398  12.337  17.406  0.00  0.00    +0.000 C 
ATOM     17  C   UNL     1      -6.041  11.096  18.204  0.00  0.00    +0.000 C 
ENDBRANCH  15  17
ENDBRANCH  14  15
ENDBRANCH  13  14
ENDBRANCH  12  13
ENDBRANCH  11  12
ENDBRANCH  10  11
ENDBRANCH   9  10
ENDBRANCH   8   9
ENDBRANCH   7   8
ENDBRANCH   6   7
ENDBRANCH   5   6
ENDBRANCH   4   5
ENDBRANCH   1   4
BRANCH   1  18
ATOM     18  C   UNL     1       2.959   3.997  18.488  0.00  0.00    +0.000 C 
BRANCH  18  19
ATOM     19  C   UNL     1       4.162   3.392  17.764  0.00  0.00    +0.000 C 
BRANCH  19  20
ATOM     20  N   UNL     1       5.174   4.441  17.324  0.00  0.00    +0.000 N 
ATOM     21  C   UNL     1       4.458   5.717  16.886  0.00  0.00    +0.000 C 
ATOM     22  C   UNL     1       6.137   4.750  18.462  0.00  0.00    +0.000 C 
BRANCH  20  23
ATOM     23  C   UNL     1       5.912   3.792  16.134  0.00  0.00    +0.000 C 
BRANCH  23  24
ATOM     24  C   UNL     1       6.977   4.691  15.539  0.00  0.00    +0.000 C 
BRANCH  24  25
ATOM     25  C   UNL     1       6.766   4.870  14.040  0.00  0.00    +0.000 C 
BRANCH  25  26
ATOM     26  C   UNL     1       6.129   3.602  13.493  0.00  0.00    +0.000 C 
BRANCH  26  27
ATOM     27  C   UNL     1       4.993   3.912  12.535  0.00  0.00    +0.000 C 
BRANCH  27  28
ATOM     28  C   UNL     1       5.061   2.969  11.339  0.00  0.00    +0.000 C 
BRANCH  28  29
ATOM     29  C   UNL     1       5.823   1.697  11.686  0.00  0.00    +0.000 C 
ATOM     30  C   UNL     1       6.983   1.487  10.731  0.00  0.00    +0.000 C 
ENDBRANCH  28  29
ENDBRANCH  27  28
ENDBRANCH  26  27
ENDBRANCH  25  26
ENDBRANCH  24  25
ENDBRANCH  23  24
ENDBRANCH  20  23
ENDBRANCH  19  20
ENDBRANCH  18  19
ENDBRANCH   1  18
TORSDOF 23
ENDMDL
MODEL 4
REMARK VINA RESULT:      -5.2      2.807      3.614
REMARK  Name = 
REMARK  29 active torsions:
REMARK  status: ('A' for Active; 'I' for Inactive)
REMARK    1  A    between atoms: C_1  and  C_2
REMARK    2  A    between atoms: C_2  and  C_3
REMARK    3  A    between atoms: C_3  and  C_4
REMARK    4  A    between atoms: C_4  and  C_5
REMARK    5  A    between atoms: C_5  and  C_6
REMARK    6  A    between atoms: C_6  and  C_7
REMARK    7  A    between atoms: C_7  and  C_8
REMARK    8  A    between atoms: C_8  and  C_9
REMARK    9  A    between atoms: C_9  and  C_10
REMARK   10  A    between atoms: C_10  and  C_11
REMARK   11  A    between atoms: C_11  and  C_12
REMARK   12  A    between atoms: C_12  and  C_13
REMARK   13  A    between atoms: C_13  and  C_14
REMARK   14  A    between atoms: C_14  and  N_15
REMARK   15  A    between atoms: N_15  and  C_16
REMARK   16  A    between atoms: N_15  and  C_17
REMARK   17  A    between atoms: N_15  and  C_18
REMARK   18  A    between atoms: C_18  and  C_19
REMARK   19  A    between atoms: C_19  and  N_20
REMARK   20  A    between atoms: N_20  and  C_21
REMARK   21  A    between atoms: N_20  and  C_22
REMARK   22  A    between atoms: N_20  and  C_23
REMARK   23  A    between atoms: C_23  and  C_24
REMARK   24  A    between atoms: C_24  and  C_25
REMARK   25  A    between atoms: C_25  and  C_26
REMARK   26  A    between atoms: C_26  and  C_27
REMARK   27  A    between atoms: C_27  and  C_28
REMARK   28  A    between atoms: C_28  and  C_29
REMARK   29  A    between atoms: C_29  and  C_30
REMARK                            x       y       z     vdW  Elec       q    Type
REMARK                         _______ _______ _______ _____ _____    ______ ____
ROOT
ATOM      1  N   UNL     1       2.364   3.150  19.188  0.00  0.00    +0.000 N 
ATOM      2  C   UNL     1       3.331   2.880  20.348  0.00  0.00    +0.000 C 
ATOM      3  C   UNL     1       1.690   1.848  18.755  0.00  0.00    +0.000 C 
ENDROOT
BRANCH   1   4
ATOM      4  C   UNL     1       1.292   4.191  19.626  0.00  0.00    +0.000 C 
BRANCH   4   5
ATOM      5  C   UNL     1       1.784   5.109  20.724  0.00  0.00    +0.000 C 
BRANCH   5   6
ATOM      6  C   UNL     1       2.017   6.511  20.190  0.00  0.00    +0.000 C 
BRANCH   6   7
ATOM      7  C   UNL     1       1.262   7.474  21.087  0.00  0.00    +0.000 C 
BRANCH   7   8
ATOM      8  C   UNL     1       1.362   8.890  20.567  0.00  0.00    +0.000 C 
BRANCH   8   9
ATOM      9  C   UNL     1       0.024   9.579  20.761  0.00  0.00    +0.000 C 
BRANCH   9  10
ATOM     10  C   UNL     1       0.224  11.079  20.816  0.00  0.00    +0.000 C 
BRANCH  10  11
ATOM     11  C   UNL     1      -1.093  11.770  21.120  0.00  0.00    +0.000 C 
BRANCH  11  12
ATOM     12  C   UNL     1      -1.153  12.123  22.596  0.00  0.00    +0.000 C 
BRANCH  12  13
ATOM     13  C   UNL     1      -2.132  13.262  22.829  0.00  0.00    +0.000 C 
BRANCH  13  14
ATOM     14  C   UNL     1      -3.497  12.712  23.220  0.00  0.00    +0.000 C 
BRANCH  14  15
ATOM     15  C   UNL     1      -3.945  13.300  24.552  0.00  0.00    +0.000 C 
BRANCH  15  17
ATOM     16  C   UNL     1      -4.007  15.793  24.791  0.00  0.00    +0.000 C 
ATOM     17  C   UNL     1      -3.141  14.550  24.894  0.00  0.00    +0.000 C 
ENDBRANCH  15  17
ENDBRANCH  14  15
ENDBRANCH  13  14
ENDBRANCH  12  13
ENDBRANCH  11  12
ENDBRANCH  10  11
ENDBRANCH   9  10
ENDBRANCH   8   9
ENDBRANCH   7   8
ENDBRANCH   6   7
ENDBRANCH   5   6
ENDBRANCH   4   5
ENDBRANCH   1   4
BRANCH   1  18
ATOM     18  C   UNL     1       3.089   3.797  17.992  0.00  0.00    +0.000 C 
BRANCH  18  19
ATOM     19  C   UNL     1       4.600   3.562  17.989  0.00  0.00    +0.000 C 
BRANCH  19  20
ATOM     20  N   UNL     1       5.375   4.712  17.361  0.00  0.00    +0.000 N 
ATOM     21  C   UNL     1       4.669   6.038  17.634  0.00  0.00    +0.000 C 
ATOM     22  C   UNL     1       6.792   4.754  17.916  0.00  0.00    +0.000 C 
BRANCH  20  23
ATOM     23  C   UNL     1       5.381   4.396  15.851  0.00  0.00    +0.000 C 
BRANCH  23  24
ATOM     24  C   UNL     1       6.270   5.331  15.055  0.00  0.00    +0.000 C 
BRANCH  24  25
ATOM     25  C   UNL     1       6.816   4.640  13.812  0.00  0.00    +0.000 C 
BRANCH  25  26
ATOM     26  C   UNL     1       5.762   3.670  13.303  0.00  0.00    +0.000 C 
BRANCH  26  27
ATOM     27  C   UNL     1       6.168   3.042  11.982  0.00  0.00    +0.000 C 
BRANCH  27  28
ATOM     28  C   UNL     1       4.935   2.482  11.282  0.00  0.00    +0.000 C 
BRANCH  28  29
ATOM     29  C   UNL     1       3.782   3.476  11.322  0.00  0.00    +0.000 C 
ATOM     30  C   UNL     1       3.263   3.756   9.924  0.00  0.00    +0.000 C 
ENDBRANCH  28  29
ENDBRANCH  27  28
ENDBRANCH  26  27
ENDBRANCH  25  26
ENDBRANCH  24  25
ENDBRANCH  23  24
ENDBRANCH  20  23
ENDBRANCH  19  20
ENDBRANCH  18  19
ENDBRANCH   1  18
TORSDOF 23
ENDMDL
MODEL 5
REMARK VINA RESULT:      -5.2      1.482      2.137
REMARK  Name = 
REMARK  29 active torsions:
REMARK  status: ('A' for Active; 'I' for Inactive)
REMARK    1  A    between atoms: C_1  and  C_2
REMARK    2  A    between atoms: C_2  and  C_3
REMARK    3  A    between atoms: C_3  and  C_4
REMARK    4  A    between atoms: C_4  and  C_5
REMARK    5  A    between atoms: C_5  and  C_6
REMARK    6  A    between atoms: C_6  and  C_7
REMARK    7  A    between atoms: C_7  and  C_8
REMARK    8  A    between atoms: C_8  and  C_9
REMARK    9  A    between atoms: C_9  and  C_10
REMARK   10  A    between atoms: C_10  and  C_11
REMARK   11  A    between atoms: C_11  and  C_12
REMARK   12  A    between atoms: C_12  and  C_13
REMARK   13  A    between atoms: C_13  and  C_14
REMARK   14  A    between atoms: C_14  and  N_15
REMARK   15  A    between atoms: N_15  and  C_16
REMARK   16  A    between atoms: N_15  and  C_17
REMARK   17  A    between atoms: N_15  and  C_18
REMARK   18  A    between atoms: C_18  and  C_19
REMARK   19  A    between atoms: C_19  and  N_20
REMARK   20  A    between atoms: N_20  and  C_21
REMARK   21  A    between atoms: N_20  and  C_22
REMARK   22  A    between atoms: N_20  and  C_23
REMARK   23  A    between atoms: C_23  and  C_24
REMARK   24  A    between atoms: C_24  and  C_25
REMARK   25  A    between atoms: C_25  and  C_26
REMARK   26  A    between atoms: C_26  and  C_27
REMARK   27  A    between atoms: C_27  and  C_28
REMARK   28  A    between atoms: C_28  and  C_29
REMARK   29  A    between atoms: C_29  and  C_30
REMARK                            x       y       z     vdW  Elec       q    Type
REMARK                         _______ _______ _______ _____ _____    ______ ____
ROOT
ATOM      1  N   UNL     1       3.120   3.012  18.950  0.00  0.00    +0.000 N 
ATOM      2  C   UNL     1       3.553   2.418  20.297  0.00  0.00    +0.000 C 
ATOM      3  C   UNL     1       2.311   1.982  18.161  0.00  0.00    +0.000 C 
ENDROOT
BRANCH   1   4
ATOM      4  C   UNL     1       2.268   4.294  19.189  0.00  0.00    +0.000 C 
BRANCH   4   5
ATOM      5  C   UNL     1       1.827   4.442  20.629  0.00  0.00    +0.000 C 
BRANCH   5   6
ATOM      6  C   UNL     1       1.543   5.896  20.959  0.00  0.00    +0.000 C 
BRANCH   6   7
ATOM      7  C   UNL     1       2.192   6.746  19.883  0.00  0.00    +0.000 C 
BRANCH   7   8
ATOM      8  C   UNL     1       1.863   8.208  20.076  0.00  0.00    +0.000 C 
BRANCH   8   9
ATOM      9  C   UNL     1       0.867   8.342  21.212  0.00  0.00    +0.000 C 
BRANCH   9  10
ATOM     10  C   UNL     1       0.967   9.725  21.821  0.00  0.00    +0.000 C 
BRANCH  10  11
ATOM     11  C   UNL     1      -0.421  10.292  22.057  0.00  0.00    +0.000 C 
BRANCH  11  12
ATOM     12  C   UNL     1      -0.437  11.766  21.695  0.00  0.00    +0.000 C 
BRANCH  12  13
ATOM     13  C   UNL     1      -1.610  12.075  20.778  0.00  0.00    +0.000 C 
BRANCH  13  14
ATOM     14  C   UNL     1      -1.162  12.977  19.636  0.00  0.00    +0.000 C 
BRANCH  14  15
ATOM     15  C   UNL     1      -1.303  12.254  18.303  0.00  0.00    +0.000 C 
BRANCH  15  17
ATOM     16  C   UNL     1      -0.542   9.888  17.987  0.00  0.00    +0.000 C 
ATOM     17  C   UNL     1      -1.649  10.784  18.513  0.00  0.00    +0.000 C 
ENDBRANCH  15  17
ENDBRANCH  14  15
ENDBRANCH  13  14
ENDBRANCH  12  13
ENDBRANCH  11  12
ENDBRANCH  10  11
ENDBRANCH   9  10
ENDBRANCH   8   9
ENDBRANCH   7   8
ENDBRANCH   6   7
ENDBRANCH   5   6
ENDBRANCH   4   5
ENDBRANCH   1   4
BRANCH   1  18
ATOM     18  C   UNL     1       4.334   3.481  18.126  0.00  0.00    +0.000 C 
BRANCH  18  19
ATOM     19  C   UNL     1       5.136   4.598  18.795  0.00  0.00    +0.000 C 
BRANCH  19  20
ATOM     20  N   UNL     1       6.015   5.362  17.814  0.00  0.00    +0.000 N 
ATOM     21  C   UNL     1       5.302   6.623  17.333  0.00  0.00    +0.000 C 
ATOM     22  C   UNL     1       7.337   5.731  18.473  0.00  0.00    +0.000 C 
BRANCH  20  23
ATOM     23  C   UNL     1       6.235   4.379  16.645  0.00  0.00    +0.000 C 
BRANCH  23  24
ATOM     24  C   UNL     1       6.990   4.999  15.486  0.00  0.00    +0.000 C 
BRANCH  24  25
ATOM     25  C   UNL     1       6.120   5.062  14.237  0.00  0.00    +0.000 C 
BRANCH  25  26
ATOM     26  C   UNL     1       7.011   4.844  13.023  0.00  0.00    +0.000 C 
BRANCH  26  27
ATOM     27  C   UNL     1       6.893   3.429  12.486  0.00  0.00    +0.000 C 
BRANCH  27  28
ATOM     28  C   UNL     1       5.464   3.176  12.023  0.00  0.00    +0.000 C 
BRANCH  28  29
ATOM     29  C   UNL     1       5.374   1.907  11.186  0.00  0.00    +0.000 C 
ATOM     30  C   UNL     1       6.727   1.226  11.095  0.00  0.00    +0.000 C 
ENDBRANCH  28  29
ENDBRANCH  27  28
ENDBRANCH  26  27
ENDBRANCH  25  26
ENDBRANCH  24  25
ENDBRANCH  23  24
ENDBRANCH  20  23
ENDBRANCH  19  20
ENDBRANCH  18  19
ENDBRANCH   1  18
TORSDOF 23
ENDMDL
MODEL 6
REMARK VINA RESULT:      -5.2      1.929      2.810
REMARK  Name = 
REMARK  29 active torsions:
REMARK  status: ('A' for Active; 'I' for Inactive)
REMARK    1  A    between atoms: C_1  and  C_2
REMARK    2  A    between atoms: C_2  and  C_3
REMARK    3  A    between atoms: C_3  and  C_4
REMARK    4  A    between atoms: C_4  and  C_5
REMARK    5  A    between atoms: C_5  and  C_6
REMARK    6  A    between atoms: C_6  and  C_7
REMARK    7  A    between atoms: C_7  and  C_8
REMARK    8  A    between atoms: C_8  and  C_9
REMARK    9  A    between atoms: C_9  and  C_10
REMARK   10  A    between atoms: C_10  and  C_11
REMARK   11  A    between atoms: C_11  and  C_12
REMARK   12  A    between atoms: C_12  and  C_13
REMARK   13  A    between atoms: C_13  and  C_14
REMARK   14  A    between atoms: C_14  and  N_15
REMARK   15  A    between atoms: N_15  and  C_16
REMARK   16  A    between atoms: N_15  and  C_17
REMARK   17  A    between atoms: N_15  and  C_18
REMARK   18  A    between atoms: C_18  and  C_19
REMARK   19  A    between atoms: C_19  and  N_20
REMARK   20  A    between atoms: N_20  and  C_21
REMARK   21  A    between atoms: N_20  and  C_22
REMARK   22  A    between atoms: N_20  and  C_23
REMARK   23  A    between atoms: C_23  and  C_24
REMARK   24  A    between atoms: C_24  and  C_25
REMARK   25  A    between atoms: C_25  and  C_26
REMARK   26  A    between atoms: C_26  and  C_27
REMARK   27  A    between atoms: C_27  and  C_28
REMARK   28  A    between atoms: C_28  and  C_29
REMARK   29  A    between atoms: C_29  and  C_30
REMARK                            x       y       z     vdW  Elec       q    Type
REMARK                         _______ _______ _______ _____ _____    ______ ____
ROOT
ATOM      1  N   UNL     1       2.748   3.308  18.900  0.00  0.00    +0.000 N 
ATOM      2  C   UNL     1       3.585   2.794  20.079  0.00  0.00    +0.000 C 
ATOM      3  C   UNL     1       1.849   2.191  18.371  0.00  0.00    +0.000 C 
ENDROOT
BRANCH   1   4
ATOM      4  C   UNL     1       1.886   4.522  19.355  0.00  0.00    +0.000 C 
BRANCH   4   5
ATOM      5  C   UNL     1       2.644   5.471  20.258  0.00  0.00    +0.000 C 
BRANCH   5   6
ATOM      6  C   UNL     1       2.188   6.902  20.040  0.00  0.00    +0.000 C 
BRANCH   6   7
ATOM      7  C   UNL     1       1.956   7.088  18.552  0.00  0.00    +0.000 C 
BRANCH   7   8
ATOM      8  C   UNL     1       2.476   8.428  18.085  0.00  0.00    +0.000 C 
BRANCH   8   9
ATOM      9  C   UNL     1       1.298   9.326  17.759  0.00  0.00    +0.000 C 
BRANCH   9  10
ATOM     10  C   UNL     1       1.104  10.340  18.867  0.00  0.00    +0.000 C 
BRANCH  10  11
ATOM     11  C   UNL     1      -0.363  10.421  19.247  0.00  0.00    +0.000 C 
BRANCH  11  12
ATOM     12  C   UNL     1      -0.710  11.848  19.635  0.00  0.00    +0.000 C 
BRANCH  12  13
ATOM     13  C   UNL     1      -2.217  12.043  19.650  0.00  0.00    +0.000 C 
BRANCH  13  14
ATOM     14  C   UNL     1      -2.628  12.872  20.859  0.00  0.00    +0.000 C 
BRANCH  14  15
ATOM     15  C   UNL     1      -1.803  12.480  22.077  0.00  0.00    +0.000 C 
BRANCH  15  17
ATOM     16  C   UNL     1      -4.063  12.758  23.122  0.00  0.00    +0.000 C 
ATOM     17  C   UNL     1      -2.705  12.092  23.244  0.00  0.00    +0.000 C 
ENDBRANCH  15  17
ENDBRANCH  14  15
ENDBRANCH  13  14
ENDBRANCH  12  13
ENDBRANCH  11  12
ENDBRANCH  10  11
ENDBRANCH   9  10
ENDBRANCH   8   9
ENDBRANCH   7   8
ENDBRANCH   6   7
ENDBRANCH   5   6
ENDBRANCH   4   5
ENDBRANCH   1   4
BRANCH   1  18
ATOM     18  C   UNL     1       3.644   3.850  17.770  0.00  0.00    +0.000 C 
BRANCH  18  19
ATOM     19  C   UNL     1       5.140   3.749  18.069  0.00  0.00    +0.000 C 
BRANCH  19  20
ATOM     20  N   UNL     1       5.923   4.961  17.584  0.00  0.00    +0.000 N 
ATOM     21  C   UNL     1       4.969   6.098  17.222  0.00  0.00    +0.000 C 
ATOM     22  C   UNL     1       6.897   5.422  18.659  0.00  0.00    +0.000 C 
BRANCH  20  23
ATOM     23  C   UNL     1       6.675   4.460  16.333  0.00  0.00    +0.000 C 
BRANCH  23  24
ATOM     24  C   UNL     1       6.073   4.969  15.038  0.00  0.00    +0.000 C 
BRANCH  24  25
ATOM     25  C   UNL     1       5.804   3.821  14.073  0.00  0.00    +0.000 C 
BRANCH  25  26
ATOM     26  C   UNL     1       6.836   3.883  12.958  0.00  0.00    +0.000 C 
BRANCH  26  27
ATOM     27  C   UNL     1       6.245   3.475  11.621  0.00  0.00    +0.000 C 
BRANCH  27  28
ATOM     28  C   UNL     1       5.672   2.066  11.724  0.00  0.00    +0.000 C 
BRANCH  28  29
ATOM     29  C   UNL     1       6.543   1.063  10.979  0.00  0.00    +0.000 C 
ATOM     30  C   UNL     1       6.095  -0.357  11.268  0.00  0.00    +0.000 C 
ENDBRANCH  28  29
ENDBRANCH  27  28
ENDBRANCH  26  27
ENDBRANCH  25  26
ENDBRANCH  24  25
ENDBRANCH  23  24
ENDBRANCH  20  23
ENDBRANCH  19  20
ENDBRANCH  18  19
ENDBRANCH   1  18
TORSDOF 23
ENDMDL
MODEL 7
REMARK VINA RESULT:      -5.1      3.793     10.726
REMARK  Name = 
REMARK  29 active torsions:
REMARK  status: ('A' for Active; 'I' for Inactive)
REMARK    1  A    between atoms: C_1  and  C_2
REMARK    2  A    between atoms: C_2  and  C_3
REMARK    3  A    between atoms: C_3  and  C_4
REMARK    4  A    between atoms: C_4  and  C_5
REMARK    5  A    between atoms: C_5  and  C_6
REMARK    6  A    between atoms: C_6  and  C_7
REMARK    7  A    between atoms: C_7  and  C_8
REMARK    8  A    between atoms: C_8  and  C_9
REMARK    9  A    between atoms: C_9  and  C_10
REMARK   10  A    between atoms: C_10  and  C_11
REMARK   11  A    between atoms: C_11  and  C_12
REMARK   12  A    between atoms: C_12  and  C_13
REMARK   13  A    between atoms: C_13  and  C_14
REMARK   14  A    between atoms: C_14  and  N_15
REMARK   15  A    between atoms: N_15  and  C_16
REMARK   16  A    between atoms: N_15  and  C_17
REMARK   17  A    between atoms: N_15  and  C_18
REMARK   18  A    between atoms: C_18  and  C_19
REMARK   19  A    between atoms: C_19  and  N_20
REMARK   20  A    between atoms: N_20  and  C_21
REMARK   21  A    between atoms: N_20  and  C_22
REMARK   22  A    between atoms: N_20  and  C_23
REMARK   23  A    between atoms: C_23  and  C_24
REMARK   24  A    between atoms: C_24  and  C_25
REMARK   25  A    between atoms: C_25  and  C_26
REMARK   26  A    between atoms: C_26  and  C_27
REMARK   27  A    between atoms: C_27  and  C_28
REMARK   28  A    between atoms: C_28  and  C_29
REMARK   29  A    between atoms: C_29  and  C_30
REMARK                            x       y       z     vdW  Elec       q    Type
REMARK                         _______ _______ _______ _____ _____    ______ ____
ROOT
ATOM      1  N   UNL     1       0.792  10.245  19.223  0.00  0.00    +0.000 N 
ATOM      2  C   UNL     1       1.761   9.951  18.070  0.00  0.00    +0.000 C 
ATOM      3  C   UNL     1      -0.649  10.220  18.714  0.00  0.00    +0.000 C 
ENDROOT
BRANCH   1   4
ATOM      4  C   UNL     1       0.981   9.189  20.353  0.00  0.00    +0.000 C 
BRANCH   4   5
ATOM      5  C   UNL     1       1.839   8.019  19.921  0.00  0.00    +0.000 C 
BRANCH   5   6
ATOM      6  C   UNL     1       1.497   6.776  20.722  0.00  0.00    +0.000 C 
BRANCH   6   7
ATOM      7  C   UNL     1       2.438   5.672  20.278  0.00  0.00    +0.000 C 
BRANCH   7   8
ATOM      8  C   UNL     1       2.057   4.350  20.905  0.00  0.00    +0.000 C 
BRANCH   8   9
ATOM      9  C   UNL     1       0.930   3.731  20.100  0.00  0.00    +0.000 C 
BRANCH   9  10
ATOM     10  C   UNL     1       1.332   3.642  18.642  0.00  0.00    +0.000 C 
BRANCH  10  11
ATOM     11  C   UNL     1       1.767   2.226  18.308  0.00  0.00    +0.000 C 
BRANCH  11  12
ATOM     12  C   UNL     1       3.278   2.182  18.155  0.00  0.00    +0.000 C 
BRANCH  12  13
ATOM     13  C   UNL     1       3.762   3.364  17.331  0.00  0.00    +0.000 C 
BRANCH  13  14
ATOM     14  C   UNL     1       4.918   4.059  18.038  0.00  0.00    +0.000 C 
BRANCH  14  15
ATOM     15  C   UNL     1       5.756   4.846  17.039  0.00  0.00    +0.000 C 
BRANCH  15  17
ATOM     16  C   UNL     1       4.333   6.884  17.353  0.00  0.00    +0.000 C 
ATOM     17  C   UNL     1       4.917   5.912  16.344  0.00  0.00    +0.000 C 
ENDBRANCH  15  17
ENDBRANCH  14  15
ENDBRANCH  13  14
ENDBRANCH  12  13
ENDBRANCH  11  12
ENDBRANCH  10  11
ENDBRANCH   9  10
ENDBRANCH   8   9
ENDBRANCH   7   8
ENDBRANCH   6   7
ENDBRANCH   5   6
ENDBRANCH   4   5
ENDBRANCH   1   4
BRANCH   1  18
ATOM     18  C   UNL     1       1.101  11.602  19.883  0.00  0.00    +0.000 C 
BRANCH  18  19
ATOM     19  C   UNL     1       0.274  11.876  21.140  0.00  0.00    +0.000 C 
BRANCH  19  20
ATOM     20  N   UNL     1      -0.509  13.179  21.060  0.00  0.00    +0.000 N 
ATOM     21  C   UNL     1      -0.023  14.156  22.129  0.00  0.00    +0.000 C 
ATOM     22  C   UNL     1      -0.353  13.800  19.679  0.00  0.00    +0.000 C 
BRANCH  20  23
ATOM     23  C   UNL     1      -1.973  12.768  21.320  0.00  0.00    +0.000 C 
BRANCH  23  24
ATOM     24  C   UNL     1      -2.490  13.243  22.663  0.00  0.00    +0.000 C 
BRANCH  24  25
ATOM     25  C   UNL     1      -3.065  12.085  23.470  0.00  0.00    +0.000 C 
BRANCH  25  26
ATOM     26  C   UNL     1      -4.055  12.649  24.477  0.00  0.00    +0.000 C 
BRANCH  26  27
ATOM     27  C   UNL     1      -5.005  13.643  23.834  0.00  0.00    +0.000 C 
BRANCH  27  28
ATOM     28  C   UNL     1      -6.201  12.901  23.249  0.00  0.00    +0.000 C 
BRANCH  28  29
ATOM     29  C   UNL     1      -6.443  13.304  21.800  0.00  0.00    +0.000 C 
ATOM     30  C   UNL     1      -5.788  12.318  20.851  0.00  0.00    +0.000 C 
ENDBRANCH  28  29
ENDBRANCH  27  28
ENDBRANCH  26  27
ENDBRANCH  25  26
ENDBRANCH  24  25
ENDBRANCH  23  24
ENDBRANCH  20  23
ENDBRANCH  19  20
ENDBRANCH  18  19
ENDBRANCH   1  18
TORSDOF 23
ENDMDL
MODEL 8
REMARK VINA RESULT:      -5.1      2.711      3.871
REMARK  Name = 
REMARK  29 active torsions:
REMARK  status: ('A' for Active; 'I' for Inactive)
REMARK    1  A    between atoms: C_1  and  C_2
REMARK    2  A    between atoms: C_2  and  C_3
REMARK    3  A    between atoms: C_3  and  C_4
REMARK    4  A    between atoms: C_4  and  C_5
REMARK    5  A    between atoms: C_5  and  C_6
REMARK    6  A    between atoms: C_6  and  C_7
REMARK    7  A    between atoms: C_7  and  C_8
REMARK    8  A    between atoms: C_8  and  C_9
REMARK    9  A    between atoms: C_9  and  C_10
REMARK   10  A    between atoms: C_10  and  C_11
REMARK   11  A    between atoms: C_11  and  C_12
REMARK   12  A    between atoms: C_12  and  C_13
REMARK   13  A    between atoms: C_13  and  C_14
REMARK   14  A    between atoms: C_14  and  N_15
REMARK   15  A    between atoms: N_15  and  C_16
REMARK   16  A    between atoms: N_15  and  C_17
REMARK   17  A    between atoms: N_15  and  C_18
REMARK   18  A    between atoms: C_18  and  C_19
REMARK   19  A    between atoms: C_19  and  N_20
REMARK   20  A    between atoms: N_20  and  C_21
REMARK   21  A    between atoms: N_20  and  C_22
REMARK   22  A    between atoms: N_20  and  C_23
REMARK   23  A    between atoms: C_23  and  C_24
REMARK   24  A    between atoms: C_24  and  C_25
REMARK   25  A    between atoms: C_25  and  C_26
REMARK   26  A    between atoms: C_26  and  C_27
REMARK   27  A    between atoms: C_27  and  C_28
REMARK   28  A    between atoms: C_28  and  C_29
REMARK   29  A    between atoms: C_29  and  C_30
REMARK                            x       y       z     vdW  Elec       q    Type
REMARK                         _______ _______ _______ _____ _____    ______ ____
ROOT
ATOM      1  N   UNL     1       3.520   4.968  18.702  0.00  0.00    +0.000 N 
ATOM      2  C   UNL     1       2.701   4.842  19.993  0.00  0.00    +0.000 C 
ATOM      3  C   UNL     1       2.841   4.188  17.575  0.00  0.00    +0.000 C 
ENDROOT
BRANCH   1   4
ATOM      4  C   UNL     1       3.657   6.469  18.309  0.00  0.00    +0.000 C 
BRANCH   4   5
ATOM      5  C   UNL     1       2.336   7.092  17.914  0.00  0.00    +0.000 C 
BRANCH   5   6
ATOM      6  C   UNL     1       2.034   8.304  18.775  0.00  0.00    +0.000 C 
BRANCH   6   7
ATOM      7  C   UNL     1       1.615   9.432  17.849  0.00  0.00    +0.000 C 
BRANCH   7   8
ATOM      8  C   UNL     1       0.316  10.054  18.305  0.00  0.00    +0.000 C 
BRANCH   8   9
ATOM      9  C   UNL     1       0.140   9.791  19.789  0.00  0.00    +0.000 C 
BRANCH   9  10
ATOM     10  C   UNL     1      -0.196  11.084  20.502  0.00  0.00    +0.000 C 
BRANCH  10  11
ATOM     11  C   UNL     1      -0.558  10.802  21.949  0.00  0.00    +0.000 C 
BRANCH  11  12
ATOM     12  C   UNL     1      -1.030  12.083  22.615  0.00  0.00    +0.000 C 
BRANCH  12  13
ATOM     13  C   UNL     1      -2.397  11.880  23.247  0.00  0.00    +0.000 C 
BRANCH  13  14
ATOM     14  C   UNL     1      -3.379  12.917  22.721  0.00  0.00    +0.000 C 
BRANCH  14  15
ATOM     15  C   UNL     1      -2.961  14.315  23.159  0.00  0.00    +0.000 C 
BRANCH  15  17
ATOM     16  C   UNL     1      -3.295  15.893  25.076  0.00  0.00    +0.000 C 
ATOM     17  C   UNL     1      -3.026  14.453  24.676  0.00  0.00    +0.000 C 
ENDBRANCH  15  17
ENDBRANCH  14  15
ENDBRANCH  13  14
ENDBRANCH  12  13
ENDBRANCH  11  12
ENDBRANCH  10  11
ENDBRANCH   9  10
ENDBRANCH   8   9
ENDBRANCH   7   8
ENDBRANCH   6   7
ENDBRANCH   5   6
ENDBRANCH   4   5
ENDBRANCH   1   4
BRANCH   1  18
ATOM     18  C   UNL     1       4.964   4.468  18.901  0.00  0.00    +0.000 C 
BRANCH  18  19
ATOM     19  C   UNL     1       5.944   5.570  19.303  0.00  0.00    +0.000 C 
BRANCH  19  20
ATOM     20  N   UNL     1       7.197   5.591  18.437  0.00  0.00    +0.000 N 
ATOM     21  C   UNL     1       7.428   6.991  17.874  0.00  0.00    +0.000 C 
ATOM     22  C   UNL     1       8.405   5.152  19.252  0.00  0.00    +0.000 C 
BRANCH  20  23
ATOM     23  C   UNL     1       6.899   4.587  17.303  0.00  0.00    +0.000 C 
BRANCH  23  24
ATOM     24  C   UNL     1       7.040   5.197  15.923  0.00  0.00    +0.000 C 
BRANCH  24  25
ATOM     25  C   UNL     1       5.676   5.427  15.284  0.00  0.00    +0.000 C 
BRANCH  25  26
ATOM     26  C   UNL     1       5.350   4.226  14.411  0.00  0.00    +0.000 C 
BRANCH  26  27
ATOM     27  C   UNL     1       6.532   3.820  13.548  0.00  0.00    +0.000 C 
BRANCH  27  28
ATOM     28  C   UNL     1       6.031   3.294  12.209  0.00  0.00    +0.000 C 
BRANCH  28  29
ATOM     29  C   UNL     1       4.645   3.837  11.889  0.00  0.00    +0.000 C 
ATOM     30  C   UNL     1       3.876   2.866  11.013  0.00  0.00    +0.000 C 
ENDBRANCH  28  29
ENDBRANCH  27  28
ENDBRANCH  26  27
ENDBRANCH  25  26
ENDBRANCH  24  25
ENDBRANCH  23  24
ENDBRANCH  20  23
ENDBRANCH  19  20
ENDBRANCH  18  19
ENDBRANCH   1  18
TORSDOF 23
ENDMDL
MODEL 9
REMARK VINA RESULT:      -5.0      1.356      2.467
REMARK  Name = 
REMARK  29 active torsions:
REMARK  status: ('A' for Active; 'I' for Inactive)
REMARK    1  A    between atoms: C_1  and  C_2
REMARK    2  A    between atoms: C_2  and  C_3
REMARK    3  A    between atoms: C_3  and  C_4
REMARK    4  A    between atoms: C_4  and  C_5
REMARK    5  A    between atoms: C_5  and  C_6
REMARK    6  A    between atoms: C_6  and  C_7
REMARK    7  A    between atoms: C_7  and  C_8
REMARK    8  A    between atoms: C_8  and  C_9
REMARK    9  A    between atoms: C_9  and  C_10
REMARK   10  A    between atoms: C_10  and  C_11
REMARK   11  A    between atoms: C_11  and  C_12
REMARK   12  A    between atoms: C_12  and  C_13
REMARK   13  A    between atoms: C_13  and  C_14
REMARK   14  A    between atoms: C_14  and  N_15
REMARK   15  A    between atoms: N_15  and  C_16
REMARK   16  A    between atoms: N_15  and  C_17
REMARK   17  A    between atoms: N_15  and  C_18
REMARK   18  A    between atoms: C_18  and  C_19
REMARK   19  A    between atoms: C_19  and  N_20
REMARK   20  A    between atoms: N_20  and  C_21
REMARK   21  A    between atoms: N_20  and  C_22
REMARK   22  A    between atoms: N_20  and  C_23
REMARK   23  A    between atoms: C_23  and  C_24
REMARK   24  A    between atoms: C_24  and  C_25
REMARK   25  A    between atoms: C_25  and  C_26
REMARK   26  A    between atoms: C_26  and  C_27
REMARK   27  A    between atoms: C_27  and  C_28
REMARK   28  A    between atoms: C_28  and  C_29
REMARK   29  A    between atoms: C_29  and  C_30
REMARK                            x       y       z     vdW  Elec       q    Type
REMARK                         _______ _______ _______ _____ _____    ______ ____
ROOT
ATOM      1  N   UNL     1       3.202   3.483  19.579  0.00  0.00    +0.000 N 
ATOM      2  C   UNL     1       3.586   2.507  20.700  0.00  0.00    +0.000 C 
ATOM      3  C   UNL     1       1.877   3.058  18.947  0.00  0.00    +0.000 C 
ENDROOT
BRANCH   1   4
ATOM      4  C   UNL     1       3.085   4.926  20.154  0.00  0.00    +0.000 C 
BRANCH   4   5
ATOM      5  C   UNL     1       1.921   5.081  21.109  0.00  0.00    +0.000 C 
BRANCH   5   6
ATOM      6  C   UNL     1       1.002   6.202  20.660  0.00  0.00    +0.000 C 
BRANCH   6   7
ATOM      7  C   UNL     1       1.737   7.512  20.874  0.00  0.00    +0.000 C 
BRANCH   7   8
ATOM      8  C   UNL     1       1.097   8.319  21.980  0.00  0.00    +0.000 C 
BRANCH   8   9
ATOM      9  C   UNL     1      -0.111   9.046  21.421  0.00  0.00    +0.000 C 
BRANCH   9  10
ATOM     10  C   UNL     1      -0.138  10.468  21.942  0.00  0.00    +0.000 C 
BRANCH  10  11
ATOM     11  C   UNL     1      -1.050  11.321  21.078  0.00  0.00    +0.000 C 
BRANCH  11  12
ATOM     12  C   UNL     1      -0.213  12.266  20.233  0.00  0.00    +0.000 C 
BRANCH  12  13
ATOM     13  C   UNL     1      -0.047  11.714  18.827  0.00  0.00    +0.000 C 
BRANCH  13  14
ATOM     14  C   UNL     1       1.289  10.995  18.697  0.00  0.00    +0.000 C 
BRANCH  14  15
ATOM     15  C   UNL     1       1.109   9.665  17.977  0.00  0.00    +0.000 C 
BRANCH  15  17
ATOM     16  C   UNL     1       2.284   7.515  17.453  0.00  0.00    +0.000 C 
ATOM     17  C   UNL     1       2.456   9.001  17.713  0.00  0.00    +0.000 C 
ENDBRANCH  15  17
ENDBRANCH  14  15
ENDBRANCH  13  14
ENDBRANCH  12  13
ENDBRANCH  11  12
ENDBRANCH  10  11
ENDBRANCH   9  10
ENDBRANCH   8   9
ENDBRANCH   7   8
ENDBRANCH   6   7
ENDBRANCH   5   6
ENDBRANCH   4   5
ENDBRANCH   1   4
BRANCH   1  18
ATOM     18  C   UNL     1       4.303   3.565  18.504  0.00  0.00    +0.000 C 
BRANCH  18  19
ATOM     19  C   UNL     1       5.198   4.797  18.634  0.00  0.00    +0.000 C 
BRANCH  19  20
ATOM     20  N   UNL     1       5.923   5.139  17.340  0.00  0.00    +0.000 N 
ATOM     21  C   UNL     1       5.867   6.643  17.082  0.00  0.00    +0.000 C 
ATOM     22  C   UNL     1       7.372   4.677  17.412  0.00  0.00    +0.000 C 
BRANCH  20  23
ATOM     23  C   UNL     1       5.151   4.368  16.248  0.00  0.00    +0.000 C 
BRANCH  23  24
ATOM     24  C   UNL     1       6.061   3.749  15.206  0.00  0.00    +0.000 C 
BRANCH  24  25
ATOM     25  C   UNL     1       5.662   4.187  13.802  0.00  0.00    +0.000 C 
BRANCH  25  26
ATOM     26  C   UNL     1       6.755   3.751  12.838  0.00  0.00    +0.000 C 
BRANCH  26  27
ATOM     27  C   UNL     1       6.196   3.430  11.464  0.00  0.00    +0.000 C 
BRANCH  27  28
ATOM     28  C   UNL     1       4.801   2.831  11.606  0.00  0.00    +0.000 C 
BRANCH  28  29
ATOM     29  C   UNL     1       3.729   3.839  11.215  0.00  0.00    +0.000 C 
ATOM     30  C   UNL     1       3.147   3.505   9.854  0.00  0.00    +0.000 C 
ENDBRANCH  28  29
ENDBRANCH  27  28
ENDBRANCH  26  27
ENDBRANCH  25  26
ENDBRANCH  24  25
ENDBRANCH  23  24
ENDBRANCH  20  23
ENDBRANCH  19  20
ENDBRANCH  18  19
ENDBRANCH   1  18
TORSDOF 23
ENDMDL
