MODEL 1
REMARK VINA RESULT:      -6.9      0.000      0.000
REMARK  Name = 
REMARK  8 active torsions:
REMARK  status: ('A' for Active; 'I' for Inactive)
REMARK    1  A    between atoms: C_1  and  C_2
REMARK    2  A    between atoms: C_2  and  N_3
REMARK    3  A    between atoms: C_2  and  C_16
REMARK    4  A    between atoms: N_3  and  C_4
REMARK    5  A    between atoms: N_7  and  C_8
REMARK    6  A    between atoms: C_8  and  C_9
REMARK    7  A    between atoms: C_9  and  S_10
REMARK    8  A    between atoms: S_10  and  C_11
REMARK                            x       y       z     vdW  Elec       q    Type
REMARK                         _______ _______ _______ _____ _____    ______ ____
ROOT
ATOM      1  C   UNL     1       2.028   5.212  20.035  0.00  0.00    +0.000 C 
ATOM      2  C   UNL     1       3.037   4.107  20.370  0.00  0.00    +0.000 C 
ATOM      3  C   UNL     1       4.171   4.057  19.370  0.00  0.00    +0.000 C 
ATOM      4  N   UNL     1       3.678   3.670  18.040  0.00  0.00    +0.000 NA
ATOM      5  C   UNL     1       2.644   4.624  17.576  0.00  0.00    +0.000 C 
ATOM      6  C   UNL     1       1.521   4.852  18.610  0.00  0.00    +0.000 C 
ENDROOT
BRANCH   1   7
ATOM      7  N   UNL     1       2.459   6.632  20.144  0.00  0.00    +0.000 NA
ATOM      8  H   UNL     1       2.511   6.920  21.113  0.00  0.00    +0.000 HD
BRANCH   7  10
ATOM      9  C   UNL     1       2.438   8.413  18.240  0.00  0.00    +0.000 C 
ATOM     10  C   UNL     1       1.714   7.660  19.386  0.00  0.00    +0.000 C 
BRANCH  10  11
ATOM     11  C   UNL     1       1.201   8.776  20.318  0.00  0.00    +0.000 A 
ATOM     12  C   UNL     1       1.219   8.553  21.712  0.00  0.00    +0.000 A 
ATOM     13  C   UNL     1       0.485   9.380  22.565  0.00  0.00    +0.000 A 
ATOM     14  C   UNL     1      -0.262  10.428  22.036  0.00  0.00    +0.000 A 
ATOM     15 CL   UNL     1      -1.272  11.363  23.072  0.00  0.00    +0.000 Cl
ATOM     16  C   UNL     1      -0.231  10.704  20.670  0.00  0.00    +0.000 A 
ATOM     17  C   UNL     1       0.520   9.890  19.818  0.00  0.00    +0.000 A 
ENDBRANCH  10  11
ENDBRANCH   7  10
ENDBRANCH   1   7
BRANCH   4  18
ATOM     18  C   UNL     1       4.824   3.609  17.101  0.00  0.00    +0.000 C 
BRANCH  18  19
ATOM     19  C   UNL     1       5.389   5.009  16.827  0.00  0.00    +0.000 C 
BRANCH  19  20
ATOM     20  S   UNL     1       7.130   5.085  17.135  0.00  0.00    +0.000 S 
ATOM     21  C   UNL     1       7.460   6.819  17.281  0.00  0.00    +0.000 C 
ATOM     22  O   UNL     1       7.399   4.461  18.406  0.00  0.00    +0.000 OA
ATOM     23  O   UNL     1       7.805   4.619  15.915  0.00  0.00    +0.000 OA
ENDBRANCH  19  20
ENDBRANCH  18  19
ENDBRANCH   4  18
TORSDOF 6
ENDMDL
MODEL 2
REMARK VINA RESULT:      -6.9      0.827      1.037
REMARK  Name = 
REMARK  8 active torsions:
REMARK  status: ('A' for Active; 'I' for Inactive)
REMARK    1  A    between atoms: C_1  and  C_2
REMARK    2  A    between atoms: C_2  and  N_3
REMARK    3  A    between atoms: C_2  and  C_16
REMARK    4  A    between atoms: N_3  and  C_4
REMARK    5  A    between atoms: N_7  and  C_8
REMARK    6  A    between atoms: C_8  and  C_9
REMARK    7  A    between atoms: C_9  and  S_10
REMARK    8  A    between atoms: S_10  and  C_11
REMARK                            x       y       z     vdW  Elec       q    Type
REMARK                         _______ _______ _______ _____ _____    ______ ____
ROOT
ATOM      1  C   UNL     1       2.262   5.298  19.964  0.00  0.00    +0.000 C 
ATOM      2  C   UNL     1       3.348   4.264  20.287  0.00  0.00    +0.000 C 
ATOM      3  C   UNL     1       4.467   4.286  19.269  0.00  0.00    +0.000 C 
ATOM      4  N   UNL     1       3.981   3.862  17.948  0.00  0.00    +0.000 NA
ATOM      5  C   UNL     1       2.878   4.744  17.497  0.00  0.00    +0.000 C 
ATOM      6  C   UNL     1       1.759   4.900  18.548  0.00  0.00    +0.000 C 
ENDROOT
BRANCH   1   7
ATOM      7  N   UNL     1       2.599   6.744  20.063  0.00  0.00    +0.000 NA
ATOM      8  H   UNL     1       2.658   7.035  21.030  0.00  0.00    +0.000 HD
BRANCH   7  10
ATOM      9  C   UNL     1       2.408   8.530  18.173  0.00  0.00    +0.000 C 
ATOM     10  C   UNL     1       1.765   7.719  19.328  0.00  0.00    +0.000 C 
BRANCH  10  11
ATOM     11  C   UNL     1       1.189   8.788  20.278  0.00  0.00    +0.000 A 
ATOM     12  C   UNL     1       1.292   8.579  21.670  0.00  0.00    +0.000 A 
ATOM     13  C   UNL     1       0.523   9.340  22.553  0.00  0.00    +0.000 A 
ATOM     14  C   UNL     1      -0.346  10.306  22.056  0.00  0.00    +0.000 A 
ATOM     15 CL   UNL     1      -1.393  11.148  23.133  0.00  0.00    +0.000 Cl
ATOM     16  C   UNL     1      -0.404  10.572  20.688  0.00  0.00    +0.000 A 
ATOM     17  C   UNL     1       0.382   9.827  19.805  0.00  0.00    +0.000 A 
ENDBRANCH  10  11
ENDBRANCH   7  10
ENDBRANCH   1   7
BRANCH   4  18
ATOM     18  C   UNL     1       5.114   3.874  16.991  0.00  0.00    +0.000 C 
BRANCH  18  19
ATOM     19  C   UNL     1       6.298   4.676  17.548  0.00  0.00    +0.000 C 
BRANCH  19  20
ATOM     20  S   UNL     1       6.717   6.039  16.499  0.00  0.00    +0.000 S 
ATOM     21  C   UNL     1       7.532   7.176  17.586  0.00  0.00    +0.000 C 
ATOM     22  O   UNL     1       7.668   5.585  15.516  0.00  0.00    +0.000 OA
ATOM     23  O   UNL     1       5.455   6.669  16.085  0.00  0.00    +0.000 OA
ENDBRANCH  19  20
ENDBRANCH  18  19
ENDBRANCH   4  18
TORSDOF 6
ENDMDL
MODEL 3
REMARK VINA RESULT:      -6.8      1.910      2.856
REMARK  Name = 
REMARK  8 active torsions:
REMARK  status: ('A' for Active; 'I' for Inactive)
REMARK    1  A    between atoms: C_1  and  C_2
REMARK    2  A    between atoms: C_2  and  N_3
REMARK    3  A    between atoms: C_2  and  C_16
REMARK    4  A    between atoms: N_3  and  C_4
REMARK    5  A    between atoms: N_7  and  C_8
REMARK    6  A    between atoms: C_8  and  C_9
REMARK    7  A    between atoms: C_9  and  S_10
REMARK    8  A    between atoms: S_10  and  C_11
REMARK                            x       y       z     vdW  Elec       q    Type
REMARK                         _______ _______ _______ _____ _____    ______ ____
ROOT
ATOM      1  C   UNL     1       3.335   4.008  18.207  0.00  0.00    +0.000 C 
ATOM      2  C   UNL     1       4.301   3.556  19.309  0.00  0.00    +0.000 C 
ATOM      3  C   UNL     1       5.629   4.274  19.223  0.00  0.00    +0.000 C 
ATOM      4  N   UNL     1       6.338   3.915  17.986  0.00  0.00    +0.000 NA
ATOM      5  C   UNL     1       5.512   4.249  16.802  0.00  0.00    +0.000 C 
ATOM      6  C   UNL     1       4.080   3.680  16.883  0.00  0.00    +0.000 C 
ENDROOT
BRANCH   1   7
ATOM      7  N   UNL     1       2.815   5.402  18.238  0.00  0.00    +0.000 NA
ATOM      8  H   UNL     1       3.359   6.003  17.632  0.00  0.00    +0.000 HD
BRANCH   7  10
ATOM      9  C   UNL     1       1.658   5.476  20.573  0.00  0.00    +0.000 C 
ATOM     10  C   UNL     1       2.656   6.071  19.546  0.00  0.00    +0.000 C 
BRANCH  10  11
ATOM     11  C   UNL     1       2.204   7.535  19.372  0.00  0.00    +0.000 A 
ATOM     12  C   UNL     1       1.552   8.173  20.449  0.00  0.00    +0.000 A 
ATOM     13  C   UNL     1       0.852   9.364  20.241  0.00  0.00    +0.000 A 
ATOM     14  C   UNL     1       0.802   9.921  18.967  0.00  0.00    +0.000 A 
ATOM     15 CL   UNL     1      -0.172  11.313  18.683  0.00  0.00    +0.000 Cl
ATOM     16  C   UNL     1       1.502   9.340  17.910  0.00  0.00    +0.000 A 
ATOM     17  C   UNL     1       2.220   8.161  18.122  0.00  0.00    +0.000 A 
ENDBRANCH  10  11
ENDBRANCH   7  10
ENDBRANCH   1   7
BRANCH   4  18
ATOM     18  C   UNL     1       7.643   4.620  17.956  0.00  0.00    +0.000 C 
BRANCH  18  19
ATOM     19  C   UNL     1       7.532   6.012  18.593  0.00  0.00    +0.000 C 
BRANCH  19  20
ATOM     20  S   UNL     1       7.242   7.267  17.378  0.00  0.00    +0.000 S 
ATOM     21  C   UNL     1       8.139   8.666  17.990  0.00  0.00    +0.000 C 
ATOM     22  O   UNL     1       7.841   6.848  16.135  0.00  0.00    +0.000 OA
ATOM     23  O   UNL     1       5.815   7.609  17.442  0.00  0.00    +0.000 OA
ENDBRANCH  19  20
ENDBRANCH  18  19
ENDBRANCH   4  18
TORSDOF 6
ENDMDL
MODEL 4
REMARK VINA RESULT:      -6.7      1.086      1.325
REMARK  Name = 
REMARK  8 active torsions:
REMARK  status: ('A' for Active; 'I' for Inactive)
REMARK    1  A    between atoms: C_1  and  C_2
REMARK    2  A    between atoms: C_2  and  N_3
REMARK    3  A    between atoms: C_2  and  C_16
REMARK    4  A    between atoms: N_3  and  C_4
REMARK    5  A    between atoms: N_7  and  C_8
REMARK    6  A    between atoms: C_8  and  C_9
REMARK    7  A    between atoms: C_9  and  S_10
REMARK    8  A    between atoms: S_10  and  C_11
REMARK                            x       y       z     vdW  Elec       q    Type
REMARK                         _______ _______ _______ _____ _____    ______ ____
ROOT
ATOM      1  C   UNL     1       2.425   5.024  20.096  0.00  0.00    +0.000 C 
ATOM      2  C   UNL     1       3.537   3.996  20.337  0.00  0.00    +0.000 C 
ATOM      3  C   UNL     1       4.573   4.017  19.235  0.00  0.00    +0.000 C 
ATOM      4  N   UNL     1       3.986   3.585  17.958  0.00  0.00    +0.000 NA
ATOM      5  C   UNL     1       2.847   4.459  17.591  0.00  0.00    +0.000 C 
ATOM      6  C   UNL     1       1.813   4.616  18.726  0.00  0.00    +0.000 C 
ENDROOT
BRANCH   1   7
ATOM      7  N   UNL     1       2.762   6.472  20.161  0.00  0.00    +0.000 NA
ATOM      8  H   UNL     1       2.794   6.792  21.120  0.00  0.00    +0.000 HD
BRANCH   7  10
ATOM      9  C   UNL     1       2.613   8.161  18.181  0.00  0.00    +0.000 C 
ATOM     10  C   UNL     1       1.951   7.425  19.374  0.00  0.00    +0.000 C 
BRANCH  10  11
ATOM     11  C   UNL     1       1.396   8.554  20.265  0.00  0.00    +0.000 A 
ATOM     12  C   UNL     1       1.471   8.405  21.668  0.00  0.00    +0.000 A 
ATOM     13  C   UNL     1       0.714   9.229  22.503  0.00  0.00    +0.000 A 
ATOM     14  C   UNL     1      -0.114  10.200  21.948  0.00  0.00    +0.000 A 
ATOM     15 CL   UNL     1      -1.149  11.123  22.969  0.00  0.00    +0.000 Cl
ATOM     16  C   UNL     1      -0.143  10.405  20.569  0.00  0.00    +0.000 A 
ATOM     17  C   UNL     1       0.631   9.596  19.733  0.00  0.00    +0.000 A 
ENDBRANCH  10  11
ENDBRANCH   7  10
ENDBRANCH   1   7
BRANCH   4  18
ATOM     18  C   UNL     1       5.040   3.596  16.915  0.00  0.00    +0.000 C 
BRANCH  18  19
ATOM     19  C   UNL     1       6.117   4.643  17.231  0.00  0.00    +0.000 C 
BRANCH  19  20
ATOM     20  S   UNL     1       6.442   5.689  15.840  0.00  0.00    +0.000 S 
ATOM     21  C   UNL     1       6.764   4.553  14.520  0.00  0.00    +0.000 C 
ATOM     22  O   UNL     1       5.240   6.422  15.528  0.00  0.00    +0.000 OA
ATOM     23  O   UNL     1       7.700   6.396  16.116  0.00  0.00    +0.000 OA
ENDBRANCH  19  20
ENDBRANCH  18  19
ENDBRANCH   4  18
TORSDOF 6
ENDMDL
MODEL 5
REMARK VINA RESULT:      -6.6      1.712      2.166
REMARK  Name = 
REMARK  8 active torsions:
REMARK  status: ('A' for Active; 'I' for Inactive)
REMARK    1  A    between atoms: C_1  and  C_2
REMARK    2  A    between atoms: C_2  and  N_3
REMARK    3  A    between atoms: C_2  and  C_16
REMARK    4  A    between atoms: N_3  and  C_4
REMARK    5  A    between atoms: N_7  and  C_8
REMARK    6  A    between atoms: C_8  and  C_9
REMARK    7  A    between atoms: C_9  and  S_10
REMARK    8  A    between atoms: S_10  and  C_11
REMARK                            x       y       z     vdW  Elec       q    Type
REMARK                         _______ _______ _______ _____ _____    ______ ____
ROOT
ATOM      1  C   UNL     1       1.681   4.037  21.059  0.00  0.00    +0.000 C 
ATOM      2  C   UNL     1       2.724   2.921  21.199  0.00  0.00    +0.000 C 
ATOM      3  C   UNL     1       3.634   2.845  19.993  0.00  0.00    +0.000 C 
ATOM      4  N   UNL     1       2.879   2.452  18.793  0.00  0.00    +0.000 NA
ATOM      5  C   UNL     1       1.784   3.415  18.534  0.00  0.00    +0.000 C 
ATOM      6  C   UNL     1       0.894   3.669  19.770  0.00  0.00    +0.000 C 
ENDROOT
BRANCH   1   7
ATOM      7  N   UNL     1       2.141   5.452  21.061  0.00  0.00    +0.000 NA
ATOM      8  H   UNL     1       1.461   6.052  21.510  0.00  0.00    +0.000 HD
BRANCH   7  10
ATOM      9  C   UNL     1       4.049   6.138  19.422  0.00  0.00    +0.000 C 
ATOM     10  C   UNL     1       2.542   6.070  19.779  0.00  0.00    +0.000 C 
BRANCH  10  11
ATOM     11  C   UNL     1       2.056   7.530  19.689  0.00  0.00    +0.000 A 
ATOM     12  C   UNL     1       1.379   8.086  20.797  0.00  0.00    +0.000 A 
ATOM     13  C   UNL     1       0.653   9.270  20.654  0.00  0.00    +0.000 A 
ATOM     14  C   UNL     1       0.599   9.902  19.415  0.00  0.00    +0.000 A 
ATOM     15 CL   UNL     1      -0.406  11.285  19.206  0.00  0.00    +0.000 Cl
ATOM     16  C   UNL     1       1.322   9.403  18.332  0.00  0.00    +0.000 A 
ATOM     17  C   UNL     1       2.067   8.231  18.479  0.00  0.00    +0.000 A 
ENDBRANCH  10  11
ENDBRANCH   7  10
ENDBRANCH   1   7
BRANCH   4  18
ATOM     18  C   UNL     1       3.812   2.365  17.644  0.00  0.00    +0.000 C 
BRANCH  18  19
ATOM     19  C   UNL     1       3.845   3.683  16.859  0.00  0.00    +0.000 C 
BRANCH  19  20
ATOM     20  S   UNL     1       5.503   4.207  16.529  0.00  0.00    +0.000 S 
ATOM     21  C   UNL     1       5.314   5.865  15.937  0.00  0.00    +0.000 C 
ATOM     22  O   UNL     1       6.228   4.247  17.774  0.00  0.00    +0.000 OA
ATOM     23  O   UNL     1       5.994   3.401  15.402  0.00  0.00    +0.000 OA
ENDBRANCH  19  20
ENDBRANCH  18  19
ENDBRANCH   4  18
TORSDOF 6
ENDMDL
MODEL 6
REMARK VINA RESULT:      -6.6      3.043      4.281
REMARK  Name = 
REMARK  8 active torsions:
REMARK  status: ('A' for Active; 'I' for Inactive)
REMARK    1  A    between atoms: C_1  and  C_2
REMARK    2  A    between atoms: C_2  and  N_3
REMARK    3  A    between atoms: C_2  and  C_16
REMARK    4  A    between atoms: N_3  and  C_4
REMARK    5  A    between atoms: N_7  and  C_8
REMARK    6  A    between atoms: C_8  and  C_9
REMARK    7  A    between atoms: C_9  and  S_10
REMARK    8  A    between atoms: S_10  and  C_11
REMARK                            x       y       z     vdW  Elec       q    Type
REMARK                         _______ _______ _______ _____ _____    ______ ____
ROOT
ATOM      1  C   UNL     1       5.316   5.825  17.277  0.00  0.00    +0.000 C 
ATOM      2  C   UNL     1       5.251   4.459  16.584  0.00  0.00    +0.000 C 
ATOM      3  C   UNL     1       4.300   3.515  17.287  0.00  0.00    +0.000 C 
ATOM      4  N   UNL     1       4.790   3.187  18.634  0.00  0.00    +0.000 NA
ATOM      5  C   UNL     1       4.955   4.420  19.438  0.00  0.00    +0.000 C 
ATOM      6  C   UNL     1       5.791   5.502  18.722  0.00  0.00    +0.000 C 
ENDROOT
BRANCH   1   7
ATOM      7  N   UNL     1       4.111   6.697  17.256  0.00  0.00    +0.000 NA
ATOM      8  H   UNL     1       4.371   7.674  17.306  0.00  0.00    +0.000 HD
BRANCH   7  10
ATOM      9  C   UNL     1       1.840   5.547  17.821  0.00  0.00    +0.000 C 
ATOM     10  C   UNL     1       3.035   6.445  18.237  0.00  0.00    +0.000 C 
BRANCH  10  11
ATOM     11  C   UNL     1       2.384   7.763  18.702  0.00  0.00    +0.000 A 
ATOM     12  C   UNL     1       1.936   7.861  20.038  0.00  0.00    +0.000 A 
ATOM     13  C   UNL     1       1.071   8.890  20.415  0.00  0.00    +0.000 A 
ATOM     14  C   UNL     1       0.653   9.821  19.469  0.00  0.00    +0.000 A 
ATOM     15 CL   UNL     1      -0.519  11.007  19.902  0.00  0.00    +0.000 Cl
ATOM     16  C   UNL     1       1.144   9.779  18.165  0.00  0.00    +0.000 A 
ATOM     17  C   UNL     1       2.027   8.763  17.792  0.00  0.00    +0.000 A 
ENDBRANCH  10  11
ENDBRANCH   7  10
ENDBRANCH   1   7
BRANCH   4  18
ATOM     18  C   UNL     1       3.843   2.242  19.274  0.00  0.00    +0.000 C 
BRANCH  18  19
ATOM     19  C   UNL     1       3.681   2.551  20.769  0.00  0.00    +0.000 C 
BRANCH  19  20
ATOM     20  S   UNL     1       2.033   3.067  21.156  0.00  0.00    +0.000 S 
ATOM     21  C   UNL     1       1.100   2.622  19.718  0.00  0.00    +0.000 C 
ATOM     22  O   UNL     1       1.557   2.284  22.269  0.00  0.00    +0.000 OA
ATOM     23  O   UNL     1       2.044   4.535  21.225  0.00  0.00    +0.000 OA
ENDBRANCH  19  20
ENDBRANCH  18  19
ENDBRANCH   4  18
TORSDOF 6
ENDMDL
MODEL 7
REMARK VINA RESULT:      -6.5      4.214      6.787
REMARK  Name = 
REMARK  8 active torsions:
REMARK  status: ('A' for Active; 'I' for Inactive)
REMARK    1  A    between atoms: C_1  and  C_2
REMARK    2  A    between atoms: C_2  and  N_3
REMARK    3  A    between atoms: C_2  and  C_16
REMARK    4  A    between atoms: N_3  and  C_4
REMARK    5  A    between atoms: N_7  and  C_8
REMARK    6  A    between atoms: C_8  and  C_9
REMARK    7  A    between atoms: C_9  and  S_10
REMARK    8  A    between atoms: S_10  and  C_11
REMARK                            x       y       z     vdW  Elec       q    Type
REMARK                         _______ _______ _______ _____ _____    ______ ____
ROOT
ATOM      1  C   UNL     1       3.098   2.939  17.784  0.00  0.00    +0.000 C 
ATOM      2  C   UNL     1       2.106   4.071  17.486  0.00  0.00    +0.000 C 
ATOM      3  C   UNL     1       2.145   5.148  18.547  0.00  0.00    +0.000 C 
ATOM      4  N   UNL     1       1.680   4.625  19.840  0.00  0.00    +0.000 NA
ATOM      5  C   UNL     1       2.517   3.477  20.263  0.00  0.00    +0.000 C 
ATOM      6  C   UNL     1       2.656   2.395  19.172  0.00  0.00    +0.000 C 
ENDROOT
BRANCH   1   7
ATOM      7  N   UNL     1       4.556   3.231  17.725  0.00  0.00    +0.000 NA
ATOM      8  H   UNL     1       4.905   3.513  18.632  0.00  0.00    +0.000 HD
BRANCH   7  10
ATOM      9  C   UNL     1       6.015   3.686  15.612  0.00  0.00    +0.000 C 
ATOM     10  C   UNL     1       5.047   4.191  16.713  0.00  0.00    +0.000 C 
BRANCH  10  11
ATOM     11  C   UNL     1       5.794   5.366  17.376  0.00  0.00    +0.000 A 
ATOM     12  C   UNL     1       5.600   6.666  16.861  0.00  0.00    +0.000 A 
ATOM     13  C   UNL     1       6.476   7.697  17.208  0.00  0.00    +0.000 A 
ATOM     14  C   UNL     1       7.541   7.438  18.064  0.00  0.00    +0.000 A 
ATOM     15 CL   UNL     1       8.698   8.674  18.383  0.00  0.00    +0.000 Cl
ATOM     16  C   UNL     1       7.703   6.177  18.637  0.00  0.00    +0.000 A 
ATOM     17  C   UNL     1       6.813   5.150  18.308  0.00  0.00    +0.000 A 
ENDBRANCH  10  11
ENDBRANCH   7  10
ENDBRANCH   1   7
BRANCH   4  18
ATOM     18  C   UNL     1       1.710   5.719  20.841  0.00  0.00    +0.000 C 
BRANCH  18  19
ATOM     19  C   UNL     1       1.892   7.083  20.162  0.00  0.00    +0.000 C 
BRANCH  19  20
ATOM     20  S   UNL     1       1.018   8.363  21.017  0.00  0.00    +0.000 S 
ATOM     21  C   UNL     1       0.869   9.653  19.813  0.00  0.00    +0.000 C 
ATOM     22  O   UNL     1      -0.303   7.881  21.335  0.00  0.00    +0.000 OA
ATOM     23  O   UNL     1       1.907   8.862  22.074  0.00  0.00    +0.000 OA
ENDBRANCH  19  20
ENDBRANCH  18  19
ENDBRANCH   4  18
TORSDOF 6
ENDMDL
MODEL 8
REMARK VINA RESULT:      -6.5      0.866      1.050
REMARK  Name = 
REMARK  8 active torsions:
REMARK  status: ('A' for Active; 'I' for Inactive)
REMARK    1  A    between atoms: C_1  and  C_2
REMARK    2  A    between atoms: C_2  and  N_3
REMARK    3  A    between atoms: C_2  and  C_16
REMARK    4  A    between atoms: N_3  and  C_4
REMARK    5  A    between atoms: N_7  and  C_8
REMARK    6  A    between atoms: C_8  and  C_9
REMARK    7  A    between atoms: C_9  and  S_10
REMARK    8  A    between atoms: S_10  and  C_11
REMARK                            x       y       z     vdW  Elec       q    Type
REMARK                         _______ _______ _______ _____ _____    ______ ____
ROOT
ATOM      1  C   UNL     1       2.094   5.331  19.994  0.00  0.00    +0.000 C 
ATOM      2  C   UNL     1       3.136   4.291  20.426  0.00  0.00    +0.000 C 
ATOM      3  C   UNL     1       4.248   4.151  19.410  0.00  0.00    +0.000 C 
ATOM      4  N   UNL     1       3.734   3.607  18.144  0.00  0.00    +0.000 NA
ATOM      5  C   UNL     1       2.669   4.482  17.602  0.00  0.00    +0.000 C 
ATOM      6  C   UNL     1       1.564   4.803  18.631  0.00  0.00    +0.000 C 
ENDROOT
BRANCH   1   7
ATOM      7  N   UNL     1       2.496   6.763  19.932  0.00  0.00    +0.000 NA
ATOM      8  H   UNL     1       2.243   7.246  20.785  0.00  0.00    +0.000 HD
BRANCH   7  10
ATOM      9  C   UNL     1       3.107   8.059  17.754  0.00  0.00    +0.000 C 
ATOM     10  C   UNL     1       2.050   7.576  18.780  0.00  0.00    +0.000 C 
BRANCH  10  11
ATOM     11  C   UNL     1       1.347   8.866  19.248  0.00  0.00    +0.000 A 
ATOM     12  C   UNL     1       0.989   8.985  20.608  0.00  0.00    +0.000 A 
ATOM     13  C   UNL     1       0.085   9.969  21.014  0.00  0.00    +0.000 A 
ATOM     14  C   UNL     1      -0.460  10.835  20.071  0.00  0.00    +0.000 A 
ATOM     15 CL   UNL     1      -1.675  11.959  20.548  0.00  0.00    +0.000 Cl
ATOM     16  C   UNL     1      -0.060  10.776  18.737  0.00  0.00    +0.000 A 
ATOM     17  C   UNL     1       0.861   9.805  18.334  0.00  0.00    +0.000 A 
ENDBRANCH  10  11
ENDBRANCH   7  10
ENDBRANCH   1   7
BRANCH   4  18
ATOM     18  C   UNL     1       4.860   3.463  17.190  0.00  0.00    +0.000 C 
BRANCH  18  19
ATOM     19  C   UNL     1       5.373   4.835  16.730  0.00  0.00    +0.000 C 
BRANCH  19  20
ATOM     20  S   UNL     1       7.107   5.020  17.031  0.00  0.00    +0.000 S 
ATOM     21  C   UNL     1       7.314   6.764  17.261  0.00  0.00    +0.000 C 
ATOM     22  O   UNL     1       7.431   4.355  18.269  0.00  0.00    +0.000 OA
ATOM     23  O   UNL     1       7.802   4.664  15.786  0.00  0.00    +0.000 OA
ENDBRANCH  19  20
ENDBRANCH  18  19
ENDBRANCH   4  18
TORSDOF 6
ENDMDL
MODEL 9
REMARK VINA RESULT:      -6.5      0.952      1.545
REMARK  Name = 
REMARK  8 active torsions:
REMARK  status: ('A' for Active; 'I' for Inactive)
REMARK    1  A    between atoms: C_1  and  C_2
REMARK    2  A    between atoms: C_2  and  N_3
REMARK    3  A    between atoms: C_2  and  C_16
REMARK    4  A    between atoms: N_3  and  C_4
REMARK    5  A    between atoms: N_7  and  C_8
REMARK    6  A    between atoms: C_8  and  C_9
REMARK    7  A    between atoms: C_9  and  S_10
REMARK    8  A    between atoms: S_10  and  C_11
REMARK                            x       y       z     vdW  Elec       q    Type
REMARK                         _______ _______ _______ _____ _____    ______ ____
ROOT
ATOM      1  C   UNL     1       2.219   5.403  19.858  0.00  0.00    +0.000 C 
ATOM      2  C   UNL     1       3.243   4.339  20.273  0.00  0.00    +0.000 C 
ATOM      3  C   UNL     1       4.388   4.244  19.289  0.00  0.00    +0.000 C 
ATOM      4  N   UNL     1       3.915   3.764  17.982  0.00  0.00    +0.000 NA
ATOM      5  C   UNL     1       2.870   4.669  17.448  0.00  0.00    +0.000 C 
ATOM      6  C   UNL     1       1.733   4.944  18.455  0.00  0.00    +0.000 C 
ENDROOT
BRANCH   1   7
ATOM      7  N   UNL     1       2.626   6.834  19.880  0.00  0.00    +0.000 NA
ATOM      8  H   UNL     1       2.691   7.177  20.830  0.00  0.00    +0.000 HD
BRANCH   7  10
ATOM      9  C   UNL     1       2.611   8.815  18.184  0.00  0.00    +0.000 C 
ATOM     10  C   UNL     1       1.849   7.805  19.081  0.00  0.00    +0.000 C 
BRANCH  10  11
ATOM     11  C   UNL     1       0.960   8.684  19.983  0.00  0.00    +0.000 A 
ATOM     12  C   UNL     1       0.335   9.817  19.417  0.00  0.00    +0.000 A 
ATOM     13  C   UNL     1      -0.208  10.805  20.242  0.00  0.00    +0.000 A 
ATOM     14  C   UNL     1      -0.134  10.667  21.624  0.00  0.00    +0.000 A 
ATOM     15 CL   UNL     1      -0.681  11.947  22.639  0.00  0.00    +0.000 Cl
ATOM     16  C   UNL     1       0.415   9.519  22.195  0.00  0.00    +0.000 A 
ATOM     17  C   UNL     1       0.939   8.520  21.371  0.00  0.00    +0.000 A 
ENDBRANCH  10  11
ENDBRANCH   7  10
ENDBRANCH   1   7
BRANCH   4  18
ATOM     18  C   UNL     1       5.071   3.662  17.059  0.00  0.00    +0.000 C 
BRANCH  18  19
ATOM     19  C   UNL     1       5.213   4.932  16.209  0.00  0.00    +0.000 C 
BRANCH  19  20
ATOM     20  S   UNL     1       6.833   5.631  16.342  0.00  0.00    +0.000 S 
ATOM     21  C   UNL     1       7.620   4.646  17.585  0.00  0.00    +0.000 C 
ATOM     22  O   UNL     1       7.524   5.427  15.093  0.00  0.00    +0.000 OA
ATOM     23  O   UNL     1       6.677   6.982  16.898  0.00  0.00    +0.000 OA
ENDBRANCH  19  20
ENDBRANCH  18  19
ENDBRANCH   4  18
TORSDOF 6
ENDMDL
