MODEL 1
REMARK VINA RESULT:      -7.6      0.000      0.000
REMARK  Name = 
REMARK  6 active torsions:
REMARK  status: ('A' for Active; 'I' for Inactive)
REMARK    1  A    between atoms: C_1  and  C_2
REMARK    2  A    between atoms: C_2  and  O_3
REMARK    3  A    between atoms: C_2  and  C_11
REMARK    4  A    between atoms: O_3  and  C_4
REMARK    5  A    between atoms: N_13  and  N_14
REMARK    6  A    between atoms: C_15  and  C_17
REMARK                            x       y       z     vdW  Elec       q    Type
REMARK                         _______ _______ _______ _____ _____    ______ ____
ROOT
ATOM      1  C   UNL     1       2.189   5.362  20.079  0.00  0.00    +0.000 C 
ATOM      2  O   UNL     1       1.181   4.934  20.648  0.00  0.00    +0.000 OA
ATOM      3  N   UNL     1       2.591   6.674  20.223  0.00  0.00    +0.000 N 
ATOM      4  H   UNL     1       3.310   7.091  19.633  0.00  0.00    +0.000 HD
ENDROOT
BRANCH   3   5
ATOM      5  N   UNL     1       1.737   7.547  20.914  0.00  0.00    +0.000 N 
ATOM      6  C   UNL     1       1.275   8.691  20.301  0.00  0.00    +0.000 C 
ATOM      7  O   UNL     1       1.501   8.962  19.122  0.00  0.00    +0.000 OA
ATOM      8  H   UNL     1       1.563   7.372  21.907  0.00  0.00    +0.000 HD
BRANCH   6   9
ATOM      9  C   UNL     1       0.463   9.596  21.181  0.00  0.00    +0.000 A 
ATOM     10  C   UNL     1       0.028   9.136  22.419  0.00  0.00    +0.000 A 
ATOM     11  C   UNL     1      -0.721   9.996  23.217  0.00  0.00    +0.000 A 
ATOM     12  C   UNL     1      -1.011  11.275  22.755  0.00  0.00    +0.000 A 
ATOM     13  C   UNL     1      -0.540  11.648  21.504  0.00  0.00    +0.000 A 
ATOM     14  N   UNL     1       0.194  10.842  20.702  0.00  0.00    +0.000 NA
ENDBRANCH   6   9
ENDBRANCH   3   5
BRANCH   1  16
ATOM     15  C   UNL     1       2.662   3.008  19.438  0.00  0.00    +0.000 C 
ATOM     16  C   UNL     1       3.141   4.454  19.264  0.00  0.00    +0.000 C 
BRANCH  16  17
ATOM     17  O   UNL     1       3.161   4.831  17.882  0.00  0.00    +0.000 OA
BRANCH  17  18
ATOM     18  C   UNL     1       4.373   4.887  17.240  0.00  0.00    +0.000 A 
ATOM     19  C   UNL     1       4.811   4.018  16.237  0.00  0.00    +0.000 A 
ATOM     20  C   UNL     1       6.058   4.196  15.628  0.00  0.00    +0.000 A 
ATOM     21  C   UNL     1       6.891   5.235  16.030  0.00  0.00    +0.000 A 
ATOM     22  C   UNL     1       6.461   6.104  17.029  0.00  0.00    +0.000 A 
ATOM     23 BR   UNL     1       7.596   7.512  17.583  0.00  0.00    +0.000 Br
ATOM     24  C   UNL     1       5.207   5.943  17.625  0.00  0.00    +0.000 A 
ENDBRANCH  17  18
ENDBRANCH  16  17
ENDBRANCH   1  16
TORSDOF 5
ENDMDL
MODEL 2
REMARK VINA RESULT:      -7.6      1.438      1.690
REMARK  Name = 
REMARK  6 active torsions:
REMARK  status: ('A' for Active; 'I' for Inactive)
REMARK    1  A    between atoms: C_1  and  C_2
REMARK    2  A    between atoms: C_2  and  O_3
REMARK    3  A    between atoms: C_2  and  C_11
REMARK    4  A    between atoms: O_3  and  C_4
REMARK    5  A    between atoms: N_13  and  N_14
REMARK    6  A    between atoms: C_15  and  C_17
REMARK                            x       y       z     vdW  Elec       q    Type
REMARK                         _______ _______ _______ _____ _____    ______ ____
ROOT
ATOM      1  C   UNL     1       2.718   4.852  20.354  0.00  0.00    +0.000 C 
ATOM      2  O   UNL     1       1.936   4.439  21.215  0.00  0.00    +0.000 OA
ATOM      3  N   UNL     1       2.868   6.202  20.111  0.00  0.00    +0.000 N 
ATOM      4  H   UNL     1       3.370   6.556  19.297  0.00  0.00    +0.000 HD
ENDROOT
BRANCH   3   5
ATOM      5  N   UNL     1       1.997   7.084  20.766  0.00  0.00    +0.000 N 
ATOM      6  C   UNL     1       1.575   8.235  20.135  0.00  0.00    +0.000 C 
ATOM      7  O   UNL     1       1.853   8.503  18.966  0.00  0.00    +0.000 OA
ATOM      8  H   UNL     1       1.780   6.912  21.750  0.00  0.00    +0.000 HD
BRANCH   6   9
ATOM      9  C   UNL     1       0.738   9.149  20.981  0.00  0.00    +0.000 A 
ATOM     10  C   UNL     1       0.628   8.909  22.345  0.00  0.00    +0.000 A 
ATOM     11  C   UNL     1      -0.152   9.774  23.108  0.00  0.00    +0.000 A 
ATOM     12  C   UNL     1      -0.794  10.840  22.487  0.00  0.00    +0.000 A 
ATOM     13  C   UNL     1      -0.632  11.000  21.117  0.00  0.00    +0.000 A 
ATOM     14  N   UNL     1       0.121  10.183  20.344  0.00  0.00    +0.000 NA
ENDBRANCH   6   9
ENDBRANCH   3   5
BRANCH   1  16
ATOM     15  C   UNL     1       3.175   2.480  19.769  0.00  0.00    +0.000 C 
ATOM     16  C   UNL     1       3.668   3.918  19.566  0.00  0.00    +0.000 C 
BRANCH  16  17
ATOM     17  O   UNL     1       3.701   4.264  18.176  0.00  0.00    +0.000 OA
BRANCH  17  18
ATOM     18  C   UNL     1       4.923   4.377  17.562  0.00  0.00    +0.000 A 
ATOM     19  C   UNL     1       6.135   4.664  18.196  0.00  0.00    +0.000 A 
ATOM     20  C   UNL     1       7.329   4.719  17.469  0.00  0.00    +0.000 A 
ATOM     21  C   UNL     1       7.322   4.505  16.094  0.00  0.00    +0.000 A 
ATOM     22  C   UNL     1       6.117   4.219  15.456  0.00  0.00    +0.000 A 
ATOM     23 BR   UNL     1       6.104   3.937  13.586  0.00  0.00    +0.000 Br
ATOM     24  C   UNL     1       4.925   4.142  16.183  0.00  0.00    +0.000 A 
ENDBRANCH  17  18
ENDBRANCH  16  17
ENDBRANCH   1  16
TORSDOF 5
ENDMDL
MODEL 3
REMARK VINA RESULT:      -7.1      1.726      2.237
REMARK  Name = 
REMARK  6 active torsions:
REMARK  status: ('A' for Active; 'I' for Inactive)
REMARK    1  A    between atoms: C_1  and  C_2
REMARK    2  A    between atoms: C_2  and  O_3
REMARK    3  A    between atoms: C_2  and  C_11
REMARK    4  A    between atoms: O_3  and  C_4
REMARK    5  A    between atoms: N_13  and  N_14
REMARK    6  A    between atoms: C_15  and  C_17
REMARK                            x       y       z     vdW  Elec       q    Type
REMARK                         _______ _______ _______ _____ _____    ______ ____
ROOT
ATOM      1  C   UNL     1       2.313   7.142  19.662  0.00  0.00    +0.000 C 
ATOM      2  O   UNL     1       2.090   7.800  18.642  0.00  0.00    +0.000 OA
ATOM      3  N   UNL     1       1.676   7.428  20.852  0.00  0.00    +0.000 N 
ATOM      4  H   UNL     1       1.968   7.016  21.738  0.00  0.00    +0.000 HD
ENDROOT
BRANCH   3   5
ATOM      5  N   UNL     1       0.882   8.582  20.908  0.00  0.00    +0.000 N 
ATOM      6  C   UNL     1       0.953   9.417  22.002  0.00  0.00    +0.000 C 
ATOM      7  O   UNL     1       1.754   9.256  22.923  0.00  0.00    +0.000 OA
ATOM      8  H   UNL     1       0.178   8.724  20.180  0.00  0.00    +0.000 HD
BRANCH   6   9
ATOM      9  C   UNL     1      -0.025  10.556  21.992  0.00  0.00    +0.000 A 
ATOM     10  C   UNL     1      -0.934  10.686  23.036  0.00  0.00    +0.000 A 
ATOM     11  C   UNL     1      -1.828  11.753  23.004  0.00  0.00    +0.000 A 
ATOM     12  C   UNL     1      -1.788  12.645  21.937  0.00  0.00    +0.000 A 
ATOM     13  C   UNL     1      -0.850  12.433  20.936  0.00  0.00    +0.000 A 
ATOM     14  N   UNL     1       0.038  11.412  20.935  0.00  0.00    +0.000 NA
ENDBRANCH   6   9
ENDBRANCH   3   5
BRANCH   1  16
ATOM     15  C   UNL     1       2.554   4.844  20.577  0.00  0.00    +0.000 C 
ATOM     16  C   UNL     1       3.218   5.886  19.669  0.00  0.00    +0.000 C 
BRANCH  16  17
ATOM     17  O   UNL     1       3.407   5.375  18.344  0.00  0.00    +0.000 OA
BRANCH  17  18
ATOM     18  C   UNL     1       4.690   5.159  17.907  0.00  0.00    +0.000 A 
ATOM     19  C   UNL     1       5.848   5.249  18.685  0.00  0.00    +0.000 A 
ATOM     20  C   UNL     1       7.104   4.970  18.137  0.00  0.00    +0.000 A 
ATOM     21  C   UNL     1       7.219   4.614  16.796  0.00  0.00    +0.000 A 
ATOM     22  C   UNL     1       6.070   4.523  16.015  0.00  0.00    +0.000 A 
ATOM     23 BR   UNL     1       6.226   4.048  14.191  0.00  0.00    +0.000 Br
ATOM     24  C   UNL     1       4.811   4.781  16.565  0.00  0.00    +0.000 A 
ENDBRANCH  17  18
ENDBRANCH  16  17
ENDBRANCH   1  16
TORSDOF 5
ENDMDL
MODEL 4
REMARK VINA RESULT:      -7.1      1.658      2.193
REMARK  Name = 
REMARK  6 active torsions:
REMARK  status: ('A' for Active; 'I' for Inactive)
REMARK    1  A    between atoms: C_1  and  C_2
REMARK    2  A    between atoms: C_2  and  O_3
REMARK    3  A    between atoms: C_2  and  C_11
REMARK    4  A    between atoms: O_3  and  C_4
REMARK    5  A    between atoms: N_13  and  N_14
REMARK    6  A    between atoms: C_15  and  C_17
REMARK                            x       y       z     vdW  Elec       q    Type
REMARK                         _______ _______ _______ _____ _____    ______ ____
ROOT
ATOM      1  C   UNL     1       2.351   5.056  20.156  0.00  0.00    +0.000 C 
ATOM      2  O   UNL     1       1.148   4.814  20.295  0.00  0.00    +0.000 OA
ATOM      3  N   UNL     1       2.844   6.337  20.290  0.00  0.00    +0.000 N 
ATOM      4  H   UNL     1       3.792   6.587  20.012  0.00  0.00    +0.000 HD
ENDROOT
BRANCH   3   5
ATOM      5  N   UNL     1       1.919   7.381  20.440  0.00  0.00    +0.000 N 
ATOM      6  C   UNL     1       1.777   8.327  19.448  0.00  0.00    +0.000 C 
ATOM      7  O   UNL     1       2.366   8.266  18.369  0.00  0.00    +0.000 OA
ATOM      8  H   UNL     1       1.444   7.484  21.340  0.00  0.00    +0.000 HD
BRANCH   6   9
ATOM      9  C   UNL     1       0.839   9.452  19.777  0.00  0.00    +0.000 A 
ATOM     10  C   UNL     1       0.286  10.205  18.748  0.00  0.00    +0.000 A 
ATOM     11  C   UNL     1      -0.584  11.240  19.080  0.00  0.00    +0.000 A 
ATOM     12  C   UNL     1      -0.867  11.489  20.419  0.00  0.00    +0.000 A 
ATOM     13  C   UNL     1      -0.265  10.689  21.381  0.00  0.00    +0.000 A 
ATOM     14  N   UNL     1       0.581   9.672  21.096  0.00  0.00    +0.000 NA
ENDBRANCH   6   9
ENDBRANCH   3   5
BRANCH   1  16
ATOM     15  C   UNL     1       2.926   2.696  20.682  0.00  0.00    +0.000 C 
ATOM     16  C   UNL     1       3.410   3.948  19.940  0.00  0.00    +0.000 C 
BRANCH  16  17
ATOM     17  O   UNL     1       3.605   3.681  18.546  0.00  0.00    +0.000 OA
BRANCH  17  18
ATOM     18  C   UNL     1       4.793   4.060  17.971  0.00  0.00    +0.000 A 
ATOM     19  C   UNL     1       5.906   4.566  18.647  0.00  0.00    +0.000 A 
ATOM     20  C   UNL     1       7.081   4.884  17.957  0.00  0.00    +0.000 A 
ATOM     21  C   UNL     1       7.148   4.718  16.577  0.00  0.00    +0.000 A 
ATOM     22  C   UNL     1       6.042   4.215  15.897  0.00  0.00    +0.000 A 
ATOM     23 BR   UNL     1       6.129   3.996  14.021  0.00  0.00    +0.000 Br
ATOM     24  C   UNL     1       4.874   3.875  16.587  0.00  0.00    +0.000 A 
ENDBRANCH  17  18
ENDBRANCH  16  17
ENDBRANCH   1  16
TORSDOF 5
ENDMDL
MODEL 5
REMARK VINA RESULT:      -7.1      1.821      2.425
REMARK  Name = 
REMARK  6 active torsions:
REMARK  status: ('A' for Active; 'I' for Inactive)
REMARK    1  A    between atoms: C_1  and  C_2
REMARK    2  A    between atoms: C_2  and  O_3
REMARK    3  A    between atoms: C_2  and  C_11
REMARK    4  A    between atoms: O_3  and  C_4
REMARK    5  A    between atoms: N_13  and  N_14
REMARK    6  A    between atoms: C_15  and  C_17
REMARK                            x       y       z     vdW  Elec       q    Type
REMARK                         _______ _______ _______ _____ _____    ______ ____
ROOT
ATOM      1  C   UNL     1       2.293   7.223  19.528  0.00  0.00    +0.000 C 
ATOM      2  O   UNL     1       1.973   7.802  18.487  0.00  0.00    +0.000 OA
ATOM      3  N   UNL     1       1.737   7.573  20.742  0.00  0.00    +0.000 N 
ATOM      4  H   UNL     1       2.108   7.233  21.628  0.00  0.00    +0.000 HD
ENDROOT
BRANCH   3   5
ATOM      5  N   UNL     1       0.910   8.705  20.780  0.00  0.00    +0.000 N 
ATOM      6  C   UNL     1       0.870   9.493  21.910  0.00  0.00    +0.000 C 
ATOM      7  O   UNL     1       1.599   9.311  22.886  0.00  0.00    +0.000 OA
ATOM      8  H   UNL     1       0.263   8.861  20.004  0.00  0.00    +0.000 HD
BRANCH   6   9
ATOM      9  C   UNL     1      -0.135  10.607  21.867  0.00  0.00    +0.000 A 
ATOM     10  C   UNL     1      -0.594  11.068  20.639  0.00  0.00    +0.000 A 
ATOM     11  C   UNL     1      -1.528  12.101  20.627  0.00  0.00    +0.000 A 
ATOM     12  C   UNL     1      -1.967  12.636  21.834  0.00  0.00    +0.000 A 
ATOM     13  C   UNL     1      -1.450  12.117  23.013  0.00  0.00    +0.000 A 
ATOM     14  N   UNL     1      -0.545  11.112  23.064  0.00  0.00    +0.000 NA
ENDBRANCH   6   9
ENDBRANCH   3   5
BRANCH   1  16
ATOM     15  C   UNL     1       2.608   4.944  20.469  0.00  0.00    +0.000 C 
ATOM     16  C   UNL     1       3.239   5.998  19.551  0.00  0.00    +0.000 C 
BRANCH  16  17
ATOM     17  O   UNL     1       3.448   5.479  18.232  0.00  0.00    +0.000 OA
BRANCH  17  18
ATOM     18  C   UNL     1       4.734   5.215  17.833  0.00  0.00    +0.000 A 
ATOM     19  C   UNL     1       5.864   5.211  18.656  0.00  0.00    +0.000 A 
ATOM     20  C   UNL     1       7.125   4.891  18.141  0.00  0.00    +0.000 A 
ATOM     21  C   UNL     1       7.274   4.590  16.791  0.00  0.00    +0.000 A 
ATOM     22  C   UNL     1       6.152   4.593  15.965  0.00  0.00    +0.000 A 
ATOM     23 BR   UNL     1       6.354   4.192  14.128  0.00  0.00    +0.000 Br
ATOM     24  C   UNL     1       4.887   4.891  16.480  0.00  0.00    +0.000 A 
ENDBRANCH  17  18
ENDBRANCH  16  17
ENDBRANCH   1  16
TORSDOF 5
ENDMDL
MODEL 6
REMARK VINA RESULT:      -7.1      5.191      7.522
REMARK  Name = 
REMARK  6 active torsions:
REMARK  status: ('A' for Active; 'I' for Inactive)
REMARK    1  A    between atoms: C_1  and  C_2
REMARK    2  A    between atoms: C_2  and  O_3
REMARK    3  A    between atoms: C_2  and  C_11
REMARK    4  A    between atoms: O_3  and  C_4
REMARK    5  A    between atoms: N_13  and  N_14
REMARK    6  A    between atoms: C_15  and  C_17
REMARK                            x       y       z     vdW  Elec       q    Type
REMARK                         _______ _______ _______ _____ _____    ______ ____
ROOT
ATOM      1  C   UNL     1       7.414   6.706  17.983  0.00  0.00    +0.000 C 
ATOM      2  O   UNL     1       8.051   6.236  18.930  0.00  0.00    +0.000 OA
ATOM      3  N   UNL     1       7.660   7.980  17.515  0.00  0.00    +0.000 N 
ATOM      4  H   UNL     1       7.038   8.448  16.856  0.00  0.00    +0.000 HD
ENDROOT
BRANCH   3   5
ATOM      5  N   UNL     1       8.552   8.782  18.242  0.00  0.00    +0.000 N 
ATOM      6  C   UNL     1       8.538  10.151  18.081  0.00  0.00    +0.000 C 
ATOM      7  O   UNL     1       7.711  10.740  17.385  0.00  0.00    +0.000 OA
ATOM      8  H   UNL     1       9.277   8.323  18.797  0.00  0.00    +0.000 HD
BRANCH   6   9
ATOM      9  C   UNL     1       9.612  10.886  18.829  0.00  0.00    +0.000 A 
ATOM     10  C   UNL     1      10.760  11.288  18.157  0.00  0.00    +0.000 A 
ATOM     11  C   UNL     1      11.740  11.971  18.873  0.00  0.00    +0.000 A 
ATOM     12  C   UNL     1      11.543  12.223  20.227  0.00  0.00    +0.000 A 
ATOM     13  C   UNL     1      10.367  11.780  20.817  0.00  0.00    +0.000 A 
ATOM     14  N   UNL     1       9.392  11.118  20.153  0.00  0.00    +0.000 NA
ENDBRANCH   6   9
ENDBRANCH   3   5
BRANCH   1  16
ATOM     15  C   UNL     1       7.028   5.529  15.828  0.00  0.00    +0.000 C 
ATOM     16  C   UNL     1       6.383   5.881  17.174  0.00  0.00    +0.000 C 
BRANCH  16  17
ATOM     17  O   UNL     1       5.989   4.701  17.885  0.00  0.00    +0.000 OA
BRANCH  17  18
ATOM     18  C   UNL     1       4.653   4.394  17.945  0.00  0.00    +0.000 A 
ATOM     19  C   UNL     1       3.950   3.608  17.028  0.00  0.00    +0.000 A 
ATOM     20  C   UNL     1       2.591   3.332  17.214  0.00  0.00    +0.000 A 
ATOM     21  C   UNL     1       1.914   3.856  18.311  0.00  0.00    +0.000 A 
ATOM     22  C   UNL     1       2.608   4.639  19.229  0.00  0.00    +0.000 A 
ATOM     23 BR   UNL     1       1.688   5.359  20.716  0.00  0.00    +0.000 Br
ATOM     24  C   UNL     1       3.971   4.900  19.058  0.00  0.00    +0.000 A 
ENDBRANCH  17  18
ENDBRANCH  16  17
ENDBRANCH   1  16
TORSDOF 5
ENDMDL
MODEL 7
REMARK VINA RESULT:      -7.1      4.958      7.383
REMARK  Name = 
REMARK  6 active torsions:
REMARK  status: ('A' for Active; 'I' for Inactive)
REMARK    1  A    between atoms: C_1  and  C_2
REMARK    2  A    between atoms: C_2  and  O_3
REMARK    3  A    between atoms: C_2  and  C_11
REMARK    4  A    between atoms: O_3  and  C_4
REMARK    5  A    between atoms: N_13  and  N_14
REMARK    6  A    between atoms: C_15  and  C_17
REMARK                            x       y       z     vdW  Elec       q    Type
REMARK                         _______ _______ _______ _____ _____    ______ ____
ROOT
ATOM      1  C   UNL     1       7.398   6.091  18.836  0.00  0.00    +0.000 C 
ATOM      2  O   UNL     1       7.768   5.930  20.002  0.00  0.00    +0.000 OA
ATOM      3  N   UNL     1       7.840   7.161  18.085  0.00  0.00    +0.000 N 
ATOM      4  H   UNL     1       7.419   7.409  17.191  0.00  0.00    +0.000 HD
ENDROOT
BRANCH   3   5
ATOM      5  N   UNL     1       8.604   8.143  18.733  0.00  0.00    +0.000 N 
ATOM      6  C   UNL     1       8.491   9.465  18.359  0.00  0.00    +0.000 C 
ATOM      7  O   UNL     1       7.675   9.863  17.528  0.00  0.00    +0.000 OA
ATOM      8  H   UNL     1       9.320   7.841  19.399  0.00  0.00    +0.000 HD
BRANCH   6   9
ATOM      9  C   UNL     1       9.441  10.400  19.049  0.00  0.00    +0.000 A 
ATOM     10  C   UNL     1      10.523  10.917  18.347  0.00  0.00    +0.000 A 
ATOM     11  C   UNL     1      11.388  11.785  19.009  0.00  0.00    +0.000 A 
ATOM     12  C   UNL     1      11.146  12.101  20.342  0.00  0.00    +0.000 A 
ATOM     13  C   UNL     1      10.044  11.533  20.966  0.00  0.00    +0.000 A 
ATOM     14  N   UNL     1       9.180  10.690  20.354  0.00  0.00    +0.000 NA
ENDBRANCH   6   9
ENDBRANCH   3   5
BRANCH   1  16
ATOM     15  C   UNL     1       7.351   4.488  16.938  0.00  0.00    +0.000 C 
ATOM     16  C   UNL     1       6.515   5.064  18.087  0.00  0.00    +0.000 C 
BRANCH  16  17
ATOM     17  O   UNL     1       6.060   4.030  18.968  0.00  0.00    +0.000 OA
BRANCH  17  18
ATOM     18  C   UNL     1       4.758   4.069  19.399  0.00  0.00    +0.000 A 
ATOM     19  C   UNL     1       4.007   2.976  19.840  0.00  0.00    +0.000 A 
ATOM     20  C   UNL     1       2.693   3.144  20.291  0.00  0.00    +0.000 A 
ATOM     21  C   UNL     1       2.108   4.406  20.288  0.00  0.00    +0.000 A 
ATOM     22  C   UNL     1       2.850   5.499  19.849  0.00  0.00    +0.000 A 
ATOM     23 BR   UNL     1       2.053   7.214  19.836  0.00  0.00    +0.000 Br
ATOM     24  C   UNL     1       4.170   5.339  19.417  0.00  0.00    +0.000 A 
ENDBRANCH  17  18
ENDBRANCH  16  17
ENDBRANCH   1  16
TORSDOF 5
ENDMDL
MODEL 8
REMARK VINA RESULT:      -7.1      1.098      1.397
REMARK  Name = 
REMARK  6 active torsions:
REMARK  status: ('A' for Active; 'I' for Inactive)
REMARK    1  A    between atoms: C_1  and  C_2
REMARK    2  A    between atoms: C_2  and  O_3
REMARK    3  A    between atoms: C_2  and  C_11
REMARK    4  A    between atoms: O_3  and  C_4
REMARK    5  A    between atoms: N_13  and  N_14
REMARK    6  A    between atoms: C_15  and  C_17
REMARK                            x       y       z     vdW  Elec       q    Type
REMARK                         _______ _______ _______ _____ _____    ______ ____
ROOT
ATOM      1  C   UNL     1       2.172   4.987  20.293  0.00  0.00    +0.000 C 
ATOM      2  O   UNL     1       1.009   4.710  20.597  0.00  0.00    +0.000 OA
ATOM      3  N   UNL     1       2.671   6.262  20.457  0.00  0.00    +0.000 N 
ATOM      4  H   UNL     1       3.562   6.554  20.056  0.00  0.00    +0.000 HD
ENDROOT
BRANCH   3   5
ATOM      5  N   UNL     1       1.774   7.271  20.839  0.00  0.00    +0.000 N 
ATOM      6  C   UNL     1       1.534   8.337  19.998  0.00  0.00    +0.000 C 
ATOM      7  O   UNL     1       2.003   8.419  18.863  0.00  0.00    +0.000 OA
ATOM      8  H   UNL     1       1.399   7.253  21.790  0.00  0.00    +0.000 HD
BRANCH   6   9
ATOM      9  C   UNL     1       0.643   9.402  20.568  0.00  0.00    +0.000 A 
ATOM     10  C   UNL     1      -0.057  10.240  19.709  0.00  0.00    +0.000 A 
ATOM     11  C   UNL     1      -0.879  11.218  20.263  0.00  0.00    +0.000 A 
ATOM     12  C   UNL     1      -0.970  11.327  21.647  0.00  0.00    +0.000 A 
ATOM     13  C   UNL     1      -0.231  10.449  22.428  0.00  0.00    +0.000 A 
ATOM     14  N   UNL     1       0.575   9.485  21.926  0.00  0.00    +0.000 NA
ENDBRANCH   6   9
ENDBRANCH   3   5
BRANCH   1  16
ATOM     15  C   UNL     1       2.767   2.577  20.421  0.00  0.00    +0.000 C 
ATOM     16  C   UNL     1       3.192   3.922  19.820  0.00  0.00    +0.000 C 
BRANCH  16  17
ATOM     17  O   UNL     1       3.248   3.857  18.389  0.00  0.00    +0.000 OA
BRANCH  17  18
ATOM     18  C   UNL     1       4.449   4.107  17.774  0.00  0.00    +0.000 A 
ATOM     19  C   UNL     1       4.755   3.846  16.436  0.00  0.00    +0.000 A 
ATOM     20  C   UNL     1       6.007   4.178  15.908  0.00  0.00    +0.000 A 
ATOM     21  C   UNL     1       6.977   4.759  16.720  0.00  0.00    +0.000 A 
ATOM     22  C   UNL     1       6.679   5.021  18.055  0.00  0.00    +0.000 A 
ATOM     23 BR   UNL     1       7.998   5.802  19.162  0.00  0.00    +0.000 Br
ATOM     24  C   UNL     1       5.421   4.710  18.580  0.00  0.00    +0.000 A 
ENDBRANCH  17  18
ENDBRANCH  16  17
ENDBRANCH   1  16
TORSDOF 5
ENDMDL
MODEL 9
REMARK VINA RESULT:      -7.1      5.277      7.548
REMARK  Name = 
REMARK  6 active torsions:
REMARK  status: ('A' for Active; 'I' for Inactive)
REMARK    1  A    between atoms: C_1  and  C_2
REMARK    2  A    between atoms: C_2  and  O_3
REMARK    3  A    between atoms: C_2  and  C_11
REMARK    4  A    between atoms: O_3  and  C_4
REMARK    5  A    between atoms: N_13  and  N_14
REMARK    6  A    between atoms: C_15  and  C_17
REMARK                            x       y       z     vdW  Elec       q    Type
REMARK                         _______ _______ _______ _____ _____    ______ ____
ROOT
ATOM      1  C   UNL     1       7.527   6.195  18.636  0.00  0.00    +0.000 C 
ATOM      2  O   UNL     1       8.053   5.920  19.718  0.00  0.00    +0.000 OA
ATOM      3  N   UNL     1       7.825   7.367  17.972  0.00  0.00    +0.000 N 
ATOM      4  H   UNL     1       7.281   7.694  17.174  0.00  0.00    +0.000 HD
ENDROOT
BRANCH   3   5
ATOM      5  N   UNL     1       8.631   8.306  18.632  0.00  0.00    +0.000 N 
ATOM      6  C   UNL     1       8.535   9.644  18.314  0.00  0.00    +0.000 C 
ATOM      7  O   UNL     1       7.703  10.092  17.525  0.00  0.00    +0.000 OA
ATOM      8  H   UNL     1       9.359   7.964  19.263  0.00  0.00    +0.000 HD
BRANCH   6   9
ATOM      9  C   UNL     1       9.526  10.531  19.009  0.00  0.00    +0.000 A 
ATOM     10  C   UNL     1       9.313  10.888  20.335  0.00  0.00    +0.000 A 
ATOM     11  C   UNL     1      10.250  11.710  20.958  0.00  0.00    +0.000 A 
ATOM     12  C   UNL     1      11.358  12.145  20.239  0.00  0.00    +0.000 A 
ATOM     13  C   UNL     1      11.487  11.743  18.917  0.00  0.00    +0.000 A 
ATOM     14  N   UNL     1      10.601  10.943  18.280  0.00  0.00    +0.000 NA
ENDBRANCH   6   9
ENDBRANCH   3   5
BRANCH   1  16
ATOM     15  C   UNL     1       7.444   4.463  16.856  0.00  0.00    +0.000 C 
ATOM     16  C   UNL     1       6.592   5.217  17.885  0.00  0.00    +0.000 C 
BRANCH  16  17
ATOM     17  O   UNL     1       5.951   4.311  18.792  0.00  0.00    +0.000 OA
BRANCH  17  18
ATOM     18  C   UNL     1       4.633   4.529  19.105  0.00  0.00    +0.000 A 
ATOM     19  C   UNL     1       4.090   5.722  19.588  0.00  0.00    +0.000 A 
ATOM     20  C   UNL     1       2.719   5.837  19.839  0.00  0.00    +0.000 A 
ATOM     21  C   UNL     1       1.875   4.751  19.627  0.00  0.00    +0.000 A 
ATOM     22  C   UNL     1       2.409   3.558  19.147  0.00  0.00    +0.000 A 
ATOM     23 BR   UNL     1       1.266   2.078  18.867  0.00  0.00    +0.000 Br
ATOM     24  C   UNL     1       3.776   3.446  18.874  0.00  0.00    +0.000 A 
ENDBRANCH  17  18
ENDBRANCH  16  17
ENDBRANCH   1  16
TORSDOF 5
ENDMDL
