MODEL 1
REMARK VINA RESULT:      -7.2      0.000      0.000
REMARK  Name = 
REMARK  6 active torsions:
REMARK  status: ('A' for Active; 'I' for Inactive)
REMARK    1  A    between atoms: C_1  and  C_2
REMARK    2  A    between atoms: C_2  and  N_3
REMARK    3  A    between atoms: C_2  and  C_7
REMARK    4  A    between atoms: C_7  and  O_9
REMARK    5  A    between atoms: O_9  and  C_10
REMARK    6  A    between atoms: C_10  and  C_11
REMARK                            x       y       z     vdW  Elec       q    Type
REMARK                         _______ _______ _______ _____ _____    ______ ____
ROOT
ATOM      1  C   UNL     1       7.503   4.746  18.029  0.00  0.00    +0.000 C 
ATOM      2  O   UNL     1       8.537   4.144  17.793  0.00  0.00    +0.000 OA
ENDROOT
BRANCH   1   4
ATOM      3  C   UNL     1       7.730   7.201  17.635  0.00  0.00    +0.000 C 
ATOM      4  C   UNL     1       7.011   5.931  17.165  0.00  0.00    +0.000 C 
BRANCH   4   5
ATOM      5  N   UNL     1       7.196   5.713  15.732  0.00  0.00    +0.000 N 
ATOM      6  C   UNL     1       6.605   4.740  14.980  0.00  0.00    +0.000 C 
ATOM      7  N   UNL     1       7.002   4.690  13.694  0.00  0.00    +0.000 N 
ATOM      8  O   UNL     1       5.798   3.947  15.422  0.00  0.00    +0.000 OA
ATOM      9  H   UNL     1       7.837   6.308  15.234  0.00  0.00    +0.000 HD
ATOM     10  H   UNL     1       7.369   5.488  13.212  0.00  0.00    +0.000 HD
ATOM     11  H   UNL     1       6.510   4.012  13.121  0.00  0.00    +0.000 HD
ENDBRANCH   4   5
ENDBRANCH   1   4
BRANCH   1  12
ATOM     12  O   UNL     1       6.642   4.438  19.049  0.00  0.00    +0.000 OA
BRANCH  12  13
ATOM     13  C   UNL     1       5.519   5.329  19.134  0.00  0.00    +0.000 C 
BRANCH  13  14
ATOM     14  C   UNL     1       4.223   4.566  19.028  0.00  0.00    +0.000 A 
ATOM     15  C   UNL     1       4.179   3.236  19.485  0.00  0.00    +0.000 A 
ATOM     16  C   UNL     1       2.995   2.497  19.413  0.00  0.00    +0.000 A 
ATOM     17  C   UNL     1       1.845   3.081  18.890  0.00  0.00    +0.000 A 
ATOM     18 CL   UNL     1       0.385   2.174  18.811  0.00  0.00    +0.000 Cl
ATOM     19  C   UNL     1       1.869   4.394  18.429  0.00  0.00    +0.000 A 
ATOM     20  C   UNL     1       3.053   5.132  18.499  0.00  0.00    +0.000 A 
ATOM     21 CL   UNL     1       3.010   6.756  17.906  0.00  0.00    +0.000 Cl
ENDBRANCH  13  14
ENDBRANCH  12  13
ENDBRANCH   1  12
TORSDOF 5
ENDMDL
MODEL 2
REMARK VINA RESULT:      -7.1      1.951      2.163
REMARK  Name = 
REMARK  6 active torsions:
REMARK  status: ('A' for Active; 'I' for Inactive)
REMARK    1  A    between atoms: C_1  and  C_2
REMARK    2  A    between atoms: C_2  and  N_3
REMARK    3  A    between atoms: C_2  and  C_7
REMARK    4  A    between atoms: C_7  and  O_9
REMARK    5  A    between atoms: O_9  and  C_10
REMARK    6  A    between atoms: C_10  and  C_11
REMARK                            x       y       z     vdW  Elec       q    Type
REMARK                         _______ _______ _______ _____ _____    ______ ____
ROOT
ATOM      1  C   UNL     1       6.465   6.765  16.886  0.00  0.00    +0.000 C 
ATOM      2  O   UNL     1       6.950   7.827  17.237  0.00  0.00    +0.000 OA
ENDROOT
BRANCH   1   4
ATOM      3  C   UNL     1       7.294   4.839  18.241  0.00  0.00    +0.000 C 
ATOM      4  C   UNL     1       7.278   5.452  16.835  0.00  0.00    +0.000 C 
BRANCH   4   5
ATOM      5  N   UNL     1       6.776   4.501  15.845  0.00  0.00    +0.000 N 
ATOM      6  C   UNL     1       6.980   4.555  14.497  0.00  0.00    +0.000 C 
ATOM      7  N   UNL     1       6.340   3.609  13.784  0.00  0.00    +0.000 N 
ATOM      8  O   UNL     1       7.662   5.400  13.955  0.00  0.00    +0.000 OA
ATOM      9  H   UNL     1       6.198   3.740  16.160  0.00  0.00    +0.000 HD
ATOM     10  H   UNL     1       6.072   2.727  14.176  0.00  0.00    +0.000 HD
ATOM     11  H   UNL     1       6.550   3.608  12.790  0.00  0.00    +0.000 HD
ENDBRANCH   4   5
ENDBRANCH   1   4
BRANCH   1  12
ATOM     12  O   UNL     1       5.153   6.593  16.528  0.00  0.00    +0.000 OA
BRANCH  12  13
ATOM     13  C   UNL     1       4.230   6.932  17.574  0.00  0.00    +0.000 C 
BRANCH  13  14
ATOM     14  C   UNL     1       3.353   5.754  17.914  0.00  0.00    +0.000 A 
ATOM     15  C   UNL     1       3.466   4.579  17.148  0.00  0.00    +0.000 A 
ATOM     16  C   UNL     1       2.679   3.461  17.436  0.00  0.00    +0.000 A 
ATOM     17  C   UNL     1       1.776   3.505  18.495  0.00  0.00    +0.000 A 
ATOM     18 CL   UNL     1       0.815   2.125  18.855  0.00  0.00    +0.000 Cl
ATOM     19  C   UNL     1       1.646   4.658  19.263  0.00  0.00    +0.000 A 
ATOM     20  C   UNL     1       2.432   5.776  18.973  0.00  0.00    +0.000 A 
ATOM     21 CL   UNL     1       2.216   7.175  19.967  0.00  0.00    +0.000 Cl
ENDBRANCH  13  14
ENDBRANCH  12  13
ENDBRANCH   1  12
TORSDOF 5
ENDMDL
MODEL 3
REMARK VINA RESULT:      -7.0      2.183      3.246
REMARK  Name = 
REMARK  6 active torsions:
REMARK  status: ('A' for Active; 'I' for Inactive)
REMARK    1  A    between atoms: C_1  and  C_2
REMARK    2  A    between atoms: C_2  and  N_3
REMARK    3  A    between atoms: C_2  and  C_7
REMARK    4  A    between atoms: C_7  and  O_9
REMARK    5  A    between atoms: O_9  and  C_10
REMARK    6  A    between atoms: C_10  and  C_11
REMARK                            x       y       z     vdW  Elec       q    Type
REMARK                         _______ _______ _______ _____ _____    ______ ____
ROOT
ATOM      1  C   UNL     1       5.306   6.337  16.522  0.00  0.00    +0.000 C 
ATOM      2  O   UNL     1       5.278   6.826  15.405  0.00  0.00    +0.000 OA
ENDROOT
BRANCH   1   4
ATOM      3  C   UNL     1       6.732   4.523  15.566  0.00  0.00    +0.000 C 
ATOM      4  C   UNL     1       6.166   5.100  16.870  0.00  0.00    +0.000 C 
BRANCH   4   5
ATOM      5  N   UNL     1       7.229   5.390  17.829  0.00  0.00    +0.000 N 
ATOM      6  C   UNL     1       7.147   5.274  19.186  0.00  0.00    +0.000 C 
ATOM      7  N   UNL     1       8.236   5.684  19.863  0.00  0.00    +0.000 N 
ATOM      8  O   UNL     1       6.163   4.860  19.766  0.00  0.00    +0.000 OA
ATOM      9  H   UNL     1       8.108   5.737  17.483  0.00  0.00    +0.000 HD
ATOM     10  H   UNL     1       9.151   5.696  19.455  0.00  0.00    +0.000 HD
ATOM     11  H   UNL     1       8.199   5.530  20.866  0.00  0.00    +0.000 HD
ENDBRANCH   4   5
ENDBRANCH   1   4
BRANCH   1  12
ATOM     12  O   UNL     1       4.620   6.829  17.600  0.00  0.00    +0.000 OA
BRANCH  12  13
ATOM     13  C   UNL     1       3.204   6.603  17.524  0.00  0.00    +0.000 C 
BRANCH  13  14
ATOM     14  C   UNL     1       2.759   5.633  18.589  0.00  0.00    +0.000 A 
ATOM     15  C   UNL     1       2.906   4.253  18.355  0.00  0.00    +0.000 A 
ATOM     16  C   UNL     1       2.515   3.321  19.320  0.00  0.00    +0.000 A 
ATOM     17  C   UNL     1       1.981   3.760  20.529  0.00  0.00    +0.000 A 
ATOM     18 CL   UNL     1       1.509   2.612  21.720  0.00  0.00    +0.000 Cl
ATOM     19  C   UNL     1       1.824   5.119  20.778  0.00  0.00    +0.000 A 
ATOM     20  C   UNL     1       2.213   6.051  19.812  0.00  0.00    +0.000 A 
ATOM     21 CL   UNL     1       1.986   7.723  20.189  0.00  0.00    +0.000 Cl
ENDBRANCH  13  14
ENDBRANCH  12  13
ENDBRANCH   1  12
TORSDOF 5
ENDMDL
MODEL 4
REMARK VINA RESULT:      -7.0      2.097      2.490
REMARK  Name = 
REMARK  6 active torsions:
REMARK  status: ('A' for Active; 'I' for Inactive)
REMARK    1  A    between atoms: C_1  and  C_2
REMARK    2  A    between atoms: C_2  and  N_3
REMARK    3  A    between atoms: C_2  and  C_7
REMARK    4  A    between atoms: C_7  and  O_9
REMARK    5  A    between atoms: O_9  and  C_10
REMARK    6  A    between atoms: C_10  and  C_11
REMARK                            x       y       z     vdW  Elec       q    Type
REMARK                         _______ _______ _______ _____ _____    ______ ____
ROOT
ATOM      1  C   UNL     1       5.430   6.366  16.365  0.00  0.00    +0.000 C 
ATOM      2  O   UNL     1       5.088   6.992  15.376  0.00  0.00    +0.000 OA
ENDROOT
BRANCH   1   4
ATOM      3  C   UNL     1       6.662   4.677  17.730  0.00  0.00    +0.000 C 
ATOM      4  C   UNL     1       6.548   5.299  16.333  0.00  0.00    +0.000 C 
BRANCH   4   5
ATOM      5  N   UNL     1       6.338   4.276  15.310  0.00  0.00    +0.000 N 
ATOM      6  C   UNL     1       6.731   4.347  14.005  0.00  0.00    +0.000 C 
ATOM      7  N   UNL     1       6.345   3.311  13.235  0.00  0.00    +0.000 N 
ATOM      8  O   UNL     1       7.359   5.277  13.542  0.00  0.00    +0.000 OA
ATOM      9  H   UNL     1       5.834   3.443  15.560  0.00  0.00    +0.000 HD
ATOM     10  H   UNL     1       6.150   2.403  13.611  0.00  0.00    +0.000 HD
ATOM     11  H   UNL     1       6.699   3.332  12.284  0.00  0.00    +0.000 HD
ENDBRANCH   4   5
ENDBRANCH   1   4
BRANCH   1  12
ATOM     12  O   UNL     1       4.902   6.546  17.617  0.00  0.00    +0.000 OA
BRANCH  12  13
ATOM     13  C   UNL     1       3.468   6.608  17.624  0.00  0.00    +0.000 C 
BRANCH  13  14
ATOM     14  C   UNL     1       2.897   5.642  18.632  0.00  0.00    +0.000 A 
ATOM     15  C   UNL     1       3.045   4.260  18.407  0.00  0.00    +0.000 A 
ATOM     16  C   UNL     1       2.540   3.331  19.321  0.00  0.00    +0.000 A 
ATOM     17  C   UNL     1       1.889   3.774  20.469  0.00  0.00    +0.000 A 
ATOM     18 CL   UNL     1       1.276   2.630  21.598  0.00  0.00    +0.000 Cl
ATOM     19  C   UNL     1       1.729   5.135  20.708  0.00  0.00    +0.000 A 
ATOM     20  C   UNL     1       2.232   6.064  19.793  0.00  0.00    +0.000 A 
ATOM     21 CL   UNL     1       1.996   7.738  20.153  0.00  0.00    +0.000 Cl
ENDBRANCH  13  14
ENDBRANCH  12  13
ENDBRANCH   1  12
TORSDOF 5
ENDMDL
MODEL 5
REMARK VINA RESULT:      -7.0      3.743      5.738
REMARK  Name = 
REMARK  6 active torsions:
REMARK  status: ('A' for Active; 'I' for Inactive)
REMARK    1  A    between atoms: C_1  and  C_2
REMARK    2  A    between atoms: C_2  and  N_3
REMARK    3  A    between atoms: C_2  and  C_7
REMARK    4  A    between atoms: C_7  and  O_9
REMARK    5  A    between atoms: O_9  and  C_10
REMARK    6  A    between atoms: C_10  and  C_11
REMARK                            x       y       z     vdW  Elec       q    Type
REMARK                         _______ _______ _______ _____ _____    ______ ____
ROOT
ATOM      1  C   UNL     1       2.387   4.739  20.328  0.00  0.00    +0.000 C 
ATOM      2  O   UNL     1       1.665   5.523  20.923  0.00  0.00    +0.000 OA
ENDROOT
BRANCH   1   4
ATOM      3  C   UNL     1       1.374   2.832  21.582  0.00  0.00    +0.000 C 
ATOM      4  C   UNL     1       2.617   3.288  20.808  0.00  0.00    +0.000 C 
BRANCH   4   5
ATOM      5  N   UNL     1       2.936   2.365  19.721  0.00  0.00    +0.000 N 
ATOM      6  C   UNL     1       4.122   1.717  19.532  0.00  0.00    +0.000 C 
ATOM      7  N   UNL     1       4.200   0.985  18.404  0.00  0.00    +0.000 N 
ATOM      8  O   UNL     1       5.062   1.802  20.295  0.00  0.00    +0.000 OA
ATOM      9  H   UNL     1       2.239   2.196  19.015  0.00  0.00    +0.000 HD
ATOM     10  H   UNL     1       3.391   0.611  17.947  0.00  0.00    +0.000 HD
ATOM     11  H   UNL     1       5.056   0.448  18.302  0.00  0.00    +0.000 HD
ENDBRANCH   4   5
ENDBRANCH   1   4
BRANCH   1  12
ATOM     12  O   UNL     1       3.048   5.026  19.163  0.00  0.00    +0.000 OA
BRANCH  12  13
ATOM     13  C   UNL     1       4.435   5.338  19.358  0.00  0.00    +0.000 C 
BRANCH  13  14
ATOM     14  C   UNL     1       5.198   5.212  18.064  0.00  0.00    +0.000 A 
ATOM     15  C   UNL     1       4.493   4.896  16.888  0.00  0.00    +0.000 A 
ATOM     16  C   UNL     1       5.161   4.780  15.666  0.00  0.00    +0.000 A 
ATOM     17  C   UNL     1       6.537   4.984  15.607  0.00  0.00    +0.000 A 
ATOM     18 CL   UNL     1       7.357   4.850  14.101  0.00  0.00    +0.000 Cl
ATOM     19  C   UNL     1       7.253   5.293  16.759  0.00  0.00    +0.000 A 
ATOM     20  C   UNL     1       6.585   5.408  17.981  0.00  0.00    +0.000 A 
ATOM     21 CL   UNL     1       7.539   5.792  19.372  0.00  0.00    +0.000 Cl
ENDBRANCH  13  14
ENDBRANCH  12  13
ENDBRANCH   1  12
TORSDOF 5
ENDMDL
MODEL 6
REMARK VINA RESULT:      -6.9      2.496      3.462
REMARK  Name = 
REMARK  6 active torsions:
REMARK  status: ('A' for Active; 'I' for Inactive)
REMARK    1  A    between atoms: C_1  and  C_2
REMARK    2  A    between atoms: C_2  and  N_3
REMARK    3  A    between atoms: C_2  and  C_7
REMARK    4  A    between atoms: C_7  and  O_9
REMARK    5  A    between atoms: O_9  and  C_10
REMARK    6  A    between atoms: C_10  and  C_11
REMARK                            x       y       z     vdW  Elec       q    Type
REMARK                         _______ _______ _______ _____ _____    ______ ____
ROOT
ATOM      1  C   UNL     1       6.675   4.686  14.743  0.00  0.00    +0.000 C 
ATOM      2  O   UNL     1       7.678   4.715  15.437  0.00  0.00    +0.000 OA
ENDROOT
BRANCH   1   4
ATOM      3  C   UNL     1       7.980   5.420  12.745  0.00  0.00    +0.000 C 
ATOM      4  C   UNL     1       6.729   4.657  13.199  0.00  0.00    +0.000 C 
BRANCH   4   5
ATOM      5  N   UNL     1       6.701   3.305  12.647  0.00  0.00    +0.000 N 
ATOM      6  C   UNL     1       5.686   2.747  11.925  0.00  0.00    +0.000 C 
ATOM      7  N   UNL     1       5.860   1.452  11.600  0.00  0.00    +0.000 N 
ATOM      8  O   UNL     1       4.678   3.346  11.611  0.00  0.00    +0.000 OA
ATOM      9  H   UNL     1       7.483   2.696  12.826  0.00  0.00    +0.000 HD
ATOM     10  H   UNL     1       6.767   1.032  11.523  0.00  0.00    +0.000 HD
ATOM     11  H   UNL     1       5.138   1.061  11.003  0.00  0.00    +0.000 HD
ENDBRANCH   4   5
ENDBRANCH   1   4
BRANCH   1  12
ATOM     12  O   UNL     1       5.396   4.642  15.233  0.00  0.00    +0.000 OA
BRANCH  12  13
ATOM     13  C   UNL     1       5.216   3.661  16.264  0.00  0.00    +0.000 C 
BRANCH  13  14
ATOM     14  C   UNL     1       4.352   4.205  17.374  0.00  0.00    +0.000 A 
ATOM     15  C   UNL     1       2.965   3.970  17.333  0.00  0.00    +0.000 A 
ATOM     16  C   UNL     1       2.131   4.449  18.347  0.00  0.00    +0.000 A 
ATOM     17  C   UNL     1       2.675   5.160  19.413  0.00  0.00    +0.000 A 
ATOM     18 CL   UNL     1       1.649   5.740  20.665  0.00  0.00    +0.000 Cl
ATOM     19  C   UNL     1       4.043   5.406  19.470  0.00  0.00    +0.000 A 
ATOM     20  C   UNL     1       4.877   4.929  18.456  0.00  0.00    +0.000 A 
ATOM     21 CL   UNL     1       6.566   5.274  18.591  0.00  0.00    +0.000 Cl
ENDBRANCH  13  14
ENDBRANCH  12  13
ENDBRANCH   1  12
TORSDOF 5
ENDMDL
MODEL 7
REMARK VINA RESULT:      -6.9      2.049      2.437
REMARK  Name = 
REMARK  6 active torsions:
REMARK  status: ('A' for Active; 'I' for Inactive)
REMARK    1  A    between atoms: C_1  and  C_2
REMARK    2  A    between atoms: C_2  and  N_3
REMARK    3  A    between atoms: C_2  and  C_7
REMARK    4  A    between atoms: C_7  and  O_9
REMARK    5  A    between atoms: O_9  and  C_10
REMARK    6  A    between atoms: C_10  and  C_11
REMARK                            x       y       z     vdW  Elec       q    Type
REMARK                         _______ _______ _______ _____ _____    ______ ____
ROOT
ATOM      1  C   UNL     1       6.290   6.502  17.165  0.00  0.00    +0.000 C 
ATOM      2  O   UNL     1       6.300   7.568  16.573  0.00  0.00    +0.000 OA
ENDROOT
BRANCH   1   4
ATOM      3  C   UNL     1       7.573   4.586  18.121  0.00  0.00    +0.000 C 
ATOM      4  C   UNL     1       7.265   5.351  16.828  0.00  0.00    +0.000 C 
BRANCH   4   5
ATOM      5  N   UNL     1       6.763   4.457  15.787  0.00  0.00    +0.000 N 
ATOM      6  C   UNL     1       7.000   4.564  14.447  0.00  0.00    +0.000 C 
ATOM      7  N   UNL     1       6.354   3.666  13.679  0.00  0.00    +0.000 N 
ATOM      8  O   UNL     1       7.714   5.415  13.957  0.00  0.00    +0.000 OA
ATOM      9  H   UNL     1       6.160   3.697  16.055  0.00  0.00    +0.000 HD
ATOM     10  H   UNL     1       6.056   2.775  14.026  0.00  0.00    +0.000 HD
ATOM     11  H   UNL     1       6.587   3.703  12.692  0.00  0.00    +0.000 HD
ENDBRANCH   4   5
ENDBRANCH   1   4
BRANCH   1  12
ATOM     12  O   UNL     1       5.452   6.202  18.206  0.00  0.00    +0.000 OA
BRANCH  12  13
ATOM     13  C   UNL     1       4.094   5.979  17.797  0.00  0.00    +0.000 C 
BRANCH  13  14
ATOM     14  C   UNL     1       3.372   5.109  18.795  0.00  0.00    +0.000 A 
ATOM     15  C   UNL     1       2.723   5.721  19.884  0.00  0.00    +0.000 A 
ATOM     16  C   UNL     1       2.034   4.952  20.826  0.00  0.00    +0.000 A 
ATOM     17  C   UNL     1       1.982   3.568  20.685  0.00  0.00    +0.000 A 
ATOM     18 CL   UNL     1       1.125   2.623  21.839  0.00  0.00    +0.000 Cl
ATOM     19  C   UNL     1       2.620   2.944  19.617  0.00  0.00    +0.000 A 
ATOM     20  C   UNL     1       3.310   3.712  18.677  0.00  0.00    +0.000 A 
ATOM     21 CL   UNL     1       4.081   2.870  17.378  0.00  0.00    +0.000 Cl
ENDBRANCH  13  14
ENDBRANCH  12  13
ENDBRANCH   1  12
TORSDOF 5
ENDMDL
MODEL 8
REMARK VINA RESULT:      -6.8      3.837      5.941
REMARK  Name = 
REMARK  6 active torsions:
REMARK  status: ('A' for Active; 'I' for Inactive)
REMARK    1  A    between atoms: C_1  and  C_2
REMARK    2  A    between atoms: C_2  and  N_3
REMARK    3  A    between atoms: C_2  and  C_7
REMARK    4  A    between atoms: C_7  and  O_9
REMARK    5  A    between atoms: O_9  and  C_10
REMARK    6  A    between atoms: C_10  and  C_11
REMARK                            x       y       z     vdW  Elec       q    Type
REMARK                         _______ _______ _______ _____ _____    ______ ____
ROOT
ATOM      1  C   UNL     1       1.560   3.258  20.959  0.00  0.00    +0.000 C 
ATOM      2  O   UNL     1       1.499   2.822  22.096  0.00  0.00    +0.000 OA
ENDROOT
BRANCH   1   4
ATOM      3  C   UNL     1       0.827   2.316  18.765  0.00  0.00    +0.000 C 
ATOM      4  C   UNL     1       1.997   2.392  19.755  0.00  0.00    +0.000 C 
BRANCH   4   5
ATOM      5  N   UNL     1       3.212   2.879  19.107  0.00  0.00    +0.000 N 
ATOM      6  C   UNL     1       4.492   2.687  19.540  0.00  0.00    +0.000 C 
ATOM      7  N   UNL     1       5.441   3.310  18.816  0.00  0.00    +0.000 N 
ATOM      8  O   UNL     1       4.777   2.030  20.521  0.00  0.00    +0.000 OA
ATOM      9  H   UNL     1       3.123   3.437  18.273  0.00  0.00    +0.000 HD
ATOM     10  H   UNL     1       5.311   3.553  17.852  0.00  0.00    +0.000 HD
ATOM     11  H   UNL     1       6.395   3.107  19.098  0.00  0.00    +0.000 HD
ENDBRANCH   4   5
ENDBRANCH   1   4
BRANCH   1  12
ATOM     12  O   UNL     1       1.224   4.537  20.600  0.00  0.00    +0.000 OA
BRANCH  12  13
ATOM     13  C   UNL     1       2.227   5.505  20.942  0.00  0.00    +0.000 C 
BRANCH  13  14
ATOM     14  C   UNL     1       1.924   6.837  20.303  0.00  0.00    +0.000 A 
ATOM     15  C   UNL     1       1.215   7.800  21.044  0.00  0.00    +0.000 A 
ATOM     16  C   UNL     1       0.923   9.050  20.493  0.00  0.00    +0.000 A 
ATOM     17  C   UNL     1       1.341   9.351  19.199  0.00  0.00    +0.000 A 
ATOM     18 CL   UNL     1       0.989  10.894  18.524  0.00  0.00    +0.000 Cl
ATOM     19  C   UNL     1       2.040   8.411  18.448  0.00  0.00    +0.000 A 
ATOM     20  C   UNL     1       2.330   7.160  18.999  0.00  0.00    +0.000 A 
ATOM     21 CL   UNL     1       3.200   6.041  18.009  0.00  0.00    +0.000 Cl
ENDBRANCH  13  14
ENDBRANCH  12  13
ENDBRANCH   1  12
TORSDOF 5
ENDMDL
MODEL 9
REMARK VINA RESULT:      -6.8      1.327      1.714
REMARK  Name = 
REMARK  6 active torsions:
REMARK  status: ('A' for Active; 'I' for Inactive)
REMARK    1  A    between atoms: C_1  and  C_2
REMARK    2  A    between atoms: C_2  and  N_3
REMARK    3  A    between atoms: C_2  and  C_7
REMARK    4  A    between atoms: C_7  and  O_9
REMARK    5  A    between atoms: O_9  and  C_10
REMARK    6  A    between atoms: C_10  and  C_11
REMARK                            x       y       z     vdW  Elec       q    Type
REMARK                         _______ _______ _______ _____ _____    ______ ____
ROOT
ATOM      1  C   UNL     1       6.900   5.614  17.042  0.00  0.00    +0.000 C 
ATOM      2  O   UNL     1       6.976   6.832  17.045  0.00  0.00    +0.000 OA
ENDROOT
BRANCH   1   4
ATOM      3  C   UNL     1       5.388   4.454  15.430  0.00  0.00    +0.000 C 
ATOM      4  C   UNL     1       6.854   4.784  15.739  0.00  0.00    +0.000 C 
BRANCH   4   5
ATOM      5  N   UNL     1       7.500   5.449  14.610  0.00  0.00    +0.000 N 
ATOM      6  C   UNL     1       7.510   5.016  13.316  0.00  0.00    +0.000 C 
ATOM      7  N   UNL     1       8.249   5.759  12.470  0.00  0.00    +0.000 N 
ATOM      8  O   UNL     1       6.927   4.021  12.936  0.00  0.00    +0.000 OA
ATOM      9  H   UNL     1       8.017   6.295  14.782  0.00  0.00    +0.000 HD
ATOM     10  H   UNL     1       8.447   6.727  12.635  0.00  0.00    +0.000 HD
ATOM     11  H   UNL     1       8.198   5.476  11.496  0.00  0.00    +0.000 HD
ENDBRANCH   4   5
ENDBRANCH   1   4
BRANCH   1  12
ATOM     12  O   UNL     1       6.881   4.837  18.170  0.00  0.00    +0.000 OA
BRANCH  12  13
ATOM     13  C   UNL     1       5.953   5.299  19.163  0.00  0.00    +0.000 C 
BRANCH  13  14
ATOM     14  C   UNL     1       4.620   4.610  19.010  0.00  0.00    +0.000 A 
ATOM     15  C   UNL     1       4.498   3.270  19.424  0.00  0.00    +0.000 A 
ATOM     16  C   UNL     1       3.278   2.597  19.309  0.00  0.00    +0.000 A 
ATOM     17  C   UNL     1       2.170   3.258  18.785  0.00  0.00    +0.000 A 
ATOM     18 CL   UNL     1       0.667   2.432  18.653  0.00  0.00    +0.000 Cl
ATOM     19  C   UNL     1       2.271   4.581  18.366  0.00  0.00    +0.000 A 
ATOM     20  C   UNL     1       3.491   5.253  18.480  0.00  0.00    +0.000 A 
ATOM     21 CL   UNL     1       3.545   6.894  17.938  0.00  0.00    +0.000 Cl
ENDBRANCH  13  14
ENDBRANCH  12  13
ENDBRANCH   1  12
TORSDOF 5
ENDMDL
