MODEL 1
REMARK VINA RESULT:      -6.8      0.000      0.000
REMARK  Name = 
REMARK  3 active torsions:
REMARK  status: ('A' for Active; 'I' for Inactive)
REMARK    1  A    between atoms: O_1  and  C_2
REMARK    2  A    between atoms: C_3  and  C_4
REMARK    3  A    between atoms: C_4  and  N_5
REMARK                            x       y       z     vdW  Elec       q    Type
REMARK                         _______ _______ _______ _____ _____    ______ ____
ROOT
ATOM      1  C   UNL     1       5.262   3.945  18.384  0.00  0.00    +0.000 A 
ATOM      2  C   UNL     1       4.243   3.874  17.416  0.00  0.00    +0.000 A 
ATOM      3  C   UNL     1       4.238   4.847  16.408  0.00  0.00    +0.000 A 
ATOM      4  C   UNL     1       5.208   5.849  16.375  0.00  0.00    +0.000 A 
ATOM      5 CL   UNL     1       5.102   6.991  15.072  0.00  0.00    +0.000 Cl
ATOM      6  C   UNL     1       6.204   5.938  17.375  0.00  0.00    +0.000 A 
ATOM      7  C   UNL     1       7.173   6.968  17.422  0.00  0.00    +0.000 A 
ATOM      8  C   UNL     1       8.103   7.023  18.451  0.00  0.00    +0.000 A 
ATOM      9  C   UNL     1       8.061   6.028  19.399  0.00  0.00    +0.000 A 
ATOM     10  N   UNL     1       7.163   5.021  19.378  0.00  0.00    +0.000 NA
ATOM     11  C   UNL     1       6.244   4.961  18.396  0.00  0.00    +0.000 A 
ENDROOT
BRANCH   1  12
ATOM     12  O   UNL     1       5.311   3.018  19.406  0.00  0.00    +0.000 OA
ATOM     13  H   UNL     1       6.191   3.015  19.813  0.00  0.00    +0.000 HD
ENDBRANCH   1  12
BRANCH   2  14
ATOM     14  C   UNL     1       3.128   2.850  17.442  0.00  0.00    +0.000 C 
BRANCH  14  15
ATOM     15  N   UNL     1       2.130   3.041  18.527  0.00  0.00    +0.000 NA
ATOM     16  C   UNL     1       2.175   4.443  19.015  0.00  0.00    +0.000 C 
ATOM     17  C   UNL     1       1.400   4.786  20.296  0.00  0.00    +0.000 C 
ATOM     18  S   UNL     1       1.926   3.773  21.700  0.00  0.00    +0.000 S 
ATOM     19  C   UNL     1       1.619   2.179  20.903  0.00  0.00    +0.000 C 
ATOM     20  C   UNL     1       2.410   2.047  19.594  0.00  0.00    +0.000 C 
ENDBRANCH  14  15
ENDBRANCH   2  14
TORSDOF 3
ENDMDL
MODEL 2
REMARK VINA RESULT:      -6.8      3.447      5.732
REMARK  Name = 
REMARK  3 active torsions:
REMARK  status: ('A' for Active; 'I' for Inactive)
REMARK    1  A    between atoms: O_1  and  C_2
REMARK    2  A    between atoms: C_3  and  C_4
REMARK    3  A    between atoms: C_4  and  N_5
REMARK                            x       y       z     vdW  Elec       q    Type
REMARK                         _______ _______ _______ _____ _____    ______ ____
ROOT
ATOM      1  C   UNL     1       5.191   4.747  18.214  0.00  0.00    +0.000 A 
ATOM      2  C   UNL     1       5.533   5.683  17.220  0.00  0.00    +0.000 A 
ATOM      3  C   UNL     1       4.702   6.802  17.070  0.00  0.00    +0.000 A 
ATOM      4  C   UNL     1       3.577   6.972  17.876  0.00  0.00    +0.000 A 
ATOM      5 CL   UNL     1       2.632   8.401  17.601  0.00  0.00    +0.000 Cl
ATOM      6  C   UNL     1       3.217   6.006  18.844  0.00  0.00    +0.000 A 
ATOM      7  C   UNL     1       2.054   6.100  19.645  0.00  0.00    +0.000 A 
ATOM      8  C   UNL     1       1.733   5.100  20.553  0.00  0.00    +0.000 A 
ATOM      9  C   UNL     1       2.600   4.038  20.660  0.00  0.00    +0.000 A 
ATOM     10  N   UNL     1       3.726   3.922  19.927  0.00  0.00    +0.000 NA
ATOM     11  C   UNL     1       4.044   4.875  19.029  0.00  0.00    +0.000 A 
ENDROOT
BRANCH   1  12
ATOM     12  O   UNL     1       5.968   3.622  18.401  0.00  0.00    +0.000 OA
ATOM     13  H   UNL     1       6.374   3.352  17.564  0.00  0.00    +0.000 HD
ENDBRANCH   1  12
BRANCH   2  14
ATOM     14  C   UNL     1       6.703   5.516  16.274  0.00  0.00    +0.000 C 
BRANCH  14  15
ATOM     15  N   UNL     1       6.334   5.413  14.838  0.00  0.00    +0.000 NA
ATOM     16  C   UNL     1       5.445   4.243  14.625  0.00  0.00    +0.000 C 
ATOM     17  C   UNL     1       5.148   3.815  13.180  0.00  0.00    +0.000 C 
ATOM     18  S   UNL     1       6.660   3.442  12.258  0.00  0.00    +0.000 S 
ATOM     19  C   UNL     1       7.450   5.044  12.543  0.00  0.00    +0.000 C 
ATOM     20  C   UNL     1       7.586   5.342  14.042  0.00  0.00    +0.000 C 
ENDBRANCH  14  15
ENDBRANCH   2  14
TORSDOF 3
ENDMDL
MODEL 3
REMARK VINA RESULT:      -6.6      4.921      6.608
REMARK  Name = 
REMARK  3 active torsions:
REMARK  status: ('A' for Active; 'I' for Inactive)
REMARK    1  A    between atoms: O_1  and  C_2
REMARK    2  A    between atoms: C_3  and  C_4
REMARK    3  A    between atoms: C_4  and  N_5
REMARK                            x       y       z     vdW  Elec       q    Type
REMARK                         _______ _______ _______ _____ _____    ______ ____
ROOT
ATOM      1  C   UNL     1       1.601   8.292  20.258  0.00  0.00    +0.000 A 
ATOM      2  C   UNL     1       1.757   8.516  18.878  0.00  0.00    +0.000 A 
ATOM      3  C   UNL     1       1.121   9.636  18.327  0.00  0.00    +0.000 A 
ATOM      4  C   UNL     1       0.358  10.491  19.123  0.00  0.00    +0.000 A 
ATOM      5 CL   UNL     1      -0.373  11.849  18.327  0.00  0.00    +0.000 Cl
ATOM      6  C   UNL     1       0.171  10.235  20.501  0.00  0.00    +0.000 A 
ATOM      7  C   UNL     1      -0.641  11.035  21.340  0.00  0.00    +0.000 A 
ATOM      8  C   UNL     1      -0.816  10.712  22.678  0.00  0.00    +0.000 A 
ATOM      9  C   UNL     1      -0.150   9.608  23.157  0.00  0.00    +0.000 A 
ATOM     10  N   UNL     1       0.646   8.832  22.393  0.00  0.00    +0.000 NA
ATOM     11  C   UNL     1       0.814   9.122  21.088  0.00  0.00    +0.000 A 
ENDROOT
BRANCH   1  12
ATOM     12  O   UNL     1       2.198   7.200  20.854  0.00  0.00    +0.000 OA
ATOM     13  H   UNL     1       1.685   6.397  20.672  0.00  0.00    +0.000 HD
ENDBRANCH   1  12
BRANCH   2  14
ATOM     14  C   UNL     1       2.518   7.587  17.956  0.00  0.00    +0.000 C 
BRANCH  14  15
ATOM     15  N   UNL     1       2.840   6.257  18.538  0.00  0.00    +0.000 NA
ATOM     16  C   UNL     1       4.272   5.938  18.311  0.00  0.00    +0.000 C 
ATOM     17  C   UNL     1       4.751   4.510  18.614  0.00  0.00    +0.000 C 
ATOM     18  S   UNL     1       3.829   3.270  17.673  0.00  0.00    +0.000 S 
ATOM     19  C   UNL     1       2.192   3.777  18.253  0.00  0.00    +0.000 C 
ATOM     20  C   UNL     1       1.921   5.255  17.940  0.00  0.00    +0.000 C 
ENDBRANCH  14  15
ENDBRANCH   2  14
TORSDOF 3
ENDMDL
MODEL 4
REMARK VINA RESULT:      -6.5      5.238      6.814
REMARK  Name = 
REMARK  3 active torsions:
REMARK  status: ('A' for Active; 'I' for Inactive)
REMARK    1  A    between atoms: O_1  and  C_2
REMARK    2  A    between atoms: C_3  and  C_4
REMARK    3  A    between atoms: C_4  and  N_5
REMARK                            x       y       z     vdW  Elec       q    Type
REMARK                         _______ _______ _______ _____ _____    ______ ____
ROOT
ATOM      1  C   UNL     1       1.459   8.780  19.089  0.00  0.00    +0.000 A 
ATOM      2  C   UNL     1       1.796   7.831  20.071  0.00  0.00    +0.000 A 
ATOM      3  C   UNL     1       1.355   8.067  21.380  0.00  0.00    +0.000 A 
ATOM      4  C   UNL     1       0.613   9.207  21.691  0.00  0.00    +0.000 A 
ATOM      5 CL   UNL     1       0.116   9.384  23.344  0.00  0.00    +0.000 Cl
ATOM      6  C   UNL     1       0.314  10.177  20.706  0.00  0.00    +0.000 A 
ATOM      7  C   UNL     1      -0.382  11.378  20.981  0.00  0.00    +0.000 A 
ATOM      8  C   UNL     1      -0.612  12.311  19.979  0.00  0.00    +0.000 A 
ATOM      9  C   UNL     1      -0.165  12.008  18.715  0.00  0.00    +0.000 A 
ATOM     10  N   UNL     1       0.486  10.867  18.411  0.00  0.00    +0.000 NA
ATOM     11  C   UNL     1       0.733   9.958  19.374  0.00  0.00    +0.000 A 
ENDROOT
BRANCH   1  12
ATOM     12  O   UNL     1       1.875   8.604  17.785  0.00  0.00    +0.000 OA
ATOM     13  H   UNL     1       2.566   9.245  17.564  0.00  0.00    +0.000 HD
ENDBRANCH   1  12
BRANCH   2  14
ATOM     14  C   UNL     1       2.653   6.612  19.804  0.00  0.00    +0.000 C 
BRANCH  14  15
ATOM     15  N   UNL     1       1.944   5.481  19.148  0.00  0.00    +0.000 NA
ATOM     16  C   UNL     1       1.485   4.509  20.172  0.00  0.00    +0.000 C 
ATOM     17  C   UNL     1       0.949   3.153  19.690  0.00  0.00    +0.000 C 
ATOM     18  S   UNL     1       2.163   2.258  18.690  0.00  0.00    +0.000 S 
ATOM     19  C   UNL     1       2.406   3.576  17.474  0.00  0.00    +0.000 C 
ATOM     20  C   UNL     1       2.858   4.880  18.146  0.00  0.00    +0.000 C 
ENDBRANCH  14  15
ENDBRANCH   2  14
TORSDOF 3
ENDMDL
MODEL 5
REMARK VINA RESULT:      -6.5      2.752      5.624
REMARK  Name = 
REMARK  3 active torsions:
REMARK  status: ('A' for Active; 'I' for Inactive)
REMARK    1  A    between atoms: O_1  and  C_2
REMARK    2  A    between atoms: C_3  and  C_4
REMARK    3  A    between atoms: C_4  and  N_5
REMARK                            x       y       z     vdW  Elec       q    Type
REMARK                         _______ _______ _______ _____ _____    ______ ____
ROOT
ATOM      1  C   UNL     1       4.608   3.973  19.425  0.00  0.00    +0.000 A 
ATOM      2  C   UNL     1       5.091   5.282  19.240  0.00  0.00    +0.000 A 
ATOM      3  C   UNL     1       4.191   6.338  19.435  0.00  0.00    +0.000 A 
ATOM      4  C   UNL     1       2.865   6.093  19.795  0.00  0.00    +0.000 A 
ATOM      5 CL   UNL     1       1.850   7.482  20.016  0.00  0.00    +0.000 Cl
ATOM      6  C   UNL     1       2.378   4.773  19.938  0.00  0.00    +0.000 A 
ATOM      7  C   UNL     1       1.030   4.468  20.242  0.00  0.00    +0.000 A 
ATOM      8  C   UNL     1       0.601   3.151  20.333  0.00  0.00    +0.000 A 
ATOM      9  C   UNL     1       1.541   2.164  20.145  0.00  0.00    +0.000 A 
ATOM     10  N   UNL     1       2.837   2.415  19.871  0.00  0.00    +0.000 NA
ATOM     11  C   UNL     1       3.266   3.688  19.763  0.00  0.00    +0.000 A 
ENDROOT
BRANCH   1  12
ATOM     12  O   UNL     1       5.448   2.893  19.239  0.00  0.00    +0.000 OA
ATOM     13  H   UNL     1       4.950   2.139  18.888  0.00  0.00    +0.000 HD
ENDBRANCH   1  12
BRANCH   2  14
ATOM     14  C   UNL     1       6.499   5.603  18.787  0.00  0.00    +0.000 C 
BRANCH  14  15
ATOM     15  N   UNL     1       6.654   5.790  17.320  0.00  0.00    +0.000 NA
ATOM     16  C   UNL     1       5.360   6.209  16.723  0.00  0.00    +0.000 C 
ATOM     17  C   UNL     1       5.242   6.217  15.192  0.00  0.00    +0.000 C 
ATOM     18  S   UNL     1       5.598   4.596  14.473  0.00  0.00    +0.000 S 
ATOM     19  C   UNL     1       7.240   4.422  15.214  0.00  0.00    +0.000 C 
ATOM     20  C   UNL     1       7.176   4.525  16.744  0.00  0.00    +0.000 C 
ENDBRANCH  14  15
ENDBRANCH   2  14
TORSDOF 3
ENDMDL
MODEL 6
REMARK VINA RESULT:      -6.5      4.524      5.965
REMARK  Name = 
REMARK  3 active torsions:
REMARK  status: ('A' for Active; 'I' for Inactive)
REMARK    1  A    between atoms: O_1  and  C_2
REMARK    2  A    between atoms: C_3  and  C_4
REMARK    3  A    between atoms: C_4  and  N_5
REMARK                            x       y       z     vdW  Elec       q    Type
REMARK                         _______ _______ _______ _____ _____    ______ ____
ROOT
ATOM      1  C   UNL     1       2.088   6.732  19.951  0.00  0.00    +0.000 A 
ATOM      2  C   UNL     1       2.467   7.520  18.849  0.00  0.00    +0.000 A 
ATOM      3  C   UNL     1       3.203   6.900  17.830  0.00  0.00    +0.000 A 
ATOM      4  C   UNL     1       3.547   5.551  17.915  0.00  0.00    +0.000 A 
ATOM      5 CL   UNL     1       4.452   4.895  16.587  0.00  0.00    +0.000 Cl
ATOM      6  C   UNL     1       3.199   4.776  19.046  0.00  0.00    +0.000 A 
ATOM      7  C   UNL     1       3.575   3.422  19.209  0.00  0.00    +0.000 A 
ATOM      8  C   UNL     1       3.236   2.723  20.359  0.00  0.00    +0.000 A 
ATOM      9  C   UNL     1       2.500   3.388  21.312  0.00  0.00    +0.000 A 
ATOM     10  N   UNL     1       2.108   4.673  21.184  0.00  0.00    +0.000 NA
ATOM     11  C   UNL     1       2.443   5.370  20.081  0.00  0.00    +0.000 A 
ENDROOT
BRANCH   1  12
ATOM     12  O   UNL     1       1.370   7.292  20.988  0.00  0.00    +0.000 OA
ATOM     13  H   UNL     1       1.766   8.135  21.253  0.00  0.00    +0.000 HD
ENDBRANCH   1  12
BRANCH   2  14
ATOM     14  C   UNL     1       2.177   9.002  18.736  0.00  0.00    +0.000 C 
BRANCH  14  15
ATOM     15  N   UNL     1       0.800   9.401  19.129  0.00  0.00    +0.000 NA
ATOM     16  C   UNL     1      -0.001   9.716  17.919  0.00  0.00    +0.000 C 
ATOM     17  C   UNL     1      -1.371  10.383  18.114  0.00  0.00    +0.000 C 
ATOM     18  S   UNL     1      -1.245  11.941  19.024  0.00  0.00    +0.000 S 
ATOM     19  C   UNL     1      -0.407  11.244  20.468  0.00  0.00    +0.000 C 
ATOM     20  C   UNL     1       0.899  10.543  20.072  0.00  0.00    +0.000 C 
ENDBRANCH  14  15
ENDBRANCH   2  14
TORSDOF 3
ENDMDL
MODEL 7
REMARK VINA RESULT:      -6.4      4.348      5.877
REMARK  Name = 
REMARK  3 active torsions:
REMARK  status: ('A' for Active; 'I' for Inactive)
REMARK    1  A    between atoms: O_1  and  C_2
REMARK    2  A    between atoms: C_3  and  C_4
REMARK    3  A    between atoms: C_4  and  N_5
REMARK                            x       y       z     vdW  Elec       q    Type
REMARK                         _______ _______ _______ _____ _____    ______ ____
ROOT
ATOM      1  C   UNL     1       1.873   7.530  20.205  0.00  0.00    +0.000 A 
ATOM      2  C   UNL     1       2.250   7.627  18.853  0.00  0.00    +0.000 A 
ATOM      3  C   UNL     1       1.960   8.823  18.184  0.00  0.00    +0.000 A 
ATOM      4  C   UNL     1       1.316   9.873  18.839  0.00  0.00    +0.000 A 
ATOM      5 CL   UNL     1       1.020  11.306  17.907  0.00  0.00    +0.000 Cl
ATOM      6  C   UNL     1       0.903   9.752  20.186  0.00  0.00    +0.000 A 
ATOM      7  C   UNL     1       0.194  10.762  20.878  0.00  0.00    +0.000 A 
ATOM      8  C   UNL     1      -0.219  10.570  22.190  0.00  0.00    +0.000 A 
ATOM      9  C   UNL     1       0.112   9.378  22.791  0.00  0.00    +0.000 A 
ATOM     10  N   UNL     1       0.802   8.399  22.170  0.00  0.00    +0.000 NA
ATOM     11  C   UNL     1       1.196   8.563  20.892  0.00  0.00    +0.000 A 
ENDROOT
BRANCH   1  12
ATOM     12  O   UNL     1       2.125   6.372  20.913  0.00  0.00    +0.000 OA
ATOM     13  H   UNL     1       3.067   6.147  20.863  0.00  0.00    +0.000 HD
ENDBRANCH   1  12
BRANCH   2  14
ATOM     14  C   UNL     1       2.891   6.497  18.076  0.00  0.00    +0.000 C 
BRANCH  14  15
ATOM     15  N   UNL     1       2.787   5.160  18.718  0.00  0.00    +0.000 NA
ATOM     16  C   UNL     1       4.137   4.556  18.852  0.00  0.00    +0.000 C 
ATOM     17  C   UNL     1       4.230   3.080  19.264  0.00  0.00    +0.000 C 
ATOM     18  S   UNL     1       3.333   1.999  18.123  0.00  0.00    +0.000 S 
ATOM     19  C   UNL     1       1.741   2.844  18.281  0.00  0.00    +0.000 C 
ATOM     20  C   UNL     1       1.858   4.330  17.911  0.00  0.00    +0.000 C 
ENDBRANCH  14  15
ENDBRANCH   2  14
TORSDOF 3
ENDMDL
MODEL 8
REMARK VINA RESULT:      -6.4      2.645      5.776
REMARK  Name = 
REMARK  3 active torsions:
REMARK  status: ('A' for Active; 'I' for Inactive)
REMARK    1  A    between atoms: O_1  and  C_2
REMARK    2  A    between atoms: C_3  and  C_4
REMARK    3  A    between atoms: C_4  and  N_5
REMARK                            x       y       z     vdW  Elec       q    Type
REMARK                         _______ _______ _______ _____ _____    ______ ____
ROOT
ATOM      1  C   UNL     1       3.392   4.351  17.481  0.00  0.00    +0.000 A 
ATOM      2  C   UNL     1       3.837   5.683  17.403  0.00  0.00    +0.000 A 
ATOM      3  C   UNL     1       3.336   6.590  18.346  0.00  0.00    +0.000 A 
ATOM      4  C   UNL     1       2.427   6.181  19.321  0.00  0.00    +0.000 A 
ATOM      5 CL   UNL     1       1.886   7.393  20.439  0.00  0.00    +0.000 Cl
ATOM      6  C   UNL     1       1.953   4.849  19.367  0.00  0.00    +0.000 A 
ATOM      7  C   UNL     1       0.986   4.397  20.296  0.00  0.00    +0.000 A 
ATOM      8  C   UNL     1       0.531   3.086  20.268  0.00  0.00    +0.000 A 
ATOM      9  C   UNL     1       1.076   2.245  19.326  0.00  0.00    +0.000 A 
ATOM     10  N   UNL     1       2.011   2.635  18.435  0.00  0.00    +0.000 NA
ATOM     11  C   UNL     1       2.452   3.908  18.438  0.00  0.00    +0.000 A 
ENDROOT
BRANCH   1  12
ATOM     12  O   UNL     1       3.845   3.415  16.572  0.00  0.00    +0.000 OA
ATOM     13  H   UNL     1       4.435   3.833  15.927  0.00  0.00    +0.000 HD
ENDBRANCH   1  12
BRANCH   2  14
ATOM     14  C   UNL     1       4.771   6.196  16.327  0.00  0.00    +0.000 C 
BRANCH  14  15
ATOM     15  N   UNL     1       6.216   6.120  16.667  0.00  0.00    +0.000 NA
ATOM     16  C   UNL     1       6.512   4.827  17.335  0.00  0.00    +0.000 C 
ATOM     17  C   UNL     1       7.891   4.651  17.986  0.00  0.00    +0.000 C 
ATOM     18  S   UNL     1       8.223   5.921  19.232  0.00  0.00    +0.000 S 
ATOM     19  C   UNL     1       7.958   7.332  18.131  0.00  0.00    +0.000 C 
ATOM     20  C   UNL     1       6.558   7.297  17.504  0.00  0.00    +0.000 C 
ENDBRANCH  14  15
ENDBRANCH   2  14
TORSDOF 3
ENDMDL
MODEL 9
REMARK VINA RESULT:      -6.3      4.763      6.537
REMARK  Name = 
REMARK  3 active torsions:
REMARK  status: ('A' for Active; 'I' for Inactive)
REMARK    1  A    between atoms: O_1  and  C_2
REMARK    2  A    between atoms: C_3  and  C_4
REMARK    3  A    between atoms: C_4  and  N_5
REMARK                            x       y       z     vdW  Elec       q    Type
REMARK                         _______ _______ _______ _____ _____    ______ ____
ROOT
ATOM      1  C   UNL     1       1.693   7.832  20.248  0.00  0.00    +0.000 A 
ATOM      2  C   UNL     1       1.998   8.018  18.888  0.00  0.00    +0.000 A 
ATOM      3  C   UNL     1       1.667   9.251  18.311  0.00  0.00    +0.000 A 
ATOM      4  C   UNL     1       1.054  10.252  19.064  0.00  0.00    +0.000 A 
ATOM      5 CL   UNL     1       0.702  11.739  18.242  0.00  0.00    +0.000 Cl
ATOM      6  C   UNL     1       0.712  10.043  20.421  0.00  0.00    +0.000 A 
ATOM      7  C   UNL     1       0.035  11.001  21.212  0.00  0.00    +0.000 A 
ATOM      8  C   UNL     1      -0.307  10.723  22.528  0.00  0.00    +0.000 A 
ATOM      9  C   UNL     1       0.061   9.499  23.034  0.00  0.00    +0.000 A 
ATOM     10  N   UNL     1       0.722   8.567  22.317  0.00  0.00    +0.000 NA
ATOM     11  C   UNL     1       1.047   8.814  21.033  0.00  0.00    +0.000 A 
ENDROOT
BRANCH   1  12
ATOM     12  O   UNL     1       1.988   6.634  20.867  0.00  0.00    +0.000 OA
ATOM     13  H   UNL     1       1.221   6.318  21.368  0.00  0.00    +0.000 HD
ENDBRANCH   1  12
BRANCH   2  14
ATOM     14  C   UNL     1       2.603   6.944  18.007  0.00  0.00    +0.000 C 
BRANCH  14  15
ATOM     15  N   UNL     1       4.000   6.568  18.352  0.00  0.00    +0.000 NA
ATOM     16  C   UNL     1       4.922   7.003  17.272  0.00  0.00    +0.000 C 
ATOM     17  C   UNL     1       6.371   6.496  17.314  0.00  0.00    +0.000 C 
ATOM     18  S   UNL     1       6.460   4.689  17.321  0.00  0.00    +0.000 S 
ATOM     19  C   UNL     1       5.419   4.459  18.783  0.00  0.00    +0.000 C 
ATOM     20  C   UNL     1       4.039   5.104  18.593  0.00  0.00    +0.000 C 
ENDBRANCH  14  15
ENDBRANCH   2  14
TORSDOF 3
ENDMDL
