MODEL 1
REMARK VINA RESULT:      -6.9      0.000      0.000
REMARK  Name = 
REMARK  4 active torsions:
REMARK  status: ('A' for Active; 'I' for Inactive)
REMARK    1  A    between atoms: C_4  and  C_5
REMARK    2  A    between atoms: C_10  and  O_11
REMARK    3  A    between atoms: O_11  and  C_12
REMARK    4  A    between atoms: C_12  and  C_13
REMARK                            x       y       z     vdW  Elec       q    Type
REMARK                         _______ _______ _______ _____ _____    ______ ____
ROOT
ATOM      1  C   UNL     1       2.262   7.020  18.405  0.00  0.00    +0.000 A 
ATOM      2  C   UNL     1       3.182   7.844  17.771  0.00  0.00    +0.000 A 
ATOM      3  C   UNL     1       4.260   7.281  17.084  0.00  0.00    +0.000 A 
ATOM      4  C   UNL     1       4.432   5.885  17.017  0.00  0.00    +0.000 A 
ATOM      5  C   UNL     1       3.475   5.053  17.640  0.00  0.00    +0.000 A 
ATOM      6  C   UNL     1       2.408   5.632  18.342  0.00  0.00    +0.000 A 
ENDROOT
BRANCH   4   7
ATOM      7  C   UNL     1       5.596   5.343  16.313  0.00  0.00    +0.000 A 
ATOM      8  C   UNL     1       5.765   4.964  14.951  0.00  0.00    +0.000 A 
ATOM      9  C   UNL     1       7.054   4.503  14.824  0.00  0.00    +0.000 A 
ATOM     10  O   UNL     1       7.698   4.568  16.015  0.00  0.00    +0.000 OA
ATOM     11  C   UNL     1       6.812   5.075  16.911  0.00  0.00    +0.000 A 
ENDBRANCH   4   7
BRANCH   5  12
ATOM     12  O   UNL     1       3.668   3.695  17.573  0.00  0.00    +0.000 OA
BRANCH  12  13
ATOM     13  C   UNL     1       2.534   2.870  17.810  0.00  0.00    +0.000 C 
BRANCH  13  14
ATOM     14  C   UNL     1       2.355   2.681  19.308  0.00  0.00    +0.000 C 
ATOM     15  N   UNL     1       3.394   2.562  20.102  0.00  0.00    +0.000 NA
ATOM     16  C   UNL     1       2.793   2.418  21.460  0.00  0.00    +0.000 C 
ATOM     17  C   UNL     1       1.340   2.886  21.335  0.00  0.00    +0.000 C 
ATOM     18  N   UNL     1       1.124   2.697  19.922  0.00  0.00    +0.000 N 
ATOM     19  H   UNL     1       0.365   3.181  19.456  0.00  0.00    +0.000 HD
ENDBRANCH  13  14
ENDBRANCH  12  13
ENDBRANCH   5  12
TORSDOF 4
ENDMDL
MODEL 2
REMARK VINA RESULT:      -6.9      0.984      1.009
REMARK  Name = 
REMARK  4 active torsions:
REMARK  status: ('A' for Active; 'I' for Inactive)
REMARK    1  A    between atoms: C_4  and  C_5
REMARK    2  A    between atoms: C_10  and  O_11
REMARK    3  A    between atoms: O_11  and  C_12
REMARK    4  A    between atoms: C_12  and  C_13
REMARK                            x       y       z     vdW  Elec       q    Type
REMARK                         _______ _______ _______ _____ _____    ______ ____
ROOT
ATOM      1  C   UNL     1       2.518   7.253  19.123  0.00  0.00    +0.000 A 
ATOM      2  C   UNL     1       2.867   7.849  17.918  0.00  0.00    +0.000 A 
ATOM      3  C   UNL     1       3.844   7.262  17.111  0.00  0.00    +0.000 A 
ATOM      4  C   UNL     1       4.483   6.067  17.493  0.00  0.00    +0.000 A 
ATOM      5  C   UNL     1       4.101   5.451  18.707  0.00  0.00    +0.000 A 
ATOM      6  C   UNL     1       3.132   6.061  19.517  0.00  0.00    +0.000 A 
ENDROOT
BRANCH   4   7
ATOM      7  C   UNL     1       5.524   5.507  16.630  0.00  0.00    +0.000 A 
ATOM      8  C   UNL     1       5.436   4.600  15.535  0.00  0.00    +0.000 A 
ATOM      9  C   UNL     1       6.718   4.393  15.085  0.00  0.00    +0.000 A 
ATOM     10  O   UNL     1       7.599   5.110  15.827  0.00  0.00    +0.000 OA
ATOM     11  C   UNL     1       6.872   5.779  16.758  0.00  0.00    +0.000 A 
ENDBRANCH   4   7
BRANCH   5  12
ATOM     12  O   UNL     1       4.745   4.293  19.067  0.00  0.00    +0.000 OA
BRANCH  12  13
ATOM     13  C   UNL     1       4.100   3.068  18.741  0.00  0.00    +0.000 C 
BRANCH  13  14
ATOM     14  C   UNL     1       2.920   2.859  19.678  0.00  0.00    +0.000 C 
ATOM     15  N   UNL     1       3.101   2.731  20.972  0.00  0.00    +0.000 NA
ATOM     16  C   UNL     1       1.720   2.567  21.513  0.00  0.00    +0.000 C 
ATOM     17  C   UNL     1       0.771   3.034  20.405  0.00  0.00    +0.000 C 
ATOM     18  N   UNL     1       1.614   2.864  19.248  0.00  0.00    +0.000 N 
ATOM     19  H   UNL     1       1.397   3.353  18.387  0.00  0.00    +0.000 HD
ENDBRANCH  13  14
ENDBRANCH  12  13
ENDBRANCH   5  12
TORSDOF 4
ENDMDL
MODEL 3
REMARK VINA RESULT:      -6.9      2.889      5.629
REMARK  Name = 
REMARK  4 active torsions:
REMARK  status: ('A' for Active; 'I' for Inactive)
REMARK    1  A    between atoms: C_4  and  C_5
REMARK    2  A    between atoms: C_10  and  O_11
REMARK    3  A    between atoms: O_11  and  C_12
REMARK    4  A    between atoms: C_12  and  C_13
REMARK                            x       y       z     vdW  Elec       q    Type
REMARK                         _______ _______ _______ _____ _____    ______ ____
ROOT
ATOM      1  C   UNL     1       3.409   7.760  17.541  0.00  0.00    +0.000 A 
ATOM      2  C   UNL     1       2.591   7.195  18.509  0.00  0.00    +0.000 A 
ATOM      3  C   UNL     1       2.703   5.836  18.807  0.00  0.00    +0.000 A 
ATOM      4  C   UNL     1       3.641   5.021  18.144  0.00  0.00    +0.000 A 
ATOM      5  C   UNL     1       4.491   5.609  17.180  0.00  0.00    +0.000 A 
ATOM      6  C   UNL     1       4.354   6.972  16.878  0.00  0.00    +0.000 A 
ENDROOT
BRANCH   4   7
ATOM      7  C   UNL     1       3.700   3.593  18.466  0.00  0.00    +0.000 A 
ATOM      8  C   UNL     1       3.072   2.475  17.848  0.00  0.00    +0.000 A 
ATOM      9  C   UNL     1       3.454   1.362  18.558  0.00  0.00    +0.000 A 
ATOM     10  O   UNL     1       4.276   1.712  19.578  0.00  0.00    +0.000 OA
ATOM     11  C   UNL     1       4.419   3.061  19.517  0.00  0.00    +0.000 A 
ENDBRANCH   4   7
BRANCH   5  12
ATOM     12  O   UNL     1       5.389   4.794  16.536  0.00  0.00    +0.000 OA
BRANCH  12  13
ATOM     13  C   UNL     1       6.576   5.404  16.045  0.00  0.00    +0.000 C 
BRANCH  13  14
ATOM     14  C   UNL     1       6.853   4.900  14.638  0.00  0.00    +0.000 C 
ATOM     15  N   UNL     1       6.107   3.964  14.097  0.00  0.00    +0.000 NA
ATOM     16  C   UNL     1       6.693   3.780  12.737  0.00  0.00    +0.000 C 
ATOM     17  C   UNL     1       7.568   5.011  12.480  0.00  0.00    +0.000 C 
ATOM     18  N   UNL     1       7.834   5.431  13.833  0.00  0.00    +0.000 N 
ATOM     19  H   UNL     1       8.142   6.379  14.018  0.00  0.00    +0.000 HD
ENDBRANCH  13  14
ENDBRANCH  12  13
ENDBRANCH   5  12
TORSDOF 4
ENDMDL
MODEL 4
REMARK VINA RESULT:      -6.8      1.487      3.741
REMARK  Name = 
REMARK  4 active torsions:
REMARK  status: ('A' for Active; 'I' for Inactive)
REMARK    1  A    between atoms: C_4  and  C_5
REMARK    2  A    between atoms: C_10  and  O_11
REMARK    3  A    between atoms: O_11  and  C_12
REMARK    4  A    between atoms: C_12  and  C_13
REMARK                            x       y       z     vdW  Elec       q    Type
REMARK                         _______ _______ _______ _____ _____    ______ ____
ROOT
ATOM      1  C   UNL     1       6.705   4.503  16.283  0.00  0.00    +0.000 A 
ATOM      2  C   UNL     1       6.954   5.760  16.817  0.00  0.00    +0.000 A 
ATOM      3  C   UNL     1       5.921   6.470  17.431  0.00  0.00    +0.000 A 
ATOM      4  C   UNL     1       4.623   5.932  17.527  0.00  0.00    +0.000 A 
ATOM      5  C   UNL     1       4.385   4.639  17.006  0.00  0.00    +0.000 A 
ATOM      6  C   UNL     1       5.427   3.945  16.375  0.00  0.00    +0.000 A 
ENDROOT
BRANCH   4   7
ATOM      7  C   UNL     1       3.564   6.728  18.150  0.00  0.00    +0.000 A 
ATOM      8  C   UNL     1       2.880   7.888  17.689  0.00  0.00    +0.000 A 
ATOM      9  C   UNL     1       1.988   8.242  18.673  0.00  0.00    +0.000 A 
ATOM     10  O   UNL     1       2.072   7.380  19.717  0.00  0.00    +0.000 OA
ATOM     11  C   UNL     1       3.026   6.469  19.395  0.00  0.00    +0.000 A 
ENDBRANCH   4   7
BRANCH   5  12
ATOM     12  O   UNL     1       3.110   4.138  17.098  0.00  0.00    +0.000 OA
BRANCH  12  13
ATOM     13  C   UNL     1       2.963   2.853  17.689  0.00  0.00    +0.000 C 
BRANCH  13  14
ATOM     14  C   UNL     1       2.504   3.012  19.129  0.00  0.00    +0.000 C 
ATOM     15  N   UNL     1       1.237   3.211  19.415  0.00  0.00    +0.000 NA
ATOM     16  C   UNL     1       1.214   3.292  20.905  0.00  0.00    +0.000 C 
ATOM     17  C   UNL     1       2.546   2.705  21.384  0.00  0.00    +0.000 C 
ATOM     18  N   UNL     1       3.353   2.887  20.204  0.00  0.00    +0.000 N 
ATOM     19  H   UNL     1       4.201   2.346  20.081  0.00  0.00    +0.000 HD
ENDBRANCH  13  14
ENDBRANCH  12  13
ENDBRANCH   5  12
TORSDOF 4
ENDMDL
MODEL 5
REMARK VINA RESULT:      -6.8      1.420      3.550
REMARK  Name = 
REMARK  4 active torsions:
REMARK  status: ('A' for Active; 'I' for Inactive)
REMARK    1  A    between atoms: C_4  and  C_5
REMARK    2  A    between atoms: C_10  and  O_11
REMARK    3  A    between atoms: O_11  and  C_12
REMARK    4  A    between atoms: C_12  and  C_13
REMARK                            x       y       z     vdW  Elec       q    Type
REMARK                         _______ _______ _______ _____ _____    ______ ____
ROOT
ATOM      1  C   UNL     1       6.434   4.302  15.434  0.00  0.00    +0.000 A 
ATOM      2  C   UNL     1       6.705   5.607  15.826  0.00  0.00    +0.000 A 
ATOM      3  C   UNL     1       5.805   6.284  16.651  0.00  0.00    +0.000 A 
ATOM      4  C   UNL     1       4.623   5.665  17.103  0.00  0.00    +0.000 A 
ATOM      5  C   UNL     1       4.370   4.328  16.724  0.00  0.00    +0.000 A 
ATOM      6  C   UNL     1       5.273   3.666  15.879  0.00  0.00    +0.000 A 
ENDROOT
BRANCH   4   7
ATOM      7  C   UNL     1       3.694   6.427  17.940  0.00  0.00    +0.000 A 
ATOM      8  C   UNL     1       2.908   7.577  17.645  0.00  0.00    +0.000 A 
ATOM      9  C   UNL     1       2.223   7.896  18.794  0.00  0.00    +0.000 A 
ATOM     10  O   UNL     1       2.531   7.022  19.785  0.00  0.00    +0.000 OA
ATOM     11  C   UNL     1       3.421   6.139  19.262  0.00  0.00    +0.000 A 
ENDBRANCH   4   7
BRANCH   5  12
ATOM     12  O   UNL     1       3.206   3.748  17.165  0.00  0.00    +0.000 OA
BRANCH  12  13
ATOM     13  C   UNL     1       3.326   2.523  17.877  0.00  0.00    +0.000 C 
BRANCH  13  14
ATOM     14  C   UNL     1       2.690   2.676  19.249  0.00  0.00    +0.000 C 
ATOM     15  N   UNL     1       3.408   2.560  20.342  0.00  0.00    +0.000 NA
ATOM     16  C   UNL     1       2.427   2.794  21.443  0.00  0.00    +0.000 C 
ATOM     17  C   UNL     1       1.206   3.450  20.792  0.00  0.00    +0.000 C 
ATOM     18  N   UNL     1       1.368   3.012  19.428  0.00  0.00    +0.000 N 
ATOM     19  H   UNL     1       0.895   3.504  18.678  0.00  0.00    +0.000 HD
ENDBRANCH  13  14
ENDBRANCH  12  13
ENDBRANCH   5  12
TORSDOF 4
ENDMDL
MODEL 6
REMARK VINA RESULT:      -6.7      2.868      5.245
REMARK  Name = 
REMARK  4 active torsions:
REMARK  status: ('A' for Active; 'I' for Inactive)
REMARK    1  A    between atoms: C_4  and  C_5
REMARK    2  A    between atoms: C_10  and  O_11
REMARK    3  A    between atoms: O_11  and  C_12
REMARK    4  A    between atoms: C_12  and  C_13
REMARK                            x       y       z     vdW  Elec       q    Type
REMARK                         _______ _______ _______ _____ _____    ______ ____
ROOT
ATOM      1  C   UNL     1       5.417   6.093  16.044  0.00  0.00    +0.000 A 
ATOM      2  C   UNL     1       5.352   4.713  15.909  0.00  0.00    +0.000 A 
ATOM      3  C   UNL     1       4.455   3.981  16.689  0.00  0.00    +0.000 A 
ATOM      4  C   UNL     1       3.603   4.618  17.612  0.00  0.00    +0.000 A 
ATOM      5  C   UNL     1       3.655   6.026  17.722  0.00  0.00    +0.000 A 
ATOM      6  C   UNL     1       4.574   6.747  16.946  0.00  0.00    +0.000 A 
ENDROOT
BRANCH   4   7
ATOM      7  C   UNL     1       2.703   3.805  18.432  0.00  0.00    +0.000 A 
ATOM      8  C   UNL     1       1.333   3.464  18.248  0.00  0.00    +0.000 A 
ATOM      9  C   UNL     1       0.968   2.688  19.322  0.00  0.00    +0.000 A 
ATOM     10  O   UNL     1       2.019   2.523  20.163  0.00  0.00    +0.000 OA
ATOM     11  C   UNL     1       3.063   3.202  19.620  0.00  0.00    +0.000 A 
ENDBRANCH   4   7
BRANCH   5  12
ATOM     12  O   UNL     1       2.825   6.627  18.637  0.00  0.00    +0.000 OA
BRANCH  12  13
ATOM     13  C   UNL     1       2.335   7.921  18.310  0.00  0.00    +0.000 C 
BRANCH  13  14
ATOM     14  C   UNL     1       1.716   8.551  19.548  0.00  0.00    +0.000 C 
ATOM     15  N   UNL     1       1.034   9.670  19.466  0.00  0.00    +0.000 NA
ATOM     16  C   UNL     1       0.595   9.926  20.870  0.00  0.00    +0.000 C 
ATOM     17  C   UNL     1       0.775   8.602  21.620  0.00  0.00    +0.000 C 
ATOM     18  N   UNL     1       1.766   7.963  20.791  0.00  0.00    +0.000 N 
ATOM     19  H   UNL     1       1.895   6.959  20.839  0.00  0.00    +0.000 HD
ENDBRANCH  13  14
ENDBRANCH  12  13
ENDBRANCH   5  12
TORSDOF 4
ENDMDL
MODEL 7
REMARK VINA RESULT:      -6.7      2.616      5.573
REMARK  Name = 
REMARK  4 active torsions:
REMARK  status: ('A' for Active; 'I' for Inactive)
REMARK    1  A    between atoms: C_4  and  C_5
REMARK    2  A    between atoms: C_10  and  O_11
REMARK    3  A    between atoms: O_11  and  C_12
REMARK    4  A    between atoms: C_12  and  C_13
REMARK                            x       y       z     vdW  Elec       q    Type
REMARK                         _______ _______ _______ _____ _____    ______ ____
ROOT
ATOM      1  C   UNL     1       2.864   2.705  20.709  0.00  0.00    +0.000 A 
ATOM      2  C   UNL     1       1.629   3.315  20.882  0.00  0.00    +0.000 A 
ATOM      3  C   UNL     1       1.434   4.625  20.440  0.00  0.00    +0.000 A 
ATOM      4  C   UNL     1       2.470   5.344  19.813  0.00  0.00    +0.000 A 
ATOM      5  C   UNL     1       3.715   4.706  19.615  0.00  0.00    +0.000 A 
ATOM      6  C   UNL     1       3.903   3.397  20.080  0.00  0.00    +0.000 A 
ENDROOT
BRANCH   4   7
ATOM      7  C   UNL     1       2.228   6.727  19.397  0.00  0.00    +0.000 A 
ATOM      8  C   UNL     1       2.363   7.351  18.124  0.00  0.00    +0.000 A 
ATOM      9  C   UNL     1       2.020   8.672  18.290  0.00  0.00    +0.000 A 
ATOM     10  O   UNL     1       1.682   8.913  19.582  0.00  0.00    +0.000 OA
ATOM     11  C   UNL     1       1.811   7.734  20.244  0.00  0.00    +0.000 A 
ENDBRANCH   4   7
BRANCH   5  12
ATOM     12  O   UNL     1       4.716   5.429  19.013  0.00  0.00    +0.000 OA
BRANCH  12  13
ATOM     13  C   UNL     1       5.953   4.762  18.799  0.00  0.00    +0.000 C 
BRANCH  13  14
ATOM     14  C   UNL     1       6.205   4.641  17.304  0.00  0.00    +0.000 C 
ATOM     15  N   UNL     1       7.220   5.255  16.739  0.00  0.00    +0.000 NA
ATOM     16  C   UNL     1       7.117   4.868  15.301  0.00  0.00    +0.000 C 
ATOM     17  C   UNL     1       6.180   3.657  15.252  0.00  0.00    +0.000 C 
ATOM     18  N   UNL     1       5.448   3.840  16.480  0.00  0.00    +0.000 N 
ATOM     19  H   UNL     1       4.953   3.060  16.897  0.00  0.00    +0.000 HD
ENDBRANCH  13  14
ENDBRANCH  12  13
ENDBRANCH   5  12
TORSDOF 4
ENDMDL
MODEL 8
REMARK VINA RESULT:      -6.7      2.482      4.999
REMARK  Name = 
REMARK  4 active torsions:
REMARK  status: ('A' for Active; 'I' for Inactive)
REMARK    1  A    between atoms: C_4  and  C_5
REMARK    2  A    between atoms: C_10  and  O_11
REMARK    3  A    between atoms: O_11  and  C_12
REMARK    4  A    between atoms: C_12  and  C_13
REMARK                            x       y       z     vdW  Elec       q    Type
REMARK                         _______ _______ _______ _____ _____    ______ ____
ROOT
ATOM      1  C   UNL     1       1.790   7.829  20.083  0.00  0.00    +0.000 A 
ATOM      2  C   UNL     1       1.436   6.740  20.869  0.00  0.00    +0.000 A 
ATOM      3  C   UNL     1       1.825   5.455  20.489  0.00  0.00    +0.000 A 
ATOM      4  C   UNL     1       2.580   5.238  19.319  0.00  0.00    +0.000 A 
ATOM      5  C   UNL     1       2.961   6.354  18.541  0.00  0.00    +0.000 A 
ATOM      6  C   UNL     1       2.547   7.638  18.925  0.00  0.00    +0.000 A 
ENDROOT
BRANCH   4   7
ATOM      7  C   UNL     1       2.937   3.868  18.944  0.00  0.00    +0.000 A 
ATOM      8  C   UNL     1       2.379   2.998  17.965  0.00  0.00    +0.000 A 
ATOM      9  C   UNL     1       3.080   1.818  18.035  0.00  0.00    +0.000 A 
ATOM     10  O   UNL     1       4.038   1.895  18.993  0.00  0.00    +0.000 OA
ATOM     11  C   UNL     1       3.945   3.135  19.539  0.00  0.00    +0.000 A 
ENDBRANCH   4   7
BRANCH   5  12
ATOM     12  O   UNL     1       3.686   6.120  17.398  0.00  0.00    +0.000 OA
BRANCH  12  13
ATOM     13  C   UNL     1       5.092   6.316  17.476  0.00  0.00    +0.000 C 
BRANCH  13  14
ATOM     14  C   UNL     1       5.778   5.441  16.439  0.00  0.00    +0.000 C 
ATOM     15  N   UNL     1       5.210   4.340  16.002  0.00  0.00    +0.000 NA
ATOM     16  C   UNL     1       6.183   3.805  15.006  0.00  0.00    +0.000 C 
ATOM     17  C   UNL     1       7.131   4.961  14.672  0.00  0.00    +0.000 C 
ATOM     18  N   UNL     1       6.976   5.777  15.851  0.00  0.00    +0.000 N 
ATOM     19  H   UNL     1       7.238   6.755  15.828  0.00  0.00    +0.000 HD
ENDBRANCH  13  14
ENDBRANCH  12  13
ENDBRANCH   5  12
TORSDOF 4
ENDMDL
MODEL 9
REMARK VINA RESULT:      -6.7      2.653      4.456
REMARK  Name = 
REMARK  4 active torsions:
REMARK  status: ('A' for Active; 'I' for Inactive)
REMARK    1  A    between atoms: C_4  and  C_5
REMARK    2  A    between atoms: C_10  and  O_11
REMARK    3  A    between atoms: O_11  and  C_12
REMARK    4  A    between atoms: C_12  and  C_13
REMARK                            x       y       z     vdW  Elec       q    Type
REMARK                         _______ _______ _______ _____ _____    ______ ____
ROOT
ATOM      1  C   UNL     1       1.214   2.533  18.712  0.00  0.00    +0.000 A 
ATOM      2  C   UNL     1       2.258   1.696  18.342  0.00  0.00    +0.000 A 
ATOM      3  C   UNL     1       3.445   2.244  17.851  0.00  0.00    +0.000 A 
ATOM      4  C   UNL     1       3.609   3.637  17.728  0.00  0.00    +0.000 A 
ATOM      5  C   UNL     1       2.552   4.483  18.135  0.00  0.00    +0.000 A 
ATOM      6  C   UNL     1       1.359   3.919  18.608  0.00  0.00    +0.000 A 
ENDROOT
BRANCH   4   7
ATOM      7  C   UNL     1       4.860   4.163  17.177  0.00  0.00    +0.000 A 
ATOM      8  C   UNL     1       5.231   4.461  15.835  0.00  0.00    +0.000 A 
ATOM      9  C   UNL     1       6.527   4.917  15.873  0.00  0.00    +0.000 A 
ATOM     10  O   UNL     1       6.989   4.922  17.148  0.00  0.00    +0.000 OA
ATOM     11  C   UNL     1       5.977   4.464  17.931  0.00  0.00    +0.000 A 
ENDBRANCH   4   7
BRANCH   5  12
ATOM     12  O   UNL     1       2.728   5.838  17.994  0.00  0.00    +0.000 OA
BRANCH  12  13
ATOM     13  C   UNL     1       2.783   6.607  19.189  0.00  0.00    +0.000 C 
BRANCH  13  14
ATOM     14  C   UNL     1       2.180   7.979  18.931  0.00  0.00    +0.000 C 
ATOM     15  N   UNL     1       2.203   8.510  17.730  0.00  0.00    +0.000 NA
ATOM     16  C   UNL     1       1.508   9.819  17.904  0.00  0.00    +0.000 C 
ATOM     17  C   UNL     1       0.759   9.730  19.238  0.00  0.00    +0.000 C 
ATOM     18  N   UNL     1       1.522   8.701  19.899  0.00  0.00    +0.000 N 
ATOM     19  H   UNL     1       1.121   8.196  20.681  0.00  0.00    +0.000 HD
ENDBRANCH  13  14
ENDBRANCH  12  13
ENDBRANCH   5  12
TORSDOF 4
ENDMDL
