MODEL 1
REMARK VINA RESULT:      -8.0      0.000      0.000
REMARK  Name = 
REMARK  7 active torsions:
REMARK  status: ('A' for Active; 'I' for Inactive)
REMARK    1  A    between atoms: C_2  and  C_3
REMARK    2  A    between atoms: C_6  and  C_7
REMARK    3  A    between atoms: C_7  and  N_8
REMARK    4  A    between atoms: C_12  and  C_14
REMARK    5  A    between atoms: N_16  and  C_17
REMARK    6  A    between atoms: C_17  and  C_18
REMARK    7  A    between atoms: C_25  and  C_26
REMARK                            x       y       z     vdW  Elec       q    Type
REMARK                         _______ _______ _______ _____ _____    ______ ____
ROOT
ATOM      1  C   UNL     1      -0.750  10.505  18.920  0.00  0.00    +0.000 A 
ATOM      2  C   UNL     1      -1.832  10.058  18.186  0.00  0.00    +0.000 A 
ATOM      3  N   UNL     1      -2.201  11.087  17.375  0.00  0.00    +0.000 N 
ATOM      4  N   UNL     1      -1.501  12.213  17.594  0.00  0.00    +0.000 NA
ATOM      5  C   UNL     1      -0.586  11.878  18.522  0.00  0.00    +0.000 A 
ENDROOT
BRANCH   1  10
ATOM      6  N   UNL     1       2.654   6.673  19.362  0.00  0.00    +0.000 NA
ATOM      7  C   UNL     1       1.898   6.857  20.612  0.00  0.00    +0.000 C 
ATOM      8  C   UNL     1       1.724   8.363  20.823  0.00  0.00    +0.000 C 
ATOM      9  N   UNL     1       1.011   8.959  19.686  0.00  0.00    +0.000 N 
ATOM     10  C   UNL     1      -0.041   9.816  19.981  0.00  0.00    +0.000 C 
ATOM     11  O   UNL     1      -0.384  10.005  21.146  0.00  0.00    +0.000 OA
ATOM     12  C   UNL     1       1.632   8.659  18.383  0.00  0.00    +0.000 C 
ATOM     13  C   UNL     1       1.861   7.134  18.219  0.00  0.00    +0.000 C 
BRANCH   6  14
ATOM     14  C   UNL     1       3.297   5.378  19.239  0.00  0.00    +0.000 C 
BRANCH  14  18
ATOM     15  C   UNL     1       5.969   5.343  15.832  0.00  0.00    +0.000 A 
ATOM     16  C   UNL     1       5.062   4.296  16.022  0.00  0.00    +0.000 A 
ATOM     17  C   UNL     1       4.178   4.312  17.106  0.00  0.00    +0.000 A 
ATOM     18  C   UNL     1       4.193   5.380  18.011  0.00  0.00    +0.000 A 
ATOM     19  C   UNL     1       5.109   6.431  17.809  0.00  0.00    +0.000 A 
ATOM     20  C   UNL     1       5.996   6.411  16.731  0.00  0.00    +0.000 A 
BRANCH  15  22
ATOM     21  N   UNL     1       7.605   5.302  13.820  0.00  0.00    +0.000 NA
ATOM     22  C   UNL     1       6.876   5.318  14.720  0.00  0.00    +0.000 C 
ENDBRANCH  15  22
ENDBRANCH  14  18
ENDBRANCH   6  14
ENDBRANCH   1  10
BRANCH   5  23
ATOM     23  C   UNL     1       0.377  12.876  19.002  0.00  0.00    +0.000 A 
ATOM     24  C   UNL     1      -0.040  13.974  19.762  0.00  0.00    +0.000 A 
ATOM     25  C   UNL     1       0.892  14.906  20.215  0.00  0.00    +0.000 A 
ATOM     26  C   UNL     1       2.224  14.720  19.884  0.00  0.00    +0.000 A 
ATOM     27  N   UNL     1       2.672  13.690  19.140  0.00  0.00    +0.000 NA
ATOM     28  C   UNL     1       1.740  12.794  18.722  0.00  0.00    +0.000 A 
ENDBRANCH   5  23
BRANCH   3  29
ATOM     29  C   UNL     1      -3.328  11.084  16.447  0.00  0.00    +0.000 C 
BRANCH  29  30
ATOM     30  C   UNL     1      -4.644  11.344  17.136  0.00  0.00    +0.000 A 
ATOM     31  C   UNL     1      -5.440  12.443  16.774  0.00  0.00    +0.000 A 
ATOM     32  C   UNL     1      -6.687  12.644  17.373  0.00  0.00    +0.000 A 
ATOM     33  C   UNL     1      -7.152  11.755  18.339  0.00  0.00    +0.000 A 
ATOM     34  C   UNL     1      -6.368  10.668  18.717  0.00  0.00    +0.000 A 
ATOM     35  C   UNL     1      -5.123  10.464  18.119  0.00  0.00    +0.000 A 
ENDBRANCH  29  30
ENDBRANCH   3  29
TORSDOF 7
ENDMDL
MODEL 2
REMARK VINA RESULT:      -7.9      0.912      1.476
REMARK  Name = 
REMARK  7 active torsions:
REMARK  status: ('A' for Active; 'I' for Inactive)
REMARK    1  A    between atoms: C_2  and  C_3
REMARK    2  A    between atoms: C_6  and  C_7
REMARK    3  A    between atoms: C_7  and  N_8
REMARK    4  A    between atoms: C_12  and  C_14
REMARK    5  A    between atoms: N_16  and  C_17
REMARK    6  A    between atoms: C_17  and  C_18
REMARK    7  A    between atoms: C_25  and  C_26
REMARK                            x       y       z     vdW  Elec       q    Type
REMARK                         _______ _______ _______ _____ _____    ______ ____
ROOT
ATOM      1  C   UNL     1      -0.489  10.486  19.299  0.00  0.00    +0.000 A 
ATOM      2  C   UNL     1      -1.728  10.239  18.739  0.00  0.00    +0.000 A 
ATOM      3  N   UNL     1      -2.035  11.328  17.983  0.00  0.00    +0.000 N 
ATOM      4  N   UNL     1      -1.132  12.317  18.085  0.00  0.00    +0.000 NA
ATOM      5  C   UNL     1      -0.158  11.819  18.869  0.00  0.00    +0.000 A 
ENDROOT
BRANCH   1  10
ATOM      6  N   UNL     1       2.585   6.363  19.200  0.00  0.00    +0.000 NA
ATOM      7  C   UNL     1       1.959   6.525  20.523  0.00  0.00    +0.000 C 
ATOM      8  C   UNL     1       1.938   8.022  20.838  0.00  0.00    +0.000 C 
ATOM      9  N   UNL     1       1.187   8.750  19.808  0.00  0.00    +0.000 N 
ATOM     10  C   UNL     1       0.244   9.670  20.248  0.00  0.00    +0.000 C 
ATOM     11  O   UNL     1       0.020   9.810  21.448  0.00  0.00    +0.000 OA
ATOM     12  C   UNL     1       1.664   8.488  18.438  0.00  0.00    +0.000 C 
ATOM     13  C   UNL     1       1.742   6.964  18.164  0.00  0.00    +0.000 C 
BRANCH   6  14
ATOM     14  C   UNL     1       3.098   5.030  18.942  0.00  0.00    +0.000 C 
BRANCH  14  18
ATOM     15  C   UNL     1       6.012   5.280  15.750  0.00  0.00    +0.000 A 
ATOM     16  C   UNL     1       5.919   6.305  16.697  0.00  0.00    +0.000 A 
ATOM     17  C   UNL     1       4.998   6.220  17.745  0.00  0.00    +0.000 A 
ATOM     18  C   UNL     1       4.160   5.104  17.858  0.00  0.00    +0.000 A 
ATOM     19  C   UNL     1       4.264   4.076  16.901  0.00  0.00    +0.000 A 
ATOM     20  C   UNL     1       5.179   4.165  15.850  0.00  0.00    +0.000 A 
BRANCH  15  22
ATOM     21  N   UNL     1       7.723   5.456  13.809  0.00  0.00    +0.000 NA
ATOM     22  C   UNL     1       6.957   5.376  14.674  0.00  0.00    +0.000 C 
ENDBRANCH  15  22
ENDBRANCH  14  18
ENDBRANCH   6  14
ENDBRANCH   1  10
BRANCH   5  23
ATOM     23  C   UNL     1       1.019  12.634  19.191  0.00  0.00    +0.000 A 
ATOM     24  C   UNL     1       2.018  12.866  18.240  0.00  0.00    +0.000 A 
ATOM     25  C   UNL     1       3.124  13.651  18.563  0.00  0.00    +0.000 A 
ATOM     26  C   UNL     1       3.207  14.176  19.842  0.00  0.00    +0.000 A 
ATOM     27  N   UNL     1       2.281  13.966  20.798  0.00  0.00    +0.000 NA
ATOM     28  C   UNL     1       1.211  13.205  20.447  0.00  0.00    +0.000 A 
ENDBRANCH   5  23
BRANCH   3  29
ATOM     29  C   UNL     1      -3.273  11.528  17.234  0.00  0.00    +0.000 C 
BRANCH  29  30
ATOM     30  C   UNL     1      -4.488  11.562  18.126  0.00  0.00    +0.000 A 
ATOM     31  C   UNL     1      -5.617  10.782  17.832  0.00  0.00    +0.000 A 
ATOM     32  C   UNL     1      -6.716  10.768  18.696  0.00  0.00    +0.000 A 
ATOM     33  C   UNL     1      -6.702  11.534  19.860  0.00  0.00    +0.000 A 
ATOM     34  C   UNL     1      -5.593  12.322  20.158  0.00  0.00    +0.000 A 
ATOM     35  C   UNL     1      -4.495  12.336  19.297  0.00  0.00    +0.000 A 
ENDBRANCH  29  30
ENDBRANCH   3  29
TORSDOF 7
ENDMDL
MODEL 3
REMARK VINA RESULT:      -7.9      0.877      1.283
REMARK  Name = 
REMARK  7 active torsions:
REMARK  status: ('A' for Active; 'I' for Inactive)
REMARK    1  A    between atoms: C_2  and  C_3
REMARK    2  A    between atoms: C_6  and  C_7
REMARK    3  A    between atoms: C_7  and  N_8
REMARK    4  A    between atoms: C_12  and  C_14
REMARK    5  A    between atoms: N_16  and  C_17
REMARK    6  A    between atoms: C_17  and  C_18
REMARK    7  A    between atoms: C_25  and  C_26
REMARK                            x       y       z     vdW  Elec       q    Type
REMARK                         _______ _______ _______ _____ _____    ______ ____
ROOT
ATOM      1  C   UNL     1      -0.395  10.490  19.240  0.00  0.00    +0.000 A 
ATOM      2  C   UNL     1      -1.622  10.245  18.653  0.00  0.00    +0.000 A 
ATOM      3  N   UNL     1      -1.928  11.350  17.920  0.00  0.00    +0.000 N 
ATOM      4  N   UNL     1      -1.036  12.345  18.063  0.00  0.00    +0.000 NA
ATOM      5  C   UNL     1      -0.071  11.836  18.851  0.00  0.00    +0.000 A 
ENDROOT
BRANCH   1  10
ATOM      6  N   UNL     1       2.625   6.328  19.100  0.00  0.00    +0.000 NA
ATOM      7  C   UNL     1       2.005   6.488  20.425  0.00  0.00    +0.000 C 
ATOM      8  C   UNL     1       2.004   7.982  20.752  0.00  0.00    +0.000 C 
ATOM      9  N   UNL     1       1.259   8.728  19.731  0.00  0.00    +0.000 N 
ATOM     10  C   UNL     1       0.330   9.657  20.181  0.00  0.00    +0.000 C 
ATOM     11  O   UNL     1       0.112   9.790  21.383  0.00  0.00    +0.000 OA
ATOM     12  C   UNL     1       1.729   8.470  18.357  0.00  0.00    +0.000 C 
ATOM     13  C   UNL     1       1.786   6.948  18.071  0.00  0.00    +0.000 C 
BRANCH   6  14
ATOM     14  C   UNL     1       3.119   4.990  18.830  0.00  0.00    +0.000 C 
BRANCH  14  18
ATOM     15  C   UNL     1       6.081   5.238  15.681  0.00  0.00    +0.000 A 
ATOM     16  C   UNL     1       5.992   6.251  16.641  0.00  0.00    +0.000 A 
ATOM     17  C   UNL     1       5.055   6.166  17.676  0.00  0.00    +0.000 A 
ATOM     18  C   UNL     1       4.198   5.063  17.760  0.00  0.00    +0.000 A 
ATOM     19  C   UNL     1       4.297   4.047  16.789  0.00  0.00    +0.000 A 
ATOM     20  C   UNL     1       5.227   4.136  15.753  0.00  0.00    +0.000 A 
BRANCH  15  22
ATOM     21  N   UNL     1       7.818   5.416  13.763  0.00  0.00    +0.000 NA
ATOM     22  C   UNL     1       7.042   5.333  14.619  0.00  0.00    +0.000 C 
ENDBRANCH  15  22
ENDBRANCH  14  18
ENDBRANCH   6  14
ENDBRANCH   1  10
BRANCH   5  23
ATOM     23  C   UNL     1       1.092  12.654  19.213  0.00  0.00    +0.000 A 
ATOM     24  C   UNL     1       1.248  13.152  20.511  0.00  0.00    +0.000 A 
ATOM     25  C   UNL     1       2.365  13.921  20.837  0.00  0.00    +0.000 A 
ATOM     26  C   UNL     1       3.297  14.181  19.846  0.00  0.00    +0.000 A 
ATOM     27  N   UNL     1       3.182  13.739  18.578  0.00  0.00    +0.000 NA
ATOM     28  C   UNL     1       2.087  12.986  18.296  0.00  0.00    +0.000 A 
ENDBRANCH   5  23
BRANCH   3  29
ATOM     29  C   UNL     1      -3.154  11.557  17.155  0.00  0.00    +0.000 C 
BRANCH  29  30
ATOM     30  C   UNL     1      -4.380  11.601  18.032  0.00  0.00    +0.000 A 
ATOM     31  C   UNL     1      -4.357  12.271  19.266  0.00  0.00    +0.000 A 
ATOM     32  C   UNL     1      -5.514  12.363  20.046  0.00  0.00    +0.000 A 
ATOM     33  C   UNL     1      -6.703  11.786  19.606  0.00  0.00    +0.000 A 
ATOM     34  C   UNL     1      -6.738  11.108  18.390  0.00  0.00    +0.000 A 
ATOM     35  C   UNL     1      -5.584  11.017  17.609  0.00  0.00    +0.000 A 
ENDBRANCH  29  30
ENDBRANCH   3  29
TORSDOF 7
ENDMDL
MODEL 4
REMARK VINA RESULT:      -7.8      0.506      1.158
REMARK  Name = 
REMARK  7 active torsions:
REMARK  status: ('A' for Active; 'I' for Inactive)
REMARK    1  A    between atoms: C_2  and  C_3
REMARK    2  A    between atoms: C_6  and  C_7
REMARK    3  A    between atoms: C_7  and  N_8
REMARK    4  A    between atoms: C_12  and  C_14
REMARK    5  A    between atoms: N_16  and  C_17
REMARK    6  A    between atoms: C_17  and  C_18
REMARK    7  A    between atoms: C_25  and  C_26
REMARK                            x       y       z     vdW  Elec       q    Type
REMARK                         _______ _______ _______ _____ _____    ______ ____
ROOT
ATOM      1  C   UNL     1      -0.831  10.602  18.850  0.00  0.00    +0.000 A 
ATOM      2  C   UNL     1      -1.907  10.132  18.122  0.00  0.00    +0.000 A 
ATOM      3  N   UNL     1      -2.288  11.147  17.298  0.00  0.00    +0.000 N 
ATOM      4  N   UNL     1      -1.603  12.284  17.503  0.00  0.00    +0.000 NA
ATOM      5  C   UNL     1      -0.684  11.972  18.436  0.00  0.00    +0.000 A 
ENDROOT
BRANCH   1  10
ATOM      6  N   UNL     1       2.579   6.782  19.345  0.00  0.00    +0.000 NA
ATOM      7  C   UNL     1       1.833   6.991  20.596  0.00  0.00    +0.000 C 
ATOM      8  C   UNL     1       1.659   8.500  20.778  0.00  0.00    +0.000 C 
ATOM      9  N   UNL     1       0.938   9.073  19.635  0.00  0.00    +0.000 N 
ATOM     10  C   UNL     1      -0.113   9.935  19.920  0.00  0.00    +0.000 C 
ATOM     11  O   UNL     1      -0.448  10.148  21.083  0.00  0.00    +0.000 OA
ATOM     12  C   UNL     1       1.549   8.747  18.333  0.00  0.00    +0.000 C 
ATOM     13  C   UNL     1       1.778   7.219  18.199  0.00  0.00    +0.000 C 
BRANCH   6  14
ATOM     14  C   UNL     1       3.223   5.485  19.243  0.00  0.00    +0.000 C 
BRANCH  14  18
ATOM     15  C   UNL     1       5.877   5.403  15.823  0.00  0.00    +0.000 A 
ATOM     16  C   UNL     1       5.071   4.297  16.112  0.00  0.00    +0.000 A 
ATOM     17  C   UNL     1       4.193   4.325  17.200  0.00  0.00    +0.000 A 
ATOM     18  C   UNL     1       4.111   5.464  18.010  0.00  0.00    +0.000 A 
ATOM     19  C   UNL     1       4.926   6.573  17.709  0.00  0.00    +0.000 A 
ATOM     20  C   UNL     1       5.807   6.541  16.627  0.00  0.00    +0.000 A 
BRANCH  15  22
ATOM     21  N   UNL     1       7.510   5.340  13.809  0.00  0.00    +0.000 NA
ATOM     22  C   UNL     1       6.780   5.365  14.708  0.00  0.00    +0.000 C 
ENDBRANCH  15  22
ENDBRANCH  14  18
ENDBRANCH   6  14
ENDBRANCH   1  10
BRANCH   5  23
ATOM     23  C   UNL     1       0.266  12.988  18.903  0.00  0.00    +0.000 A 
ATOM     24  C   UNL     1       1.606  12.962  18.502  0.00  0.00    +0.000 A 
ATOM     25  C   UNL     1       2.490  13.943  18.951  0.00  0.00    +0.000 A 
ATOM     26  C   UNL     1       2.009  14.922  19.804  0.00  0.00    +0.000 A 
ATOM     27  N   UNL     1       0.733  14.978  20.233  0.00  0.00    +0.000 NA
ATOM     28  C   UNL     1      -0.105  14.014  19.770  0.00  0.00    +0.000 A 
ENDBRANCH   5  23
BRANCH   3  29
ATOM     29  C   UNL     1      -3.415  11.117  16.369  0.00  0.00    +0.000 C 
BRANCH  29  30
ATOM     30  C   UNL     1      -4.736  11.352  17.058  0.00  0.00    +0.000 A 
ATOM     31  C   UNL     1      -5.178  10.493  18.077  0.00  0.00    +0.000 A 
ATOM     32  C   UNL     1      -6.373  10.752  18.755  0.00  0.00    +0.000 A 
ATOM     33  C   UNL     1      -7.139  11.867  18.424  0.00  0.00    +0.000 A 
ATOM     34  C   UNL     1      -6.719  12.721  17.408  0.00  0.00    +0.000 A 
ATOM     35  C   UNL     1      -5.526  12.465  16.730  0.00  0.00    +0.000 A 
ENDBRANCH  29  30
ENDBRANCH   3  29
TORSDOF 7
ENDMDL
MODEL 5
REMARK VINA RESULT:      -7.8      0.502      1.163
REMARK  Name = 
REMARK  7 active torsions:
REMARK  status: ('A' for Active; 'I' for Inactive)
REMARK    1  A    between atoms: C_2  and  C_3
REMARK    2  A    between atoms: C_6  and  C_7
REMARK    3  A    between atoms: C_7  and  N_8
REMARK    4  A    between atoms: C_12  and  C_14
REMARK    5  A    between atoms: N_16  and  C_17
REMARK    6  A    between atoms: C_17  and  C_18
REMARK    7  A    between atoms: C_25  and  C_26
REMARK                            x       y       z     vdW  Elec       q    Type
REMARK                         _______ _______ _______ _____ _____    ______ ____
ROOT
ATOM      1  C   UNL     1      -0.771  10.557  18.867  0.00  0.00    +0.000 A 
ATOM      2  C   UNL     1      -1.877  10.081  18.189  0.00  0.00    +0.000 A 
ATOM      3  N   UNL     1      -2.257  11.067  17.330  0.00  0.00    +0.000 N 
ATOM      4  N   UNL     1      -1.540  12.195  17.466  0.00  0.00    +0.000 NA
ATOM      5  C   UNL     1      -0.604  11.903  18.388  0.00  0.00    +0.000 A 
ENDROOT
BRANCH   1  10
ATOM      6  N   UNL     1       2.592   6.706  19.440  0.00  0.00    +0.000 NA
ATOM      7  C   UNL     1       1.875   6.975  20.697  0.00  0.00    +0.000 C 
ATOM      8  C   UNL     1       1.728   8.492  20.824  0.00  0.00    +0.000 C 
ATOM      9  N   UNL     1       0.991   9.031  19.674  0.00  0.00    +0.000 N 
ATOM     10  C   UNL     1      -0.040   9.920  19.947  0.00  0.00    +0.000 C 
ATOM     11  O   UNL     1      -0.347  10.183  21.108  0.00  0.00    +0.000 OA
ATOM     12  C   UNL     1       1.569   8.646  18.373  0.00  0.00    +0.000 C 
ATOM     13  C   UNL     1       1.773   7.111  18.294  0.00  0.00    +0.000 C 
BRANCH   6  14
ATOM     14  C   UNL     1       3.214   5.396  19.376  0.00  0.00    +0.000 C 
BRANCH  14  18
ATOM     15  C   UNL     1       5.751   5.271  15.869  0.00  0.00    +0.000 A 
ATOM     16  C   UNL     1       5.728   6.412  16.678  0.00  0.00    +0.000 A 
ATOM     17  C   UNL     1       4.930   6.451  17.826  0.00  0.00    +0.000 A 
ATOM     18  C   UNL     1       4.148   5.345  18.177  0.00  0.00    +0.000 A 
ATOM     19  C   UNL     1       4.180   4.200  17.358  0.00  0.00    +0.000 A 
ATOM     20  C   UNL     1       4.971   4.165  16.208  0.00  0.00    +0.000 A 
BRANCH  15  22
ATOM     21  N   UNL     1       7.233   5.214  13.741  0.00  0.00    +0.000 NA
ATOM     22  C   UNL     1       6.568   5.240  14.690  0.00  0.00    +0.000 C 
ENDBRANCH  15  22
ENDBRANCH  14  18
ENDBRANCH   6  14
ENDBRANCH   1  10
BRANCH   5  23
ATOM     23  C   UNL     1       0.381  12.915  18.785  0.00  0.00    +0.000 A 
ATOM     24  C   UNL     1       1.749  12.712  18.576  0.00  0.00    +0.000 A 
ATOM     25  C   UNL     1       2.668  13.691  18.953  0.00  0.00    +0.000 A 
ATOM     26  C   UNL     1       2.192  14.849  19.542  0.00  0.00    +0.000 A 
ATOM     27  N   UNL     1       0.885  15.084  19.781  0.00  0.00    +0.000 NA
ATOM     28  C   UNL     1       0.016  14.114  19.393  0.00  0.00    +0.000 A 
ENDBRANCH   5  23
BRANCH   3  29
ATOM     29  C   UNL     1      -3.409  11.023  16.433  0.00  0.00    +0.000 C 
BRANCH  29  30
ATOM     30  C   UNL     1      -4.704  11.321  17.145  0.00  0.00    +0.000 A 
ATOM     31  C   UNL     1      -5.468  12.450  16.804  0.00  0.00    +0.000 A 
ATOM     32  C   UNL     1      -6.699  12.687  17.423  0.00  0.00    +0.000 A 
ATOM     33  C   UNL     1      -7.180  11.804  18.387  0.00  0.00    +0.000 A 
ATOM     34  C   UNL     1      -6.428  10.687  18.743  0.00  0.00    +0.000 A 
ATOM     35  C   UNL     1      -5.199  10.448  18.126  0.00  0.00    +0.000 A 
ENDBRANCH  29  30
ENDBRANCH   3  29
TORSDOF 7
ENDMDL
MODEL 6
REMARK VINA RESULT:      -7.7      2.956     10.631
REMARK  Name = 
REMARK  7 active torsions:
REMARK  status: ('A' for Active; 'I' for Inactive)
REMARK    1  A    between atoms: C_2  and  C_3
REMARK    2  A    between atoms: C_6  and  C_7
REMARK    3  A    between atoms: C_7  and  N_8
REMARK    4  A    between atoms: C_12  and  C_14
REMARK    5  A    between atoms: N_16  and  C_17
REMARK    6  A    between atoms: C_17  and  C_18
REMARK    7  A    between atoms: C_25  and  C_26
REMARK                            x       y       z     vdW  Elec       q    Type
REMARK                         _______ _______ _______ _____ _____    ______ ____
ROOT
ATOM      1  C   UNL     1       2.202   7.477  19.330  0.00  0.00    +0.000 A 
ATOM      2  C   UNL     1       2.912   8.128  18.340  0.00  0.00    +0.000 A 
ATOM      3  N   UNL     1       3.508   7.160  17.591  0.00  0.00    +0.000 N 
ATOM      4  N   UNL     1       3.322   5.922  18.079  0.00  0.00    +0.000 NA
ATOM      5  C   UNL     1       2.503   6.084  19.135  0.00  0.00    +0.000 A 
ENDROOT
BRANCH   1  10
ATOM      6  N   UNL     1      -0.626  11.683  20.210  0.00  0.00    +0.000 NA
ATOM      7  C   UNL     1      -0.090  11.133  21.466  0.00  0.00    +0.000 C 
ATOM      8  C   UNL     1      -0.171   9.608  21.369  0.00  0.00    +0.000 C 
ATOM      9  N   UNL     1       0.598   9.128  20.215  0.00  0.00    +0.000 N 
ATOM     10  C   UNL     1       1.460   8.061  20.432  0.00  0.00    +0.000 C 
ATOM     11  O   UNL     1       1.604   7.594  21.559  0.00  0.00    +0.000 OA
ATOM     12  C   UNL     1       0.219   9.777  18.946  0.00  0.00    +0.000 C 
ATOM     13  C   UNL     1       0.242  11.321  19.088  0.00  0.00    +0.000 C 
BRANCH   6  14
ATOM     14  C   UNL     1      -1.048  13.069  20.298  0.00  0.00    +0.000 C 
BRANCH  14  18
ATOM     15  C   UNL     1      -4.705  13.144  22.614  0.00  0.00    +0.000 A 
ATOM     16  C   UNL     1      -3.507  13.596  23.179  0.00  0.00    +0.000 A 
ATOM     17  C   UNL     1      -2.327  13.598  22.430  0.00  0.00    +0.000 A 
ATOM     18  C   UNL     1      -2.334  13.150  21.104  0.00  0.00    +0.000 A 
ATOM     19  C   UNL     1      -3.546  12.700  20.543  0.00  0.00    +0.000 A 
ATOM     20  C   UNL     1      -4.722  12.691  21.295  0.00  0.00    +0.000 A 
BRANCH  15  22
ATOM     21  N   UNL     1      -6.884  13.142  24.021  0.00  0.00    +0.000 NA
ATOM     22  C   UNL     1      -5.912  13.141  23.391  0.00  0.00    +0.000 C 
ENDBRANCH  15  22
ENDBRANCH  14  18
ENDBRANCH   6  14
ENDBRANCH   1  10
BRANCH   5  23
ATOM     23  C   UNL     1       2.069   4.921  19.916  0.00  0.00    +0.000 A 
ATOM     24  C   UNL     1       1.086   4.051  19.431  0.00  0.00    +0.000 A 
ATOM     25  C   UNL     1       0.694   2.946  20.186  0.00  0.00    +0.000 A 
ATOM     26  C   UNL     1       1.291   2.746  21.419  0.00  0.00    +0.000 A 
ATOM     27  N   UNL     1       2.228   3.565  21.937  0.00  0.00    +0.000 NA
ATOM     28  C   UNL     1       2.595   4.627  21.173  0.00  0.00    +0.000 A 
ENDBRANCH   5  23
BRANCH   3  29
ATOM     29  C   UNL     1       4.395   7.382  16.452  0.00  0.00    +0.000 C 
BRANCH  29  30
ATOM     30  C   UNL     1       5.387   6.262  16.267  0.00  0.00    +0.000 A 
ATOM     31  C   UNL     1       5.352   5.453  15.120  0.00  0.00    +0.000 A 
ATOM     32  C   UNL     1       6.313   4.457  14.923  0.00  0.00    +0.000 A 
ATOM     33  C   UNL     1       7.317   4.256  15.868  0.00  0.00    +0.000 A 
ATOM     34  C   UNL     1       7.357   5.043  17.016  0.00  0.00    +0.000 A 
ATOM     35  C   UNL     1       6.399   6.039  17.214  0.00  0.00    +0.000 A 
ENDBRANCH  29  30
ENDBRANCH   3  29
TORSDOF 7
ENDMDL
MODEL 7
REMARK VINA RESULT:      -7.7      2.936     10.643
REMARK  Name = 
REMARK  7 active torsions:
REMARK  status: ('A' for Active; 'I' for Inactive)
REMARK    1  A    between atoms: C_2  and  C_3
REMARK    2  A    between atoms: C_6  and  C_7
REMARK    3  A    between atoms: C_7  and  N_8
REMARK    4  A    between atoms: C_12  and  C_14
REMARK    5  A    between atoms: N_16  and  C_17
REMARK    6  A    between atoms: C_17  and  C_18
REMARK    7  A    between atoms: C_25  and  C_26
REMARK                            x       y       z     vdW  Elec       q    Type
REMARK                         _______ _______ _______ _____ _____    ______ ____
ROOT
ATOM      1  C   UNL     1       2.223   7.488  19.263  0.00  0.00    +0.000 A 
ATOM      2  C   UNL     1       2.950   8.148  18.291  0.00  0.00    +0.000 A 
ATOM      3  N   UNL     1       3.575   7.187  17.557  0.00  0.00    +0.000 N 
ATOM      4  N   UNL     1       3.390   5.946  18.039  0.00  0.00    +0.000 NA
ATOM      5  C   UNL     1       2.543   6.098  19.074  0.00  0.00    +0.000 A 
ENDROOT
BRANCH   1  10
ATOM      6  N   UNL     1      -0.645  11.679  20.086  0.00  0.00    +0.000 NA
ATOM      7  C   UNL     1      -0.143  11.123  21.354  0.00  0.00    +0.000 C 
ATOM      8  C   UNL     1      -0.216   9.598  21.245  0.00  0.00    +0.000 C 
ATOM      9  N   UNL     1       0.588   9.128  20.111  0.00  0.00    +0.000 N 
ATOM     10  C   UNL     1       1.447   8.063  20.346  0.00  0.00    +0.000 C 
ATOM     11  O   UNL     1       1.560   7.589  21.474  0.00  0.00    +0.000 OA
ATOM     12  C   UNL     1       0.243   9.784  18.835  0.00  0.00    +0.000 C 
ATOM     13  C   UNL     1       0.257  11.326  18.987  0.00  0.00    +0.000 C 
BRANCH   6  14
ATOM     14  C   UNL     1      -1.074  13.063  20.170  0.00  0.00    +0.000 C 
BRANCH  14  18
ATOM     15  C   UNL     1      -4.722  13.439  22.470  0.00  0.00    +0.000 A 
ATOM     16  C   UNL     1      -4.746  12.825  21.214  0.00  0.00    +0.000 A 
ATOM     17  C   UNL     1      -3.568  12.677  20.475  0.00  0.00    +0.000 A 
ATOM     18  C   UNL     1      -2.352  13.141  20.990  0.00  0.00    +0.000 A 
ATOM     19  C   UNL     1      -2.338  13.756  22.257  0.00  0.00    +0.000 A 
ATOM     20  C   UNL     1      -3.516  13.909  22.990  0.00  0.00    +0.000 A 
BRANCH  15  22
ATOM     21  N   UNL     1      -6.913  13.715  23.831  0.00  0.00    +0.000 NA
ATOM     22  C   UNL     1      -5.936  13.591  23.221  0.00  0.00    +0.000 C 
ENDBRANCH  15  22
ENDBRANCH  14  18
ENDBRANCH   6  14
ENDBRANCH   1  10
BRANCH   5  23
ATOM     23  C   UNL     1       2.103   4.930  19.843  0.00  0.00    +0.000 A 
ATOM     24  C   UNL     1       1.164   4.034  19.321  0.00  0.00    +0.000 A 
ATOM     25  C   UNL     1       0.765   2.924  20.066  0.00  0.00    +0.000 A 
ATOM     26  C   UNL     1       1.311   2.746  21.325  0.00  0.00    +0.000 A 
ATOM     27  N   UNL     1       2.205   3.590  21.879  0.00  0.00    +0.000 NA
ATOM     28  C   UNL     1       2.579   4.655  21.124  0.00  0.00    +0.000 A 
ENDBRANCH   5  23
BRANCH   3  29
ATOM     29  C   UNL     1       4.487   7.420  16.440  0.00  0.00    +0.000 C 
BRANCH  29  30
ATOM     30  C   UNL     1       5.454   6.281  16.238  0.00  0.00    +0.000 A 
ATOM     31  C   UNL     1       6.499   6.054  17.147  0.00  0.00    +0.000 A 
ATOM     32  C   UNL     1       7.353   4.959  16.989  0.00  0.00    +0.000 A 
ATOM     33  C   UNL     1       7.176   4.080  15.923  0.00  0.00    +0.000 A 
ATOM     34  C   UNL     1       6.151   4.299  15.006  0.00  0.00    +0.000 A 
ATOM     35  C   UNL     1       5.296   5.392  15.163  0.00  0.00    +0.000 A 
ENDBRANCH  29  30
ENDBRANCH   3  29
TORSDOF 7
ENDMDL
MODEL 8
REMARK VINA RESULT:      -7.6      2.687     10.580
REMARK  Name = 
REMARK  7 active torsions:
REMARK  status: ('A' for Active; 'I' for Inactive)
REMARK    1  A    between atoms: C_2  and  C_3
REMARK    2  A    between atoms: C_6  and  C_7
REMARK    3  A    between atoms: C_7  and  N_8
REMARK    4  A    between atoms: C_12  and  C_14
REMARK    5  A    between atoms: N_16  and  C_17
REMARK    6  A    between atoms: C_17  and  C_18
REMARK    7  A    between atoms: C_25  and  C_26
REMARK                            x       y       z     vdW  Elec       q    Type
REMARK                         _______ _______ _______ _____ _____    ______ ____
ROOT
ATOM      1  C   UNL     1       2.265   7.502  19.257  0.00  0.00    +0.000 A 
ATOM      2  C   UNL     1       3.003   8.159  18.291  0.00  0.00    +0.000 A 
ATOM      3  N   UNL     1       3.600   7.194  17.538  0.00  0.00    +0.000 N 
ATOM      4  N   UNL     1       3.387   5.951  18.001  0.00  0.00    +0.000 NA
ATOM      5  C   UNL     1       2.550   6.108  19.044  0.00  0.00    +0.000 A 
ENDROOT
BRANCH   1  10
ATOM      6  N   UNL     1      -0.812  11.547  20.051  0.00  0.00    +0.000 NA
ATOM      7  C   UNL     1      -0.214  11.081  21.313  0.00  0.00    +0.000 C 
ATOM      8  C   UNL     1      -0.197   9.552  21.273  0.00  0.00    +0.000 C 
ATOM      9  N   UNL     1       0.577   9.078  20.119  0.00  0.00    +0.000 N 
ATOM     10  C   UNL     1       1.511   8.078  20.354  0.00  0.00    +0.000 C 
ATOM     11  O   UNL     1       1.709   7.664  21.494  0.00  0.00    +0.000 OA
ATOM     12  C   UNL     1       0.128   9.653  18.837  0.00  0.00    +0.000 C 
ATOM     13  C   UNL     1       0.054  11.199  18.922  0.00  0.00    +0.000 C 
BRANCH   6  14
ATOM     14  C   UNL     1      -1.321  12.906  20.097  0.00  0.00    +0.000 C 
BRANCH  14  18
ATOM     15  C   UNL     1      -5.447  12.676  21.388  0.00  0.00    +0.000 A 
ATOM     16  C   UNL     1      -4.454  13.081  22.285  0.00  0.00    +0.000 A 
ATOM     17  C   UNL     1      -3.122  13.182  21.869  0.00  0.00    +0.000 A 
ATOM     18  C   UNL     1      -2.772  12.880  20.548  0.00  0.00    +0.000 A 
ATOM     19  C   UNL     1      -3.781  12.475  19.652  0.00  0.00    +0.000 A 
ATOM     20  C   UNL     1      -5.108  12.367  20.070  0.00  0.00    +0.000 A 
BRANCH  15  22
ATOM     21  N   UNL     1      -7.913  12.482  22.168  0.00  0.00    +0.000 NA
ATOM     22  C   UNL     1      -6.811  12.570  21.822  0.00  0.00    +0.000 C 
ENDBRANCH  15  22
ENDBRANCH  14  18
ENDBRANCH   6  14
ENDBRANCH   1  10
BRANCH   5  23
ATOM     23  C   UNL     1       2.085   4.938  19.798  0.00  0.00    +0.000 A 
ATOM     24  C   UNL     1       2.615   4.632  21.055  0.00  0.00    +0.000 A 
ATOM     25  C   UNL     1       2.153   3.521  21.759  0.00  0.00    +0.000 A 
ATOM     26  C   UNL     1       1.174   2.733  21.177  0.00  0.00    +0.000 A 
ATOM     27  N   UNL     1       0.645   2.976  19.961  0.00  0.00    +0.000 NA
ATOM     28  C   UNL     1       1.110   4.072  19.306  0.00  0.00    +0.000 A 
ENDBRANCH   5  23
BRANCH   3  29
ATOM     29  C   UNL     1       4.511   7.423  16.420  0.00  0.00    +0.000 C 
BRANCH  29  30
ATOM     30  C   UNL     1       5.448   6.263  16.194  0.00  0.00    +0.000 A 
ATOM     31  C   UNL     1       5.377   5.500  15.018  0.00  0.00    +0.000 A 
ATOM     32  C   UNL     1       6.290   4.466  14.786  0.00  0.00    +0.000 A 
ATOM     33  C   UNL     1       7.280   4.182  15.724  0.00  0.00    +0.000 A 
ATOM     34  C   UNL     1       7.355   4.923  16.900  0.00  0.00    +0.000 A 
ATOM     35  C   UNL     1       6.446   5.956  17.133  0.00  0.00    +0.000 A 
ENDBRANCH  29  30
ENDBRANCH   3  29
TORSDOF 7
ENDMDL
MODEL 9
REMARK VINA RESULT:      -7.6      2.567     10.543
REMARK  Name = 
REMARK  7 active torsions:
REMARK  status: ('A' for Active; 'I' for Inactive)
REMARK    1  A    between atoms: C_2  and  C_3
REMARK    2  A    between atoms: C_6  and  C_7
REMARK    3  A    between atoms: C_7  and  N_8
REMARK    4  A    between atoms: C_12  and  C_14
REMARK    5  A    between atoms: N_16  and  C_17
REMARK    6  A    between atoms: C_17  and  C_18
REMARK    7  A    between atoms: C_25  and  C_26
REMARK                            x       y       z     vdW  Elec       q    Type
REMARK                         _______ _______ _______ _____ _____    ______ ____
ROOT
ATOM      1  C   UNL     1       2.239   7.439  19.313  0.00  0.00    +0.000 A 
ATOM      2  C   UNL     1       2.983   8.097  18.353  0.00  0.00    +0.000 A 
ATOM      3  N   UNL     1       3.637   7.136  17.644  0.00  0.00    +0.000 N 
ATOM      4  N   UNL     1       3.453   5.898  18.134  0.00  0.00    +0.000 NA
ATOM      5  C   UNL     1       2.579   6.051  19.146  0.00  0.00    +0.000 A 
ENDROOT
BRANCH   1  10
ATOM      6  N   UNL     1      -0.444  11.750  20.136  0.00  0.00    +0.000 NA
ATOM      7  C   UNL     1      -0.051  11.120  21.408  0.00  0.00    +0.000 C 
ATOM      8  C   UNL     1      -0.199   9.607  21.233  0.00  0.00    +0.000 C 
ATOM      9  N   UNL     1       0.646   9.135  20.130  0.00  0.00    +0.000 N 
ATOM     10  C   UNL     1       1.430   8.015  20.372  0.00  0.00    +0.000 C 
ATOM     11  O   UNL     1       1.449   7.494  21.484  0.00  0.00    +0.000 OA
ATOM     12  C   UNL     1       0.416   9.856  18.864  0.00  0.00    +0.000 C 
ATOM     13  C   UNL     1       0.503  11.389  19.079  0.00  0.00    +0.000 C 
BRANCH   6  14
ATOM     14  C   UNL     1      -0.802  13.152  20.251  0.00  0.00    +0.000 C 
BRANCH  14  18
ATOM     15  C   UNL     1      -5.116  13.384  20.530  0.00  0.00    +0.000 A 
ATOM     16  C   UNL     1      -4.318  14.287  21.240  0.00  0.00    +0.000 A 
ATOM     17  C   UNL     1      -2.925  14.234  21.136  0.00  0.00    +0.000 A 
ATOM     18  C   UNL     1      -2.316  13.277  20.316  0.00  0.00    +0.000 A 
ATOM     19  C   UNL     1      -3.128  12.374  19.603  0.00  0.00    +0.000 A 
ATOM     20  C   UNL     1      -4.519  12.422  19.714  0.00  0.00    +0.000 A 
BRANCH  15  22
ATOM     21  N   UNL     1      -7.699  13.485  20.744  0.00  0.00    +0.000 NA
ATOM     22  C   UNL     1      -6.546  13.440  20.646  0.00  0.00    +0.000 C 
ENDBRANCH  15  22
ENDBRANCH  14  18
ENDBRANCH   6  14
ENDBRANCH   1  10
BRANCH   5  23
ATOM     23  C   UNL     1       2.132   4.885  19.916  0.00  0.00    +0.000 A 
ATOM     24  C   UNL     1       1.143   4.029  19.420  0.00  0.00    +0.000 A 
ATOM     25  C   UNL     1       0.739   2.920  20.164  0.00  0.00    +0.000 A 
ATOM     26  C   UNL     1       1.330   2.704  21.397  0.00  0.00    +0.000 A 
ATOM     27  N   UNL     1       2.273   3.510  21.926  0.00  0.00    +0.000 NA
ATOM     28  C   UNL     1       2.651   4.575  21.171  0.00  0.00    +0.000 A 
ENDBRANCH   5  23
BRANCH   3  29
ATOM     29  C   UNL     1       4.573   7.369  16.549  0.00  0.00    +0.000 C 
BRANCH  29  30
ATOM     30  C   UNL     1       5.442   6.169  16.269  0.00  0.00    +0.000 A 
ATOM     31  C   UNL     1       5.243   5.391  15.117  0.00  0.00    +0.000 A 
ATOM     32  C   UNL     1       6.091   4.317  14.830  0.00  0.00    +0.000 A 
ATOM     33  C   UNL     1       7.144   4.007  15.688  0.00  0.00    +0.000 A 
ATOM     34  C   UNL     1       7.346   4.762  16.840  0.00  0.00    +0.000 A 
ATOM     35  C   UNL     1       6.501   5.835  17.128  0.00  0.00    +0.000 A 
ENDBRANCH  29  30
ENDBRANCH   3  29
TORSDOF 7
ENDMDL
