MODEL 1
REMARK VINA RESULT:      -6.5      0.000      0.000
REMARK  Name = 
REMARK  10 active torsions:
REMARK  status: ('A' for Active; 'I' for Inactive)
REMARK    1  A    between atoms: C_1  and  C_2
REMARK    2  A    between atoms: C_2  and  C_3
REMARK    3  A    between atoms: C_5  and  C_6
REMARK    4  A    between atoms: C_6  and  O_8
REMARK    5  A    between atoms: O_8  and  C_9
REMARK    6  A    between atoms: C_10  and  N_11
REMARK    7  A    between atoms: C_12  and  C_14
REMARK    8  A    between atoms: C_14  and  C_15
REMARK    9  A    between atoms: C_15  and  C_16
REMARK   10  A    between atoms: C_16  and  O_18
REMARK                            x       y       z     vdW  Elec       q    Type
REMARK                         _______ _______ _______ _____ _____    ______ ____
ROOT
ATOM      1  C   UNL     1       5.518   5.610  16.356  0.00  0.00    +0.000 A 
ATOM      2  C   UNL     1       4.893   6.731  16.863  0.00  0.00    +0.000 A 
ATOM      3  C   UNL     1       3.777   6.426  17.730  0.00  0.00    +0.000 A 
ATOM      4  C   UNL     1       3.693   5.059  17.902  0.00  0.00    +0.000 A 
ATOM      5  S   UNL     1       4.736   4.184  16.887  0.00  0.00    +0.000 S 
ENDROOT
BRANCH   4   6
ATOM      6  N   UNL     1       2.914   4.251  18.707  0.00  0.00    +0.000 N 
ATOM      7  C   UNL     1       1.657   3.866  18.269  0.00  0.00    +0.000 C 
ATOM      8  O   UNL     1       1.133   4.192  17.207  0.00  0.00    +0.000 OA
ATOM      9  H   UNL     1       3.022   4.393  19.703  0.00  0.00    +0.000 HD
BRANCH   7  10
ATOM     10  C   UNL     1       0.942   2.961  19.246  0.00  0.00    +0.000 C 
BRANCH  10  11
ATOM     11  C   UNL     1       0.964   3.600  20.627  0.00  0.00    +0.000 C 
BRANCH  11  12
ATOM     12  C   UNL     1       1.649   2.712  21.633  0.00  0.00    +0.000 C 
ATOM     13  O   UNL     1       1.105   2.177  22.585  0.00  0.00    +0.000 OA
BRANCH  12  14
ATOM     14  O   UNL     1       2.972   2.577  21.384  0.00  0.00    +0.000 OA
ATOM     15  H   UNL     1       3.345   1.732  21.698  0.00  0.00    +0.000 HD
ENDBRANCH  12  14
ENDBRANCH  11  12
ENDBRANCH  10  11
ENDBRANCH   7  10
ENDBRANCH   4   6
BRANCH   1  17
ATOM     16  C   UNL     1       6.647   4.367  14.495  0.00  0.00    +0.000 C 
ATOM     17  C   UNL     1       6.708   5.551  15.447  0.00  0.00    +0.000 C 
ENDBRANCH   1  17
BRANCH   3  18
ATOM     18  C   UNL     1       2.845   7.415  18.270  0.00  0.00    +0.000 C 
ATOM     19  O   UNL     1       2.341   7.359  19.387  0.00  0.00    +0.000 OA
BRANCH  18  20
ATOM     20  O   UNL     1       2.489   8.343  17.328  0.00  0.00    +0.000 OA
ATOM     21  C   UNL     1       1.967   9.571  17.835  0.00  0.00    +0.000 C 
ENDBRANCH  18  20
ENDBRANCH   3  18
TORSDOF 8
ENDMDL
MODEL 2
REMARK VINA RESULT:      -6.4      3.683      6.531
REMARK  Name = 
REMARK  10 active torsions:
REMARK  status: ('A' for Active; 'I' for Inactive)
REMARK    1  A    between atoms: C_1  and  C_2
REMARK    2  A    between atoms: C_2  and  C_3
REMARK    3  A    between atoms: C_5  and  C_6
REMARK    4  A    between atoms: C_6  and  O_8
REMARK    5  A    between atoms: O_8  and  C_9
REMARK    6  A    between atoms: C_10  and  N_11
REMARK    7  A    between atoms: C_12  and  C_14
REMARK    8  A    between atoms: C_14  and  C_15
REMARK    9  A    between atoms: C_15  and  C_16
REMARK   10  A    between atoms: C_16  and  O_18
REMARK                            x       y       z     vdW  Elec       q    Type
REMARK                         _______ _______ _______ _____ _____    ______ ____
ROOT
ATOM      1  C   UNL     1       3.139   4.506  19.257  0.00  0.00    +0.000 A 
ATOM      2  C   UNL     1       4.299   5.151  19.632  0.00  0.00    +0.000 A 
ATOM      3  C   UNL     1       5.416   4.886  18.754  0.00  0.00    +0.000 A 
ATOM      4  C   UNL     1       4.987   4.116  17.691  0.00  0.00    +0.000 A 
ATOM      5  S   UNL     1       3.399   3.541  17.869  0.00  0.00    +0.000 S 
ENDROOT
BRANCH   4   6
ATOM      6  N   UNL     1       5.592   3.689  16.525  0.00  0.00    +0.000 N 
ATOM      7  C   UNL     1       5.590   4.518  15.415  0.00  0.00    +0.000 C 
ATOM      8  O   UNL     1       5.073   5.630  15.347  0.00  0.00    +0.000 OA
ATOM      9  H   UNL     1       5.542   2.694  16.346  0.00  0.00    +0.000 HD
BRANCH   7  10
ATOM     10  C   UNL     1       6.316   3.922  14.230  0.00  0.00    +0.000 C 
BRANCH  10  11
ATOM     11  C   UNL     1       5.380   3.900  13.031  0.00  0.00    +0.000 C 
BRANCH  11  12
ATOM     12  C   UNL     1       5.804   2.865  12.021  0.00  0.00    +0.000 C 
ATOM     13  O   UNL     1       5.045   2.166  11.369  0.00  0.00    +0.000 OA
BRANCH  12  14
ATOM     14  O   UNL     1       7.149   2.769  11.917  0.00  0.00    +0.000 OA
ATOM     15  H   UNL     1       7.446   2.044  11.334  0.00  0.00    +0.000 HD
ENDBRANCH  12  14
ENDBRANCH  11  12
ENDBRANCH  10  11
ENDBRANCH   7  10
ENDBRANCH   4   6
BRANCH   1  17
ATOM     16  C   UNL     1       1.269   3.186  20.278  0.00  0.00    +0.000 C 
ATOM     17  C   UNL     1       1.796   4.567  19.921  0.00  0.00    +0.000 C 
ENDBRANCH   1  17
BRANCH   3  18
ATOM     18  C   UNL     1       6.794   5.307  19.003  0.00  0.00    +0.000 C 
ATOM     19  O   UNL     1       7.312   5.370  20.114  0.00  0.00    +0.000 OA
BRANCH  18  20
ATOM     20  O   UNL     1       7.400   5.759  17.861  0.00  0.00    +0.000 OA
ATOM     21  C   UNL     1       7.407   7.176  17.683  0.00  0.00    +0.000 C 
ENDBRANCH  18  20
ENDBRANCH   3  18
TORSDOF 8
ENDMDL
MODEL 3
REMARK VINA RESULT:      -6.4      3.029      4.336
REMARK  Name = 
REMARK  10 active torsions:
REMARK  status: ('A' for Active; 'I' for Inactive)
REMARK    1  A    between atoms: C_1  and  C_2
REMARK    2  A    between atoms: C_2  and  C_3
REMARK    3  A    between atoms: C_5  and  C_6
REMARK    4  A    between atoms: C_6  and  O_8
REMARK    5  A    between atoms: O_8  and  C_9
REMARK    6  A    between atoms: C_10  and  N_11
REMARK    7  A    between atoms: C_12  and  C_14
REMARK    8  A    between atoms: C_14  and  C_15
REMARK    9  A    between atoms: C_15  and  C_16
REMARK   10  A    between atoms: C_16  and  O_18
REMARK                            x       y       z     vdW  Elec       q    Type
REMARK                         _______ _______ _______ _____ _____    ______ ____
ROOT
ATOM      1  C   UNL     1       7.724   6.923  18.233  0.00  0.00    +0.000 A 
ATOM      2  C   UNL     1       7.087   6.734  17.024  0.00  0.00    +0.000 A 
ATOM      3  C   UNL     1       6.349   5.493  16.950  0.00  0.00    +0.000 A 
ATOM      4  C   UNL     1       6.400   4.859  18.175  0.00  0.00    +0.000 A 
ATOM      5  S   UNL     1       7.474   5.587  19.270  0.00  0.00    +0.000 S 
ENDROOT
BRANCH   4   6
ATOM      6  N   UNL     1       5.781   3.734  18.686  0.00  0.00    +0.000 N 
ATOM      7  C   UNL     1       4.572   3.866  19.350  0.00  0.00    +0.000 C 
ATOM      8  O   UNL     1       3.975   4.919  19.556  0.00  0.00    +0.000 OA
ATOM      9  H   UNL     1       6.402   3.007  19.018  0.00  0.00    +0.000 HD
BRANCH   7  10
ATOM     10  C   UNL     1       4.010   2.545  19.823  0.00  0.00    +0.000 C 
BRANCH  10  11
ATOM     11  C   UNL     1       3.503   1.759  18.622  0.00  0.00    +0.000 C 
BRANCH  11  12
ATOM     12  C   UNL     1       2.189   2.302  18.124  0.00  0.00    +0.000 C 
ATOM     13  O   UNL     1       1.107   2.131  18.663  0.00  0.00    +0.000 OA
BRANCH  12  14
ATOM     14  O   UNL     1       2.324   3.003  16.975  0.00  0.00    +0.000 OA
ATOM     15  H   UNL     1       2.454   2.442  16.187  0.00  0.00    +0.000 HD
ENDBRANCH  12  14
ENDBRANCH  11  12
ENDBRANCH  10  11
ENDBRANCH   7  10
ENDBRANCH   4   6
BRANCH   1  17
ATOM     16  C   UNL     1       8.151   9.377  17.951  0.00  0.00    +0.000 C 
ATOM     17  C   UNL     1       8.556   8.095  18.662  0.00  0.00    +0.000 C 
ENDBRANCH   1  17
BRANCH   3  18
ATOM     18  C   UNL     1       5.719   4.967  15.740  0.00  0.00    +0.000 C 
ATOM     19  O   UNL     1       4.802   4.152  15.731  0.00  0.00    +0.000 OA
BRANCH  18  20
ATOM     20  O   UNL     1       6.366   5.387  14.608  0.00  0.00    +0.000 OA
ATOM     21  C   UNL     1       6.627   4.376  13.634  0.00  0.00    +0.000 C 
ENDBRANCH  18  20
ENDBRANCH   3  18
TORSDOF 8
ENDMDL
MODEL 4
REMARK VINA RESULT:      -6.2      3.137      4.305
REMARK  Name = 
REMARK  10 active torsions:
REMARK  status: ('A' for Active; 'I' for Inactive)
REMARK    1  A    between atoms: C_1  and  C_2
REMARK    2  A    between atoms: C_2  and  C_3
REMARK    3  A    between atoms: C_5  and  C_6
REMARK    4  A    between atoms: C_6  and  O_8
REMARK    5  A    between atoms: O_8  and  C_9
REMARK    6  A    between atoms: C_10  and  N_11
REMARK    7  A    between atoms: C_12  and  C_14
REMARK    8  A    between atoms: C_14  and  C_15
REMARK    9  A    between atoms: C_15  and  C_16
REMARK   10  A    between atoms: C_16  and  O_18
REMARK                            x       y       z     vdW  Elec       q    Type
REMARK                         _______ _______ _______ _____ _____    ______ ____
ROOT
ATOM      1  C   UNL     1       7.824   6.954  18.242  0.00  0.00    +0.000 A 
ATOM      2  C   UNL     1       7.401   6.588  16.981  0.00  0.00    +0.000 A 
ATOM      3  C   UNL     1       6.746   5.299  16.944  0.00  0.00    +0.000 A 
ATOM      4  C   UNL     1       6.630   4.811  18.230  0.00  0.00    +0.000 A 
ATOM      5  S   UNL     1       7.476   5.728  19.382  0.00  0.00    +0.000 S 
ENDROOT
BRANCH   4   6
ATOM      6  N   UNL     1       5.993   3.711  18.772  0.00  0.00    +0.000 N 
ATOM      7  C   UNL     1       4.674   3.824  19.183  0.00  0.00    +0.000 C 
ATOM      8  O   UNL     1       3.988   4.842  19.132  0.00  0.00    +0.000 OA
ATOM      9  H   UNL     1       6.581   3.085  19.307  0.00  0.00    +0.000 HD
BRANCH   7  10
ATOM     10  C   UNL     1       4.111   2.530  19.725  0.00  0.00    +0.000 C 
BRANCH  10  11
ATOM     11  C   UNL     1       2.962   2.843  20.672  0.00  0.00    +0.000 C 
BRANCH  11  12
ATOM     12  C   UNL     1       1.628   2.557  20.033  0.00  0.00    +0.000 C 
ATOM     13  O   UNL     1       1.458   1.878  19.034  0.00  0.00    +0.000 OA
BRANCH  12  14
ATOM     14  O   UNL     1       0.607   3.160  20.683  0.00  0.00    +0.000 OA
ATOM     15  H   UNL     1      -0.264   2.753  20.508  0.00  0.00    +0.000 HD
ENDBRANCH  12  14
ENDBRANCH  11  12
ENDBRANCH  10  11
ENDBRANCH   7  10
ENDBRANCH   4   6
BRANCH   1  17
ATOM     16  C   UNL     1       8.103   9.403  17.789  0.00  0.00    +0.000 C 
ATOM     17  C   UNL     1       8.518   8.219  18.649  0.00  0.00    +0.000 C 
ENDBRANCH   1  17
BRANCH   3  18
ATOM     18  C   UNL     1       6.346   4.600  15.724  0.00  0.00    +0.000 C 
ATOM     19  O   UNL     1       5.750   3.527  15.700  0.00  0.00    +0.000 OA
BRANCH  18  20
ATOM     20  O   UNL     1       6.837   5.216  14.603  0.00  0.00    +0.000 OA
ATOM     21  C   UNL     1       6.773   4.451  13.399  0.00  0.00    +0.000 C 
ENDBRANCH  18  20
ENDBRANCH   3  18
TORSDOF 8
ENDMDL
MODEL 5
REMARK VINA RESULT:      -6.2      4.376      7.442
REMARK  Name = 
REMARK  10 active torsions:
REMARK  status: ('A' for Active; 'I' for Inactive)
REMARK    1  A    between atoms: C_1  and  C_2
REMARK    2  A    between atoms: C_2  and  C_3
REMARK    3  A    between atoms: C_5  and  C_6
REMARK    4  A    between atoms: C_6  and  O_8
REMARK    5  A    between atoms: O_8  and  C_9
REMARK    6  A    between atoms: C_10  and  N_11
REMARK    7  A    between atoms: C_12  and  C_14
REMARK    8  A    between atoms: C_14  and  C_15
REMARK    9  A    between atoms: C_15  and  C_16
REMARK   10  A    between atoms: C_16  and  O_18
REMARK                            x       y       z     vdW  Elec       q    Type
REMARK                         _______ _______ _______ _____ _____    ______ ____
ROOT
ATOM      1  C   UNL     1       4.101   4.500  17.631  0.00  0.00    +0.000 A 
ATOM      2  C   UNL     1       4.940   3.954  16.682  0.00  0.00    +0.000 A 
ATOM      3  C   UNL     1       5.887   4.901  16.137  0.00  0.00    +0.000 A 
ATOM      4  C   UNL     1       5.759   6.106  16.800  0.00  0.00    +0.000 A 
ATOM      5  S   UNL     1       4.418   6.168  17.839  0.00  0.00    +0.000 S 
ENDROOT
BRANCH   4   6
ATOM      6  N   UNL     1       6.479   7.285  16.769  0.00  0.00    +0.000 N 
ATOM      7  C   UNL     1       7.521   7.468  17.664  0.00  0.00    +0.000 C 
ATOM      8  O   UNL     1       7.878   6.670  18.527  0.00  0.00    +0.000 OA
ATOM      9  H   UNL     1       5.953   8.111  16.513  0.00  0.00    +0.000 HD
BRANCH   7  10
ATOM     10  C   UNL     1       8.228   8.793  17.485  0.00  0.00    +0.000 C 
BRANCH  10  11
ATOM     11  C   UNL     1       8.693   9.297  18.843  0.00  0.00    +0.000 C 
BRANCH  11  12
ATOM     12  C   UNL     1       9.408  10.618  18.724  0.00  0.00    +0.000 C 
ATOM     13  O   UNL     1      10.430  10.921  19.318  0.00  0.00    +0.000 OA
BRANCH  12  14
ATOM     14  O   UNL     1       8.777  11.471  17.885  0.00  0.00    +0.000 OA
ATOM     15  H   UNL     1       8.429  12.269  18.326  0.00  0.00    +0.000 HD
ENDBRANCH  12  14
ENDBRANCH  11  12
ENDBRANCH  10  11
ENDBRANCH   7  10
ENDBRANCH   4   6
BRANCH   1  17
ATOM     16  C   UNL     1       1.636   4.103  17.852  0.00  0.00    +0.000 C 
ATOM     17  C   UNL     1       3.020   3.812  18.410  0.00  0.00    +0.000 C 
ENDBRANCH   1  17
BRANCH   3  18
ATOM     18  C   UNL     1       6.779   4.636  15.010  0.00  0.00    +0.000 C 
ATOM     19  O   UNL     1       7.744   5.331  14.706  0.00  0.00    +0.000 OA
BRANCH  18  20
ATOM     20  O   UNL     1       6.331   3.593  14.244  0.00  0.00    +0.000 OA
ATOM     21  C   UNL     1       6.418   3.780  12.831  0.00  0.00    +0.000 C 
ENDBRANCH  18  20
ENDBRANCH   3  18
TORSDOF 8
ENDMDL
MODEL 6
REMARK VINA RESULT:      -6.2      2.483      3.225
REMARK  Name = 
REMARK  10 active torsions:
REMARK  status: ('A' for Active; 'I' for Inactive)
REMARK    1  A    between atoms: C_1  and  C_2
REMARK    2  A    between atoms: C_2  and  C_3
REMARK    3  A    between atoms: C_5  and  C_6
REMARK    4  A    between atoms: C_6  and  O_8
REMARK    5  A    between atoms: O_8  and  C_9
REMARK    6  A    between atoms: C_10  and  N_11
REMARK    7  A    between atoms: C_12  and  C_14
REMARK    8  A    between atoms: C_14  and  C_15
REMARK    9  A    between atoms: C_15  and  C_16
REMARK   10  A    between atoms: C_16  and  O_18
REMARK                            x       y       z     vdW  Elec       q    Type
REMARK                         _______ _______ _______ _____ _____    ______ ____
ROOT
ATOM      1  C   UNL     1       6.206   4.070  15.614  0.00  0.00    +0.000 A 
ATOM      2  C   UNL     1       7.140   4.643  16.452  0.00  0.00    +0.000 A 
ATOM      3  C   UNL     1       6.640   4.896  17.785  0.00  0.00    +0.000 A 
ATOM      4  C   UNL     1       5.358   4.396  17.894  0.00  0.00    +0.000 A 
ATOM      5  S   UNL     1       4.707   3.876  16.414  0.00  0.00    +0.000 S 
ENDROOT
BRANCH   4   6
ATOM      6  N   UNL     1       4.481   4.258  18.952  0.00  0.00    +0.000 N 
ATOM      7  C   UNL     1       3.599   5.286  19.241  0.00  0.00    +0.000 C 
ATOM      8  O   UNL     1       3.520   6.357  18.645  0.00  0.00    +0.000 OA
ATOM      9  H   UNL     1       4.827   3.724  19.739  0.00  0.00    +0.000 HD
BRANCH   7  10
ATOM     10  C   UNL     1       2.686   4.972  20.406  0.00  0.00    +0.000 C 
BRANCH  10  11
ATOM     11  C   UNL     1       2.781   3.488  20.729  0.00  0.00    +0.000 C 
BRANCH  11  12
ATOM     12  C   UNL     1       1.470   2.952  21.243  0.00  0.00    +0.000 C 
ATOM     13  O   UNL     1       1.306   2.415  22.326  0.00  0.00    +0.000 OA
BRANCH  12  14
ATOM     14  O   UNL     1       0.465   3.110  20.351  0.00  0.00    +0.000 OA
ATOM     15  H   UNL     1       0.015   2.276  20.116  0.00  0.00    +0.000 HD
ENDBRANCH  12  14
ENDBRANCH  11  12
ENDBRANCH  10  11
ENDBRANCH   7  10
ENDBRANCH   4   6
BRANCH   1  17
ATOM     16  C   UNL     1       5.207   4.081  13.316  0.00  0.00    +0.000 C 
ATOM     17  C   UNL     1       6.382   3.660  14.183  0.00  0.00    +0.000 C 
ENDBRANCH   1  17
BRANCH   3  18
ATOM     18  C   UNL     1       7.360   5.637  18.820  0.00  0.00    +0.000 C 
ATOM     19  O   UNL     1       7.204   5.474  20.027  0.00  0.00    +0.000 OA
BRANCH  18  20
ATOM     20  O   UNL     1       8.131   6.634  18.287  0.00  0.00    +0.000 OA
ATOM     21  C   UNL     1       7.417   7.724  17.703  0.00  0.00    +0.000 C 
ENDBRANCH  18  20
ENDBRANCH   3  18
TORSDOF 8
ENDMDL
MODEL 7
REMARK VINA RESULT:      -6.2      3.856      6.729
REMARK  Name = 
REMARK  10 active torsions:
REMARK  status: ('A' for Active; 'I' for Inactive)
REMARK    1  A    between atoms: C_1  and  C_2
REMARK    2  A    between atoms: C_2  and  C_3
REMARK    3  A    between atoms: C_5  and  C_6
REMARK    4  A    between atoms: C_6  and  O_8
REMARK    5  A    between atoms: O_8  and  C_9
REMARK    6  A    between atoms: C_10  and  N_11
REMARK    7  A    between atoms: C_12  and  C_14
REMARK    8  A    between atoms: C_14  and  C_15
REMARK    9  A    between atoms: C_15  and  C_16
REMARK   10  A    between atoms: C_16  and  O_18
REMARK                            x       y       z     vdW  Elec       q    Type
REMARK                         _______ _______ _______ _____ _____    ______ ____
ROOT
ATOM      1  C   UNL     1       3.849   4.930  18.893  0.00  0.00    +0.000 A 
ATOM      2  C   UNL     1       5.149   5.351  19.082  0.00  0.00    +0.000 A 
ATOM      3  C   UNL     1       6.069   4.841  18.090  0.00  0.00    +0.000 A 
ATOM      4  C   UNL     1       5.366   4.130  17.139  0.00  0.00    +0.000 A 
ATOM      5  S   UNL     1       3.737   3.882  17.547  0.00  0.00    +0.000 S 
ENDROOT
BRANCH   4   6
ATOM      6  N   UNL     1       5.719   3.550  15.936  0.00  0.00    +0.000 N 
ATOM      7  C   UNL     1       5.968   4.358  14.839  0.00  0.00    +0.000 C 
ATOM      8  O   UNL     1       5.888   5.583  14.814  0.00  0.00    +0.000 OA
ATOM      9  H   UNL     1       5.302   2.647  15.748  0.00  0.00    +0.000 HD
BRANCH   7  10
ATOM     10  C   UNL     1       6.371   3.577  13.608  0.00  0.00    +0.000 C 
BRANCH  10  11
ATOM     11  C   UNL     1       5.481   3.985  12.444  0.00  0.00    +0.000 C 
BRANCH  11  12
ATOM     12  C   UNL     1       5.034   2.787  11.647  0.00  0.00    +0.000 C 
ATOM     13  O   UNL     1       5.690   1.773  11.474  0.00  0.00    +0.000 OA
BRANCH  12  14
ATOM     14  O   UNL     1       3.806   2.957  11.108  0.00  0.00    +0.000 OA
ATOM     15  H   UNL     1       3.123   3.205  11.760  0.00  0.00    +0.000 HD
ENDBRANCH  12  14
ENDBRANCH  11  12
ENDBRANCH  10  11
ENDBRANCH   7  10
ENDBRANCH   4   6
BRANCH   1  17
ATOM     16  C   UNL     1       1.787   4.056  20.017  0.00  0.00    +0.000 C 
ATOM     17  C   UNL     1       2.642   5.275  19.713  0.00  0.00    +0.000 C 
ENDBRANCH   1  17
BRANCH   3  18
ATOM     18  C   UNL     1       7.522   4.996  18.141  0.00  0.00    +0.000 C 
ATOM     19  O   UNL     1       8.326   4.157  17.747  0.00  0.00    +0.000 OA
BRANCH  18  20
ATOM     20  O   UNL     1       7.887   6.135  18.810  0.00  0.00    +0.000 OA
ATOM     21  C   UNL     1       7.874   7.336  18.039  0.00  0.00    +0.000 C 
ENDBRANCH  18  20
ENDBRANCH   3  18
TORSDOF 8
ENDMDL
MODEL 8
REMARK VINA RESULT:      -6.2      3.016      4.127
REMARK  Name = 
REMARK  10 active torsions:
REMARK  status: ('A' for Active; 'I' for Inactive)
REMARK    1  A    between atoms: C_1  and  C_2
REMARK    2  A    between atoms: C_2  and  C_3
REMARK    3  A    between atoms: C_5  and  C_6
REMARK    4  A    between atoms: C_6  and  O_8
REMARK    5  A    between atoms: O_8  and  C_9
REMARK    6  A    between atoms: C_10  and  N_11
REMARK    7  A    between atoms: C_12  and  C_14
REMARK    8  A    between atoms: C_14  and  C_15
REMARK    9  A    between atoms: C_15  and  C_16
REMARK   10  A    between atoms: C_16  and  O_18
REMARK                            x       y       z     vdW  Elec       q    Type
REMARK                         _______ _______ _______ _____ _____    ______ ____
ROOT
ATOM      1  C   UNL     1       7.893   7.317  18.350  0.00  0.00    +0.000 A 
ATOM      2  C   UNL     1       7.115   7.347  17.210  0.00  0.00    +0.000 A 
ATOM      3  C   UNL     1       6.362   6.132  16.995  0.00  0.00    +0.000 A 
ATOM      4  C   UNL     1       6.551   5.282  18.066  0.00  0.00    +0.000 A 
ATOM      5  S   UNL     1       7.754   5.808  19.142  0.00  0.00    +0.000 S 
ENDROOT
BRANCH   4   6
ATOM      6  N   UNL     1       5.987   4.075  18.428  0.00  0.00    +0.000 N 
ATOM      7  C   UNL     1       4.807   4.067  19.154  0.00  0.00    +0.000 C 
ATOM      8  O   UNL     1       4.193   5.057  19.541  0.00  0.00    +0.000 OA
ATOM      9  H   UNL     1       6.642   3.327  18.621  0.00  0.00    +0.000 HD
BRANCH   7  10
ATOM     10  C   UNL     1       4.302   2.672  19.448  0.00  0.00    +0.000 C 
BRANCH  10  11
ATOM     11  C   UNL     1       3.142   2.756  20.429  0.00  0.00    +0.000 C 
BRANCH  11  12
ATOM     12  C   UNL     1       1.819   2.572  19.733  0.00  0.00    +0.000 C 
ATOM     13  O   UNL     1       0.836   3.279  19.891  0.00  0.00    +0.000 OA
BRANCH  12  14
ATOM     14  O   UNL     1       1.817   1.503  18.905  0.00  0.00    +0.000 OA
ATOM     15  H   UNL     1       1.847   0.646  19.371  0.00  0.00    +0.000 HD
ENDBRANCH  12  14
ENDBRANCH  11  12
ENDBRANCH  10  11
ENDBRANCH   7  10
ENDBRANCH   4   6
BRANCH   1  17
ATOM     16  C   UNL     1       8.536   9.734  18.203  0.00  0.00    +0.000 C 
ATOM     17  C   UNL     1       8.781   8.398  18.887  0.00  0.00    +0.000 C 
ENDBRANCH   1  17
BRANCH   3  18
ATOM     18  C   UNL     1       5.587   5.832  15.791  0.00  0.00    +0.000 C 
ATOM     19  O   UNL     1       5.061   6.677  15.073  0.00  0.00    +0.000 OA
BRANCH  18  20
ATOM     20  O   UNL     1       5.398   4.485  15.633  0.00  0.00    +0.000 OA
ATOM     21  C   UNL     1       6.140   3.876  14.576  0.00  0.00    +0.000 C 
ENDBRANCH  18  20
ENDBRANCH   3  18
TORSDOF 8
ENDMDL
MODEL 9
REMARK VINA RESULT:      -6.1      3.021      6.399
REMARK  Name = 
REMARK  10 active torsions:
REMARK  status: ('A' for Active; 'I' for Inactive)
REMARK    1  A    between atoms: C_1  and  C_2
REMARK    2  A    between atoms: C_2  and  C_3
REMARK    3  A    between atoms: C_5  and  C_6
REMARK    4  A    between atoms: C_6  and  O_8
REMARK    5  A    between atoms: O_8  and  C_9
REMARK    6  A    between atoms: C_10  and  N_11
REMARK    7  A    between atoms: C_12  and  C_14
REMARK    8  A    between atoms: C_14  and  C_15
REMARK    9  A    between atoms: C_15  and  C_16
REMARK   10  A    between atoms: C_16  and  O_18
REMARK                            x       y       z     vdW  Elec       q    Type
REMARK                         _______ _______ _______ _____ _____    ______ ____
ROOT
ATOM      1  C   UNL     1       2.085   6.467  20.217  0.00  0.00    +0.000 A 
ATOM      2  C   UNL     1       2.151   5.155  20.636  0.00  0.00    +0.000 A 
ATOM      3  C   UNL     1       3.001   4.328  19.810  0.00  0.00    +0.000 A 
ATOM      4  C   UNL     1       3.613   5.115  18.855  0.00  0.00    +0.000 A 
ATOM      5  S   UNL     1       3.012   6.702  18.799  0.00  0.00    +0.000 S 
ENDROOT
BRANCH   4   6
ATOM      6  N   UNL     1       4.593   4.872  17.912  0.00  0.00    +0.000 N 
ATOM      7  C   UNL     1       5.923   4.864  18.301  0.00  0.00    +0.000 C 
ATOM      8  O   UNL     1       6.343   5.076  19.435  0.00  0.00    +0.000 OA
ATOM      9  H   UNL     1       4.396   5.213  16.980  0.00  0.00    +0.000 HD
BRANCH   7  10
ATOM     10  C   UNL     1       6.870   4.554  17.163  0.00  0.00    +0.000 C 
BRANCH  10  11
ATOM     11  C   UNL     1       6.075   4.006  15.987  0.00  0.00    +0.000 C 
BRANCH  11  12
ATOM     12  C   UNL     1       6.729   4.348  14.674  0.00  0.00    +0.000 C 
ATOM     13  O   UNL     1       7.528   5.254  14.501  0.00  0.00    +0.000 OA
BRANCH  12  14
ATOM     14  O   UNL     1       6.317   3.542  13.669  0.00  0.00    +0.000 OA
ATOM     15  H   UNL     1       5.577   3.910  13.149  0.00  0.00    +0.000 HD
ENDBRANCH  12  14
ENDBRANCH  11  12
ENDBRANCH  10  11
ENDBRANCH   7  10
ENDBRANCH   4   6
BRANCH   1  17
ATOM     16  C   UNL     1       1.319   8.841  19.969  0.00  0.00    +0.000 C 
ATOM     17  C   UNL     1       1.321   7.596  20.842  0.00  0.00    +0.000 C 
ENDBRANCH   1  17
BRANCH   3  18
ATOM     18  C   UNL     1       3.124   2.876  19.928  0.00  0.00    +0.000 C 
ATOM     19  O   UNL     1       4.184   2.259  19.864  0.00  0.00    +0.000 OA
BRANCH  18  20
ATOM     20  O   UNL     1       1.899   2.266  19.981  0.00  0.00    +0.000 OA
ATOM     21  C   UNL     1       1.143   2.289  18.770  0.00  0.00    +0.000 C 
ENDBRANCH  18  20
ENDBRANCH   3  18
TORSDOF 8
ENDMDL
