MODEL 1
REMARK VINA RESULT:      -6.8      0.000      0.000
REMARK  Name = 
REMARK  8 active torsions:
REMARK  status: ('A' for Active; 'I' for Inactive)
REMARK    1  A    between atoms: C_1  and  S_2
REMARK    2  A    between atoms: S_2  and  C_3
REMARK    3  A    between atoms: C_7  and  C_8
REMARK    4  A    between atoms: C_10  and  N_11
REMARK    5  A    between atoms: N_11  and  C_12
REMARK    6  A    between atoms: C_12  and  C_13
REMARK    7  A    between atoms: C_16  and  S_17
REMARK    8  A    between atoms: S_17  and  N_18
REMARK                            x       y       z     vdW  Elec       q    Type
REMARK                         _______ _______ _______ _____ _____    ______ ____
ROOT
ATOM      1  N   UNL     1       2.436   6.179  18.278  0.00  0.00    +0.000 N 
ATOM      2  H   UNL     1       1.796   5.707  17.642  0.00  0.00    +0.000 HD
ENDROOT
BRANCH   1   8
ATOM      3  C   UNL     1       5.831   5.171  18.905  0.00  0.00    +0.000 A 
ATOM      4  N   UNL     1       5.739   3.912  19.332  0.00  0.00    +0.000 NA
ATOM      5  C   UNL     1       4.498   3.408  19.397  0.00  0.00    +0.000 A 
ATOM      6 CL   UNL     1       4.485   1.782  19.966  0.00  0.00    +0.000 Cl
ATOM      7  C   UNL     1       3.357   4.092  19.052  0.00  0.00    +0.000 A 
ATOM      8  C   UNL     1       3.547   5.389  18.602  0.00  0.00    +0.000 A 
ATOM      9  N   UNL     1       4.782   5.930  18.539  0.00  0.00    +0.000 NA
BRANCH   3  11
ATOM     10  C   UNL     1       7.174   6.966  17.318  0.00  0.00    +0.000 C 
ATOM     11  S   UNL     1       7.447   5.885  18.750  0.00  0.00    +0.000 S 
ENDBRANCH   3  11
BRANCH   7  12
ATOM     12  C   UNL     1       2.066   3.501  19.151  0.00  0.00    +0.000 C 
ATOM     13  N   UNL     1       1.009   3.037  19.253  0.00  0.00    +0.000 NA
ENDBRANCH   7  12
ENDBRANCH   1   8
BRANCH   1  14
ATOM     14  C   UNL     1       2.677   7.551  17.849  0.00  0.00    +0.000 C 
BRANCH  14  15
ATOM     15  C   UNL     1       1.959   8.475  18.813  0.00  0.00    +0.000 A 
ATOM     16  C   UNL     1       1.497   9.729  18.373  0.00  0.00    +0.000 A 
ATOM     17  C   UNL     1       0.839  10.593  19.247  0.00  0.00    +0.000 A 
ATOM     18  C   UNL     1       0.624  10.196  20.568  0.00  0.00    +0.000 A 
ATOM     19  C   UNL     1       1.094   8.965  21.031  0.00  0.00    +0.000 A 
ATOM     20  C   UNL     1       1.757   8.106  20.153  0.00  0.00    +0.000 A 
BRANCH  18  21
ATOM     21  S   UNL     1      -0.280  11.256  21.654  0.00  0.00    +0.000 S 
ATOM     22  O   UNL     1      -1.528  11.632  21.032  0.00  0.00    +0.000 OA
ATOM     23  O   UNL     1      -0.204  10.742  23.001  0.00  0.00    +0.000 OA
BRANCH  21  24
ATOM     24  N   UNL     1       0.687  12.628  21.625  0.00  0.00    +0.000 NA
ATOM     25  H   UNL     1       1.207  12.678  20.749  0.00  0.00    +0.000 HD
ATOM     26  H   UNL     1       0.135  13.457  21.840  0.00  0.00    +0.000 HD
ENDBRANCH  21  24
ENDBRANCH  18  21
ENDBRANCH  14  15
ENDBRANCH   1  14
TORSDOF 7
ENDMDL
MODEL 2
REMARK VINA RESULT:      -6.7      0.683      1.220
REMARK  Name = 
REMARK  8 active torsions:
REMARK  status: ('A' for Active; 'I' for Inactive)
REMARK    1  A    between atoms: C_1  and  S_2
REMARK    2  A    between atoms: S_2  and  C_3
REMARK    3  A    between atoms: C_7  and  C_8
REMARK    4  A    between atoms: C_10  and  N_11
REMARK    5  A    between atoms: N_11  and  C_12
REMARK    6  A    between atoms: C_12  and  C_13
REMARK    7  A    between atoms: C_16  and  S_17
REMARK    8  A    between atoms: S_17  and  N_18
REMARK                            x       y       z     vdW  Elec       q    Type
REMARK                         _______ _______ _______ _____ _____    ______ ____
ROOT
ATOM      1  N   UNL     1       2.304   6.344  18.150  0.00  0.00    +0.000 N 
ATOM      2  H   UNL     1       1.640   5.937  17.495  0.00  0.00    +0.000 HD
ENDROOT
BRANCH   1   8
ATOM      3  C   UNL     1       5.642   5.015  18.310  0.00  0.00    +0.000 A 
ATOM      4  N   UNL     1       5.529   3.898  19.029  0.00  0.00    +0.000 NA
ATOM      5  C   UNL     1       4.293   3.600  19.453  0.00  0.00    +0.000 A 
ATOM      6 CL   UNL     1       4.254   2.146  20.376  0.00  0.00    +0.000 Cl
ATOM      7  C   UNL     1       3.174   4.353  19.191  0.00  0.00    +0.000 A 
ATOM      8  C   UNL     1       3.380   5.489  18.423  0.00  0.00    +0.000 A 
ATOM      9  N   UNL     1       4.614   5.823  17.993  0.00  0.00    +0.000 NA
BRANCH   3  11
ATOM     10  C   UNL     1       8.091   5.856  19.226  0.00  0.00    +0.000 C 
ATOM     11  S   UNL     1       7.242   5.444  17.676  0.00  0.00    +0.000 S 
ENDBRANCH   3  11
BRANCH   7  12
ATOM     12  C   UNL     1       1.888   3.985  19.678  0.00  0.00    +0.000 C 
ATOM     13  N   UNL     1       0.838   3.712  20.084  0.00  0.00    +0.000 NA
ENDBRANCH   7  12
ENDBRANCH   1   8
BRANCH   1  14
ATOM     14  C   UNL     1       2.604   7.725  17.796  0.00  0.00    +0.000 C 
BRANCH  14  15
ATOM     15  C   UNL     1       1.848   8.628  18.751  0.00  0.00    +0.000 A 
ATOM     16  C   UNL     1       1.664   8.239  20.090  0.00  0.00    +0.000 A 
ATOM     17  C   UNL     1       0.967   9.056  20.980  0.00  0.00    +0.000 A 
ATOM     18  C   UNL     1       0.464  10.279  20.535  0.00  0.00    +0.000 A 
ATOM     19  C   UNL     1       0.616  10.674  19.204  0.00  0.00    +0.000 A 
ATOM     20  C   UNL     1       1.310   9.850  18.316  0.00  0.00    +0.000 A 
BRANCH  18  21
ATOM     21  S   UNL     1      -0.350  11.349  21.681  0.00  0.00    +0.000 S 
ATOM     22  O   UNL     1      -1.597  11.804  21.113  0.00  0.00    +0.000 OA
ATOM     23  O   UNL     1      -0.256  10.791  23.010  0.00  0.00    +0.000 OA
BRANCH  21  24
ATOM     24  N   UNL     1       0.683  12.672  21.658  0.00  0.00    +0.000 NA
ATOM     25  H   UNL     1       0.241  13.460  21.186  0.00  0.00    +0.000 HD
ATOM     26  H   UNL     1       1.023  12.874  22.597  0.00  0.00    +0.000 HD
ENDBRANCH  21  24
ENDBRANCH  18  21
ENDBRANCH  14  15
ENDBRANCH   1  14
TORSDOF 7
ENDMDL
MODEL 3
REMARK VINA RESULT:      -6.7      4.864      8.396
REMARK  Name = 
REMARK  8 active torsions:
REMARK  status: ('A' for Active; 'I' for Inactive)
REMARK    1  A    between atoms: C_1  and  S_2
REMARK    2  A    between atoms: S_2  and  C_3
REMARK    3  A    between atoms: C_7  and  C_8
REMARK    4  A    between atoms: C_10  and  N_11
REMARK    5  A    between atoms: N_11  and  C_12
REMARK    6  A    between atoms: C_12  and  C_13
REMARK    7  A    between atoms: C_16  and  S_17
REMARK    8  A    between atoms: S_17  and  N_18
REMARK                            x       y       z     vdW  Elec       q    Type
REMARK                         _______ _______ _______ _____ _____    ______ ____
ROOT
ATOM      1  N   UNL     1       1.088   9.547  19.005  0.00  0.00    +0.000 N 
ATOM      2  H   UNL     1       1.615   9.982  19.758  0.00  0.00    +0.000 HD
ENDROOT
BRANCH   1   8
ATOM      3  C   UNL     1      -2.000  10.504  17.430  0.00  0.00    +0.000 A 
ATOM      4  N   UNL     1      -2.543  11.396  18.259  0.00  0.00    +0.000 NA
ATOM      5  C   UNL     1      -1.833  11.672  19.362  0.00  0.00    +0.000 A 
ATOM      6 CL   UNL     1      -2.621  12.827  20.369  0.00  0.00    +0.000 Cl
ATOM      7  C   UNL     1      -0.618  11.111  19.672  0.00  0.00    +0.000 A 
ATOM      8  C   UNL     1      -0.121  10.207  18.746  0.00  0.00    +0.000 A 
ATOM      9  N   UNL     1      -0.817   9.897  17.633  0.00  0.00    +0.000 NA
BRANCH   3  11
ATOM     10  C   UNL     1      -4.321  11.187  16.129  0.00  0.00    +0.000 C 
ATOM     11  S   UNL     1      -2.862  10.127  15.926  0.00  0.00    +0.000 S 
ENDBRANCH   3  11
BRANCH   7  12
ATOM     12  C   UNL     1       0.082  11.442  20.867  0.00  0.00    +0.000 C 
ATOM     13  N   UNL     1       0.675  11.706  21.826  0.00  0.00    +0.000 NA
ENDBRANCH   7  12
ENDBRANCH   1   8
BRANCH   1  14
ATOM     14  C   UNL     1       1.954   9.243  17.872  0.00  0.00    +0.000 C 
BRANCH  14  15
ATOM     15  C   UNL     1       2.659   7.932  18.160  0.00  0.00    +0.000 A 
ATOM     16  C   UNL     1       2.309   7.180  19.296  0.00  0.00    +0.000 A 
ATOM     17  C   UNL     1       2.950   5.974  19.578  0.00  0.00    +0.000 A 
ATOM     18  C   UNL     1       3.936   5.505  18.709  0.00  0.00    +0.000 A 
ATOM     19  C   UNL     1       4.314   6.246  17.587  0.00  0.00    +0.000 A 
ATOM     20  C   UNL     1       3.673   7.456  17.313  0.00  0.00    +0.000 A 
BRANCH  18  21
ATOM     21  S   UNL     1       4.692   3.939  19.023  0.00  0.00    +0.000 S 
ATOM     22  O   UNL     1       6.105   4.125  19.254  0.00  0.00    +0.000 OA
ATOM     23  O   UNL     1       3.853   3.169  19.909  0.00  0.00    +0.000 OA
BRANCH  21  24
ATOM     24  N   UNL     1       4.557   3.222  17.512  0.00  0.00    +0.000 NA
ATOM     25  H   UNL     1       3.819   2.518  17.517  0.00  0.00    +0.000 HD
ATOM     26  H   UNL     1       4.463   3.933  16.787  0.00  0.00    +0.000 HD
ENDBRANCH  21  24
ENDBRANCH  18  21
ENDBRANCH  14  15
ENDBRANCH   1  14
TORSDOF 7
ENDMDL
MODEL 4
REMARK VINA RESULT:      -6.7      1.067      1.567
REMARK  Name = 
REMARK  8 active torsions:
REMARK  status: ('A' for Active; 'I' for Inactive)
REMARK    1  A    between atoms: C_1  and  S_2
REMARK    2  A    between atoms: S_2  and  C_3
REMARK    3  A    between atoms: C_7  and  C_8
REMARK    4  A    between atoms: C_10  and  N_11
REMARK    5  A    between atoms: N_11  and  C_12
REMARK    6  A    between atoms: C_12  and  C_13
REMARK    7  A    between atoms: C_16  and  S_17
REMARK    8  A    between atoms: S_17  and  N_18
REMARK                            x       y       z     vdW  Elec       q    Type
REMARK                         _______ _______ _______ _____ _____    ______ ____
ROOT
ATOM      1  N   UNL     1       2.254   6.480  18.519  0.00  0.00    +0.000 N 
ATOM      2  H   UNL     1       1.487   6.041  18.014  0.00  0.00    +0.000 HD
ENDROOT
BRANCH   1   8
ATOM      3  C   UNL     1       5.607   5.184  18.440  0.00  0.00    +0.000 A 
ATOM      4  N   UNL     1       5.537   4.017  19.080  0.00  0.00    +0.000 NA
ATOM      5  C   UNL     1       4.323   3.676  19.535  0.00  0.00    +0.000 A 
ATOM      6 CL   UNL     1       4.337   2.158  20.352  0.00  0.00    +0.000 Cl
ATOM      7  C   UNL     1       3.186   4.431  19.376  0.00  0.00    +0.000 A 
ATOM      8  C   UNL     1       3.348   5.621  18.683  0.00  0.00    +0.000 A 
ATOM      9  N   UNL     1       4.559   6.000  18.226  0.00  0.00    +0.000 NA
BRANCH   3  11
ATOM     10  C   UNL     1       7.269   4.559  16.344  0.00  0.00    +0.000 C 
ATOM     11  S   UNL     1       7.174   5.676  17.770  0.00  0.00    +0.000 S 
ENDBRANCH   3  11
BRANCH   7  12
ATOM     12  C   UNL     1       1.926   4.014  19.891  0.00  0.00    +0.000 C 
ATOM     13  N   UNL     1       0.906   3.689  20.333  0.00  0.00    +0.000 NA
ENDBRANCH   7  12
ENDBRANCH   1   8
BRANCH   1  14
ATOM     14  C   UNL     1       2.511   7.822  18.010  0.00  0.00    +0.000 C 
BRANCH  14  15
ATOM     15  C   UNL     1       1.767   8.807  18.890  0.00  0.00    +0.000 A 
ATOM     16  C   UNL     1       1.495   8.485  20.232  0.00  0.00    +0.000 A 
ATOM     17  C   UNL     1       0.808   9.378  21.054  0.00  0.00    +0.000 A 
ATOM     18  C   UNL     1       0.403  10.610  20.537  0.00  0.00    +0.000 A 
ATOM     19  C   UNL     1       0.642  10.940  19.201  0.00  0.00    +0.000 A 
ATOM     20  C   UNL     1       1.326  10.039  18.381  0.00  0.00    +0.000 A 
BRANCH  18  21
ATOM     21  S   UNL     1      -0.397  11.773  21.599  0.00  0.00    +0.000 S 
ATOM     22  O   UNL     1       0.482  12.894  21.833  0.00  0.00    +0.000 OA
ATOM     23  O   UNL     1      -1.772  11.934  21.187  0.00  0.00    +0.000 OA
BRANCH  21  24
ATOM     24  N   UNL     1      -0.439  10.905  23.035  0.00  0.00    +0.000 NA
ATOM     25  H   UNL     1      -0.157  11.496  23.816  0.00  0.00    +0.000 HD
ATOM     26  H   UNL     1      -1.345  10.451  23.150  0.00  0.00    +0.000 HD
ENDBRANCH  21  24
ENDBRANCH  18  21
ENDBRANCH  14  15
ENDBRANCH   1  14
TORSDOF 7
ENDMDL
MODEL 5
REMARK VINA RESULT:      -6.7      1.609      1.914
REMARK  Name = 
REMARK  8 active torsions:
REMARK  status: ('A' for Active; 'I' for Inactive)
REMARK    1  A    between atoms: C_1  and  S_2
REMARK    2  A    between atoms: S_2  and  C_3
REMARK    3  A    between atoms: C_7  and  C_8
REMARK    4  A    between atoms: C_10  and  N_11
REMARK    5  A    between atoms: N_11  and  C_12
REMARK    6  A    between atoms: C_12  and  C_13
REMARK    7  A    between atoms: C_16  and  S_17
REMARK    8  A    between atoms: S_17  and  N_18
REMARK                            x       y       z     vdW  Elec       q    Type
REMARK                         _______ _______ _______ _____ _____    ______ ____
ROOT
ATOM      1  N   UNL     1       2.886   6.791  18.860  0.00  0.00    +0.000 N 
ATOM      2  H   UNL     1       2.234   6.497  19.583  0.00  0.00    +0.000 HD
ENDROOT
BRANCH   1   8
ATOM      3  C   UNL     1       5.075   4.855  16.764  0.00  0.00    +0.000 A 
ATOM      4  N   UNL     1       4.659   3.597  16.908  0.00  0.00    +0.000 NA
ATOM      5  C   UNL     1       3.614   3.420  17.728  0.00  0.00    +0.000 A 
ATOM      6 CL   UNL     1       3.158   1.762  17.851  0.00  0.00    +0.000 Cl
ATOM      7  C   UNL     1       2.965   4.428  18.398  0.00  0.00    +0.000 A 
ATOM      8  C   UNL     1       3.453   5.707  18.177  0.00  0.00    +0.000 A 
ATOM      9  N   UNL     1       4.513   5.917  17.370  0.00  0.00    +0.000 NA
BRANCH   3  11
ATOM     10  C   UNL     1       6.048   3.961  14.356  0.00  0.00    +0.000 C 
ATOM     11  S   UNL     1       6.425   5.169  15.656  0.00  0.00    +0.000 S 
ENDBRANCH   3  11
BRANCH   7  12
ATOM     12  C   UNL     1       1.864   4.171  19.262  0.00  0.00    +0.000 C 
ATOM     13  N   UNL     1       0.985   3.959  19.987  0.00  0.00    +0.000 NA
ENDBRANCH   7  12
ENDBRANCH   1   8
BRANCH   1  14
ATOM     14  C   UNL     1       2.328   7.879  18.067  0.00  0.00    +0.000 C 
BRANCH  14  15
ATOM     15  C   UNL     1       1.576   8.803  19.005  0.00  0.00    +0.000 A 
ATOM     16  C   UNL     1       1.426   8.460  20.361  0.00  0.00    +0.000 A 
ATOM     17  C   UNL     1       0.734   9.297  21.235  0.00  0.00    +0.000 A 
ATOM     18  C   UNL     1       0.201  10.495  20.757  0.00  0.00    +0.000 A 
ATOM     19  C   UNL     1       0.318  10.844  19.410  0.00  0.00    +0.000 A 
ATOM     20  C   UNL     1       1.008  10.000  18.537  0.00  0.00    +0.000 A 
BRANCH  18  21
ATOM     21  S   UNL     1      -0.607  11.592  21.881  0.00  0.00    +0.000 S 
ATOM     22  O   UNL     1      -1.862  12.026  21.312  0.00  0.00    +0.000 OA
ATOM     23  O   UNL     1      -0.500  11.072  23.223  0.00  0.00    +0.000 OA
BRANCH  21  24
ATOM     24  N   UNL     1       0.419  12.918  21.812  0.00  0.00    +0.000 NA
ATOM     25  H   UNL     1       1.258  12.748  22.367  0.00  0.00    +0.000 HD
ATOM     26  H   UNL     1       0.595  13.182  20.843  0.00  0.00    +0.000 HD
ENDBRANCH  21  24
ENDBRANCH  18  21
ENDBRANCH  14  15
ENDBRANCH   1  14
TORSDOF 7
ENDMDL
MODEL 6
REMARK VINA RESULT:      -6.6      1.038      1.077
REMARK  Name = 
REMARK  8 active torsions:
REMARK  status: ('A' for Active; 'I' for Inactive)
REMARK    1  A    between atoms: C_1  and  S_2
REMARK    2  A    between atoms: S_2  and  C_3
REMARK    3  A    between atoms: C_7  and  C_8
REMARK    4  A    between atoms: C_10  and  N_11
REMARK    5  A    between atoms: N_11  and  C_12
REMARK    6  A    between atoms: C_12  and  C_13
REMARK    7  A    between atoms: C_16  and  S_17
REMARK    8  A    between atoms: S_17  and  N_18
REMARK                            x       y       z     vdW  Elec       q    Type
REMARK                         _______ _______ _______ _____ _____    ______ ____
ROOT
ATOM      1  N   UNL     1       2.782   6.487  20.029  0.00  0.00    +0.000 N 
ATOM      2  H   UNL     1       2.031   6.131  20.616  0.00  0.00    +0.000 HD
ENDROOT
BRANCH   1   8
ATOM      3  C   UNL     1       5.711   4.766  18.849  0.00  0.00    +0.000 A 
ATOM      4  N   UNL     1       5.340   3.489  18.755  0.00  0.00    +0.000 NA
ATOM      5  C   UNL     1       4.071   3.224  19.095  0.00  0.00    +0.000 A 
ATOM      6 CL   UNL     1       3.693   1.549  18.947  0.00  0.00    +0.000 Cl
ATOM      7  C   UNL     1       3.160   4.165  19.512  0.00  0.00    +0.000 A 
ATOM      8  C   UNL     1       3.626   5.469  19.564  0.00  0.00    +0.000 A 
ATOM      9  N   UNL     1       4.902   5.766  19.243  0.00  0.00    +0.000 NA
BRANCH   3  11
ATOM     10  C   UNL     1       7.345   4.627  16.646  0.00  0.00    +0.000 C 
ATOM     11  S   UNL     1       7.364   5.195  18.369  0.00  0.00    +0.000 S 
ENDBRANCH   3  11
BRANCH   7  12
ATOM     12  C   UNL     1       1.827   3.816  19.867  0.00  0.00    +0.000 C 
ATOM     13  N   UNL     1       0.737   3.523  20.130  0.00  0.00    +0.000 NA
ENDBRANCH   7  12
ENDBRANCH   1   8
BRANCH   1  14
ATOM     14  C   UNL     1       2.271   7.446  19.057  0.00  0.00    +0.000 C 
BRANCH  14  15
ATOM     15  C   UNL     1       1.501   8.512  19.810  0.00  0.00    +0.000 A 
ATOM     16  C   UNL     1       1.172   9.723  19.175  0.00  0.00    +0.000 A 
ATOM     17  C   UNL     1       0.468  10.717  19.856  0.00  0.00    +0.000 A 
ATOM     18  C   UNL     1       0.074  10.493  21.175  0.00  0.00    +0.000 A 
ATOM     19  C   UNL     1       0.409   9.306  21.832  0.00  0.00    +0.000 A 
ATOM     20  C   UNL     1       1.119   8.317  21.148  0.00  0.00    +0.000 A 
BRANCH  18  21
ATOM     21  S   UNL     1      -0.887  11.717  22.011  0.00  0.00    +0.000 S 
ATOM     22  O   UNL     1      -2.011  12.093  21.186  0.00  0.00    +0.000 OA
ATOM     23  O   UNL     1      -1.028  11.352  23.401  0.00  0.00    +0.000 OA
BRANCH  21  24
ATOM     24  N   UNL     1       0.173  13.019  21.976  0.00  0.00    +0.000 NA
ATOM     25  H   UNL     1       0.375  13.287  21.014  0.00  0.00    +0.000 HD
ATOM     26  H   UNL     1      -0.174  13.775  22.565  0.00  0.00    +0.000 HD
ENDBRANCH  21  24
ENDBRANCH  18  21
ENDBRANCH  14  15
ENDBRANCH   1  14
TORSDOF 7
ENDMDL
MODEL 7
REMARK VINA RESULT:      -6.6      1.083      1.246
REMARK  Name = 
REMARK  8 active torsions:
REMARK  status: ('A' for Active; 'I' for Inactive)
REMARK    1  A    between atoms: C_1  and  S_2
REMARK    2  A    between atoms: S_2  and  C_3
REMARK    3  A    between atoms: C_7  and  C_8
REMARK    4  A    between atoms: C_10  and  N_11
REMARK    5  A    between atoms: N_11  and  C_12
REMARK    6  A    between atoms: C_12  and  C_13
REMARK    7  A    between atoms: C_16  and  S_17
REMARK    8  A    between atoms: S_17  and  N_18
REMARK                            x       y       z     vdW  Elec       q    Type
REMARK                         _______ _______ _______ _____ _____    ______ ____
ROOT
ATOM      1  N   UNL     1       2.437   6.248  18.144  0.00  0.00    +0.000 N 
ATOM      2  H   UNL     1       1.771   5.857  17.482  0.00  0.00    +0.000 HD
ENDROOT
BRANCH   1   8
ATOM      3  C   UNL     1       5.705   4.759  18.335  0.00  0.00    +0.000 A 
ATOM      4  N   UNL     1       5.549   3.696  19.123  0.00  0.00    +0.000 NA
ATOM      5  C   UNL     1       4.307   3.490  19.584  0.00  0.00    +0.000 A 
ATOM      6 CL   UNL     1       4.211   2.099  20.596  0.00  0.00    +0.000 Cl
ATOM      7  C   UNL     1       3.223   4.283  19.293  0.00  0.00    +0.000 A 
ATOM      8  C   UNL     1       3.472   5.357  18.453  0.00  0.00    +0.000 A 
ATOM      9  N   UNL     1       4.714   5.599  17.984  0.00  0.00    +0.000 NA
BRANCH   3  11
ATOM     10  C   UNL     1       6.997   4.643  15.914  0.00  0.00    +0.000 C 
ATOM     11  S   UNL     1       7.312   5.065  17.650  0.00  0.00    +0.000 S 
ENDBRANCH   3  11
BRANCH   7  12
ATOM     12  C   UNL     1       1.929   4.013  19.823  0.00  0.00    +0.000 C 
ATOM     13  N   UNL     1       0.877   3.819  20.267  0.00  0.00    +0.000 NA
ENDBRANCH   7  12
ENDBRANCH   1   8
BRANCH   1  14
ATOM     14  C   UNL     1       2.798   7.611  17.775  0.00  0.00    +0.000 C 
BRANCH  14  15
ATOM     15  C   UNL     1       2.025   8.560  18.669  0.00  0.00    +0.000 A 
ATOM     16  C   UNL     1       1.610   9.811  18.177  0.00  0.00    +0.000 A 
ATOM     17  C   UNL     1       0.902  10.697  18.987  0.00  0.00    +0.000 A 
ATOM     18  C   UNL     1       0.590  10.326  20.296  0.00  0.00    +0.000 A 
ATOM     19  C   UNL     1       1.011   9.098  20.812  0.00  0.00    +0.000 A 
ATOM     20  C   UNL     1       1.725   8.217  19.997  0.00  0.00    +0.000 A 
BRANCH  18  21
ATOM     21  S   UNL     1      -0.375  11.415  21.297  0.00  0.00    +0.000 S 
ATOM     22  O   UNL     1       0.468  12.467  21.815  0.00  0.00    +0.000 OA
ATOM     23  O   UNL     1      -1.637  11.677  20.646  0.00  0.00    +0.000 OA
BRANCH  21  24
ATOM     24  N   UNL     1      -0.723  10.414  22.599  0.00  0.00    +0.000 NA
ATOM     25  H   UNL     1      -1.728  10.255  22.667  0.00  0.00    +0.000 HD
ATOM     26  H   UNL     1      -0.159   9.565  22.555  0.00  0.00    +0.000 HD
ENDBRANCH  21  24
ENDBRANCH  18  21
ENDBRANCH  14  15
ENDBRANCH   1  14
TORSDOF 7
ENDMDL
MODEL 8
REMARK VINA RESULT:      -6.6      2.194      3.478
REMARK  Name = 
REMARK  8 active torsions:
REMARK  status: ('A' for Active; 'I' for Inactive)
REMARK    1  A    between atoms: C_1  and  S_2
REMARK    2  A    between atoms: S_2  and  C_3
REMARK    3  A    between atoms: C_7  and  C_8
REMARK    4  A    between atoms: C_10  and  N_11
REMARK    5  A    between atoms: N_11  and  C_12
REMARK    6  A    between atoms: C_12  and  C_13
REMARK    7  A    between atoms: C_16  and  S_17
REMARK    8  A    between atoms: S_17  and  N_18
REMARK                            x       y       z     vdW  Elec       q    Type
REMARK                         _______ _______ _______ _____ _____    ______ ____
ROOT
ATOM      1  N   UNL     1       3.234   7.166  18.583  0.00  0.00    +0.000 N 
ATOM      2  H   UNL     1       3.070   7.240  19.585  0.00  0.00    +0.000 HD
ENDROOT
BRANCH   1   8
ATOM      3  C   UNL     1       2.592   3.667  18.053  0.00  0.00    +0.000 A 
ATOM      4  N   UNL     1       3.587   3.254  17.269  0.00  0.00    +0.000 NA
ATOM      5  C   UNL     1       4.487   4.187  16.929  0.00  0.00    +0.000 A 
ATOM      6 CL   UNL     1       5.726   3.556  15.912  0.00  0.00    +0.000 Cl
ATOM      7  C   UNL     1       4.445   5.499  17.336  0.00  0.00    +0.000 A 
ATOM      8  C   UNL     1       3.385   5.838  18.162  0.00  0.00    +0.000 A 
ATOM      9  N   UNL     1       2.455   4.926  18.511  0.00  0.00    +0.000 NA
BRANCH   3  11
ATOM     10  C   UNL     1       0.938   3.178  20.191  0.00  0.00    +0.000 C 
ATOM     11  S   UNL     1       1.391   2.473  18.581  0.00  0.00    +0.000 S 
ENDBRANCH   3  11
BRANCH   7  12
ATOM     12  C   UNL     1       5.430   6.444  16.931  0.00  0.00    +0.000 C 
ATOM     13  N   UNL     1       6.239   7.196  16.582  0.00  0.00    +0.000 NA
ENDBRANCH   7  12
ENDBRANCH   1   8
BRANCH   1  14
ATOM     14  C   UNL     1       2.310   8.015  17.841  0.00  0.00    +0.000 C 
BRANCH  14  15
ATOM     15  C   UNL     1       1.572   8.887  18.837  0.00  0.00    +0.000 A 
ATOM     16  C   UNL     1       1.430   8.465  20.172  0.00  0.00    +0.000 A 
ATOM     17  C   UNL     1       0.750   9.253  21.100  0.00  0.00    +0.000 A 
ATOM     18  C   UNL     1       0.222  10.480  20.698  0.00  0.00    +0.000 A 
ATOM     19  C   UNL     1       0.332  10.908  19.373  0.00  0.00    +0.000 A 
ATOM     20  C   UNL     1       1.009  10.112  18.447  0.00  0.00    +0.000 A 
BRANCH  18  21
ATOM     21  S   UNL     1      -0.570  11.514  21.892  0.00  0.00    +0.000 S 
ATOM     22  O   UNL     1      -1.862  11.923  21.393  0.00  0.00    +0.000 OA
ATOM     23  O   UNL     1      -0.386  10.955  23.210  0.00  0.00    +0.000 OA
BRANCH  21  24
ATOM     24  N   UNL     1       0.409  12.875  21.822  0.00  0.00    +0.000 NA
ATOM     25  H   UNL     1       1.321  12.679  22.235  0.00  0.00    +0.000 HD
ATOM     26  H   UNL     1       0.442  13.241  20.871  0.00  0.00    +0.000 HD
ENDBRANCH  21  24
ENDBRANCH  18  21
ENDBRANCH  14  15
ENDBRANCH   1  14
TORSDOF 7
ENDMDL
MODEL 9
REMARK VINA RESULT:      -6.6      1.819      1.911
REMARK  Name = 
REMARK  8 active torsions:
REMARK  status: ('A' for Active; 'I' for Inactive)
REMARK    1  A    between atoms: C_1  and  S_2
REMARK    2  A    between atoms: S_2  and  C_3
REMARK    3  A    between atoms: C_7  and  C_8
REMARK    4  A    between atoms: C_10  and  N_11
REMARK    5  A    between atoms: N_11  and  C_12
REMARK    6  A    between atoms: C_12  and  C_13
REMARK    7  A    between atoms: C_16  and  S_17
REMARK    8  A    between atoms: S_17  and  N_18
REMARK                            x       y       z     vdW  Elec       q    Type
REMARK                         _______ _______ _______ _____ _____    ______ ____
ROOT
ATOM      1  N   UNL     1       3.120   6.932  18.665  0.00  0.00    +0.000 N 
ATOM      2  H   UNL     1       2.655   6.693  19.538  0.00  0.00    +0.000 HD
ENDROOT
BRANCH   1   8
ATOM      3  C   UNL     1       5.221   4.856  16.614  0.00  0.00    +0.000 A 
ATOM      4  N   UNL     1       4.761   3.619  16.797  0.00  0.00    +0.000 NA
ATOM      5  C   UNL     1       3.715   3.504  17.628  0.00  0.00    +0.000 A 
ATOM      6 CL   UNL     1       3.199   1.869  17.804  0.00  0.00    +0.000 Cl
ATOM      7  C   UNL     1       3.109   4.555  18.272  0.00  0.00    +0.000 A 
ATOM      8  C   UNL     1       3.642   5.808  18.011  0.00  0.00    +0.000 A 
ATOM      9  N   UNL     1       4.703   5.955  17.191  0.00  0.00    +0.000 NA
BRANCH   3  11
ATOM     10  C   UNL     1       6.095   3.923  14.182  0.00  0.00    +0.000 C 
ATOM     11  S   UNL     1       6.574   5.086  15.490  0.00  0.00    +0.000 S 
ENDBRANCH   3  11
BRANCH   7  12
ATOM     12  C   UNL     1       2.004   4.365  19.150  0.00  0.00    +0.000 C 
ATOM     13  N   UNL     1       1.107   4.237  19.871  0.00  0.00    +0.000 NA
ENDBRANCH   7  12
ENDBRANCH   1   8
BRANCH   1  14
ATOM     14  C   UNL     1       2.314   7.862  17.884  0.00  0.00    +0.000 C 
BRANCH  14  15
ATOM     15  C   UNL     1       1.655   8.832  18.845  0.00  0.00    +0.000 A 
ATOM     16  C   UNL     1       1.246  10.100  18.394  0.00  0.00    +0.000 A 
ATOM     17  C   UNL     1       0.642  11.006  19.265  0.00  0.00    +0.000 A 
ATOM     18  C   UNL     1       0.429  10.638  20.594  0.00  0.00    +0.000 A 
ATOM     19  C   UNL     1       0.848   9.392  21.068  0.00  0.00    +0.000 A 
ATOM     20  C   UNL     1       1.457   8.491  20.192  0.00  0.00    +0.000 A 
BRANCH  18  21
ATOM     21  S   UNL     1      -0.406  11.754  21.678  0.00  0.00    +0.000 S 
ATOM     22  O   UNL     1       0.439  12.896  21.937  0.00  0.00    +0.000 OA
ATOM     23  O   UNL     1      -1.784  11.882  21.268  0.00  0.00    +0.000 OA
BRANCH  21  24
ATOM     24  N   UNL     1      -0.423  10.856  23.096  0.00  0.00    +0.000 NA
ATOM     25  H   UNL     1       0.167  10.030  23.001  0.00  0.00    +0.000 HD
ATOM     26  H   UNL     1      -0.201  11.449  23.895  0.00  0.00    +0.000 HD
ENDBRANCH  21  24
ENDBRANCH  18  21
ENDBRANCH  14  15
ENDBRANCH   1  14
TORSDOF 7
ENDMDL
