MODEL 1
REMARK VINA RESULT:      -6.6      0.000      0.000
REMARK  Name = 
REMARK  8 active torsions:
REMARK  status: ('A' for Active; 'I' for Inactive)
REMARK    1  A    between atoms: C_1  and  N_2
REMARK    2  A    between atoms: N_2  and  C_14
REMARK    3  A    between atoms: C_3  and  C_5
REMARK    4  A    between atoms: C_5  and  N_6
REMARK    5  A    between atoms: N_6  and  C_7
REMARK    6  A    between atoms: C_7  and  C_8
REMARK    7  A    between atoms: C_8  and  N_9
REMARK    8  A    between atoms: C_14  and  C_15
REMARK                            x       y       z     vdW  Elec       q    Type
REMARK                         _______ _______ _______ _____ _____    ______ ____
ROOT
ATOM      1  C   UNL     1       4.003   4.371  16.730  0.00  0.00    +0.000 C 
ATOM      2  N   UNL     1       4.355   4.452  18.149  0.00  0.00    +0.000 N 
ATOM      3  C   UNL     1       5.404   5.234  18.635  0.00  0.00    +0.000 C 
ATOM      4  O   UNL     1       5.589   5.408  19.846  0.00  0.00    +0.000 OA
ENDROOT
BRANCH   2   5
ATOM      5  C   UNL     1       3.520   3.649  19.132  0.00  0.00    +0.000 C 
ATOM      6  C   UNL     1       2.918   4.592  20.215  0.00  0.00    +0.000 C 
ATOM      7  C   UNL     1       1.880   3.918  21.113  0.00  0.00    +0.000 C 
ATOM      8  C   UNL     1       0.788   3.246  20.290  0.00  0.00    +0.000 C 
ATOM      9  C   UNL     1       1.372   2.222  19.326  0.00  0.00    +0.000 C 
ATOM     10  C   UNL     1       2.406   2.852  18.386  0.00  0.00    +0.000 C 
BRANCH   5  11
ATOM     11  C   UNL     1       4.355   2.638  19.875  0.00  0.00    +0.000 C 
ATOM     12  N   UNL     1       5.023   1.870  20.436  0.00  0.00    +0.000 NA
ENDBRANCH   5  11
ENDBRANCH   2   5
BRANCH   3  13
ATOM     13  C   UNL     1       6.399   5.896  17.668  0.00  0.00    +0.000 C 
BRANCH  13  14
ATOM     14  N   UNL     1       7.506   4.954  17.422  0.00  0.00    +0.000 NA
ATOM     15  H   UNL     1       7.470   4.257  18.174  0.00  0.00    +0.000 HD
BRANCH  14  16
ATOM     16  C   UNL     1       7.373   4.270  16.127  0.00  0.00    +0.000 C 
BRANCH  16  17
ATOM     17  C   UNL     1       7.188   5.251  14.969  0.00  0.00    +0.000 C 
BRANCH  17  18
ATOM     18  N   UNL     1       6.825   4.573  13.742  0.00  0.00    +0.000 N 
ATOM     19  C   UNL     1       5.781   3.715  13.560  0.00  0.00    +0.000 A 
ATOM     20  C   UNL     1       5.867   3.291  12.255  0.00  0.00    +0.000 A 
ATOM     21  C   UNL     1       6.999   3.949  11.739  0.00  0.00    +0.000 A 
ATOM     22  N   UNL     1       7.584   4.738  12.642  0.00  0.00    +0.000 NA
ENDBRANCH  17  18
ENDBRANCH  16  17
ENDBRANCH  14  16
ENDBRANCH  13  14
ENDBRANCH   3  13
TORSDOF 7
ENDMDL
MODEL 2
REMARK VINA RESULT:      -6.6      1.412      2.143
REMARK  Name = 
REMARK  8 active torsions:
REMARK  status: ('A' for Active; 'I' for Inactive)
REMARK    1  A    between atoms: C_1  and  N_2
REMARK    2  A    between atoms: N_2  and  C_14
REMARK    3  A    between atoms: C_3  and  C_5
REMARK    4  A    between atoms: C_5  and  N_6
REMARK    5  A    between atoms: N_6  and  C_7
REMARK    6  A    between atoms: C_7  and  C_8
REMARK    7  A    between atoms: C_8  and  N_9
REMARK    8  A    between atoms: C_14  and  C_15
REMARK                            x       y       z     vdW  Elec       q    Type
REMARK                         _______ _______ _______ _____ _____    ______ ____
ROOT
ATOM      1  C   UNL     1       3.651   6.659  17.707  0.00  0.00    +0.000 C 
ATOM      2  N   UNL     1       4.153   5.544  18.513  0.00  0.00    +0.000 N 
ATOM      3  C   UNL     1       5.506   5.355  18.804  0.00  0.00    +0.000 C 
ATOM      4  O   UNL     1       5.893   4.499  19.609  0.00  0.00    +0.000 OA
ENDROOT
BRANCH   2   5
ATOM      5  C   UNL     1       3.138   4.558  19.067  0.00  0.00    +0.000 C 
ATOM      6  C   UNL     1       3.805   3.167  19.278  0.00  0.00    +0.000 C 
ATOM      7  C   UNL     1       2.931   2.173  20.042  0.00  0.00    +0.000 C 
ATOM      8  C   UNL     1       2.444   2.762  21.360  0.00  0.00    +0.000 C 
ATOM      9  C   UNL     1       1.670   4.055  21.135  0.00  0.00    +0.000 C 
ATOM     10  C   UNL     1       2.511   5.096  20.389  0.00  0.00    +0.000 C 
BRANCH   5  11
ATOM     11  C   UNL     1       2.000   4.334  18.105  0.00  0.00    +0.000 C 
ATOM     12  N   UNL     1       1.121   4.190  17.357  0.00  0.00    +0.000 NA
ENDBRANCH   5  11
ENDBRANCH   2   5
BRANCH   3  13
ATOM     13  C   UNL     1       6.580   6.200  18.102  0.00  0.00    +0.000 C 
BRANCH  13  14
ATOM     14  N   UNL     1       7.615   5.293  17.574  0.00  0.00    +0.000 NA
ATOM     15  H   UNL     1       7.895   4.683  18.351  0.00  0.00    +0.000 HD
BRANCH  14  16
ATOM     16  C   UNL     1       7.112   4.461  16.471  0.00  0.00    +0.000 C 
BRANCH  16  17
ATOM     17  C   UNL     1       6.446   5.293  15.374  0.00  0.00    +0.000 C 
BRANCH  17  18
ATOM     18  N   UNL     1       6.547   4.656  14.078  0.00  0.00    +0.000 N 
ATOM     19  C   UNL     1       7.480   4.905  13.116  0.00  0.00    +0.000 A 
ATOM     20  C   UNL     1       7.145   4.101  12.052  0.00  0.00    +0.000 A 
ATOM     21  C   UNL     1       5.993   3.411  12.473  0.00  0.00    +0.000 A 
ATOM     22  N   UNL     1       5.627   3.743  13.713  0.00  0.00    +0.000 NA
ENDBRANCH  17  18
ENDBRANCH  16  17
ENDBRANCH  14  16
ENDBRANCH  13  14
ENDBRANCH   3  13
TORSDOF 7
ENDMDL
MODEL 3
REMARK VINA RESULT:      -6.5      5.700      7.519
REMARK  Name = 
REMARK  8 active torsions:
REMARK  status: ('A' for Active; 'I' for Inactive)
REMARK    1  A    between atoms: C_1  and  N_2
REMARK    2  A    between atoms: N_2  and  C_14
REMARK    3  A    between atoms: C_3  and  C_5
REMARK    4  A    between atoms: C_5  and  N_6
REMARK    5  A    between atoms: N_6  and  C_7
REMARK    6  A    between atoms: C_7  and  C_8
REMARK    7  A    between atoms: C_8  and  N_9
REMARK    8  A    between atoms: C_14  and  C_15
REMARK                            x       y       z     vdW  Elec       q    Type
REMARK                         _______ _______ _______ _____ _____    ______ ____
ROOT
ATOM      1  C   UNL     1       1.573   8.027  20.554  0.00  0.00    +0.000 C 
ATOM      2  N   UNL     1       2.190   7.415  19.375  0.00  0.00    +0.000 N 
ATOM      3  C   UNL     1       2.587   8.143  18.251  0.00  0.00    +0.000 C 
ATOM      4  O   UNL     1       3.242   7.633  17.334  0.00  0.00    +0.000 OA
ENDROOT
BRANCH   2   5
ATOM      5  C   UNL     1       2.416   5.912  19.395  0.00  0.00    +0.000 C 
ATOM      6  C   UNL     1       1.732   5.287  20.647  0.00  0.00    +0.000 C 
ATOM      7  C   UNL     1       1.707   3.759  20.638  0.00  0.00    +0.000 C 
ATOM      8  C   UNL     1       1.103   3.222  19.346  0.00  0.00    +0.000 C 
ATOM      9  C   UNL     1       1.864   3.728  18.127  0.00  0.00    +0.000 C 
ATOM     10  C   UNL     1       1.900   5.259  18.077  0.00  0.00    +0.000 C 
BRANCH   5  11
ATOM     11  C   UNL     1       3.880   5.572  19.506  0.00  0.00    +0.000 C 
ATOM     12  N   UNL     1       5.014   5.324  19.566  0.00  0.00    +0.000 NA
ENDBRANCH   5  11
ENDBRANCH   2   5
BRANCH   3  13
ATOM     13  C   UNL     1       2.195   9.621  18.100  0.00  0.00    +0.000 C 
BRANCH  13  14
ATOM     14  N   UNL     1       0.780   9.688  17.692  0.00  0.00    +0.000 NA
ATOM     15  H   UNL     1       0.369   8.772  17.906  0.00  0.00    +0.000 HD
BRANCH  14  16
ATOM     16  C   UNL     1       0.041  10.727  18.424  0.00  0.00    +0.000 C 
BRANCH  16  17
ATOM     17  C   UNL     1      -1.400  10.313  18.722  0.00  0.00    +0.000 C 
BRANCH  17  18
ATOM     18  N   UNL     1      -2.264  10.502  17.575  0.00  0.00    +0.000 N 
ATOM     19  C   UNL     1      -3.289  11.395  17.463  0.00  0.00    +0.000 A 
ATOM     20  C   UNL     1      -3.843  11.175  16.224  0.00  0.00    +0.000 A 
ATOM     21  C   UNL     1      -3.083  10.127  15.672  0.00  0.00    +0.000 A 
ATOM     22  N   UNL     1      -2.113   9.717  16.492  0.00  0.00    +0.000 NA
ENDBRANCH  17  18
ENDBRANCH  16  17
ENDBRANCH  14  16
ENDBRANCH  13  14
ENDBRANCH   3  13
TORSDOF 7
ENDMDL
MODEL 4
REMARK VINA RESULT:      -6.5      1.183      1.386
REMARK  Name = 
REMARK  8 active torsions:
REMARK  status: ('A' for Active; 'I' for Inactive)
REMARK    1  A    between atoms: C_1  and  N_2
REMARK    2  A    between atoms: N_2  and  C_14
REMARK    3  A    between atoms: C_3  and  C_5
REMARK    4  A    between atoms: C_5  and  N_6
REMARK    5  A    between atoms: N_6  and  C_7
REMARK    6  A    between atoms: C_7  and  C_8
REMARK    7  A    between atoms: C_8  and  N_9
REMARK    8  A    between atoms: C_14  and  C_15
REMARK                            x       y       z     vdW  Elec       q    Type
REMARK                         _______ _______ _______ _____ _____    ______ ____
ROOT
ATOM      1  C   UNL     1       3.380   6.117  17.872  0.00  0.00    +0.000 C 
ATOM      2  N   UNL     1       3.991   4.928  18.472  0.00  0.00    +0.000 N 
ATOM      3  C   UNL     1       5.367   4.785  18.659  0.00  0.00    +0.000 C 
ATOM      4  O   UNL     1       5.849   3.845  19.303  0.00  0.00    +0.000 OA
ENDROOT
BRANCH   2   5
ATOM      5  C   UNL     1       3.066   3.810  18.923  0.00  0.00    +0.000 C 
ATOM      6  C   UNL     1       3.093   3.689  20.475  0.00  0.00    +0.000 C 
ATOM      7  C   UNL     1       2.029   2.748  21.040  0.00  0.00    +0.000 C 
ATOM      8  C   UNL     1       0.639   3.117  20.535  0.00  0.00    +0.000 C 
ATOM      9  C   UNL     1       0.582   3.099  19.012  0.00  0.00    +0.000 C 
ATOM     10  C   UNL     1       1.618   4.044  18.394  0.00  0.00    +0.000 C 
BRANCH   5  11
ATOM     11  C   UNL     1       3.513   2.472  18.392  0.00  0.00    +0.000 C 
ATOM     12  N   UNL     1       3.850   1.428  18.008  0.00  0.00    +0.000 NA
ENDBRANCH   5  11
ENDBRANCH   2   5
BRANCH   3  13
ATOM     13  C   UNL     1       6.348   5.790  18.037  0.00  0.00    +0.000 C 
BRANCH  13  14
ATOM     14  N   UNL     1       7.595   5.079  17.703  0.00  0.00    +0.000 NA
ATOM     15  H   UNL     1       7.721   4.356  18.421  0.00  0.00    +0.000 HD
BRANCH  14  16
ATOM     16  C   UNL     1       7.531   4.437  16.383  0.00  0.00    +0.000 C 
BRANCH  16  17
ATOM     17  C   UNL     1       6.737   5.266  15.373  0.00  0.00    +0.000 C 
BRANCH  17  18
ATOM     18  N   UNL     1       6.757   4.672  14.053  0.00  0.00    +0.000 N 
ATOM     19  C   UNL     1       7.573   5.014  13.015  0.00  0.00    +0.000 A 
ATOM     20  C   UNL     1       7.194   4.215  11.962  0.00  0.00    +0.000 A 
ATOM     21  C   UNL     1       6.140   3.432  12.467  0.00  0.00    +0.000 A 
ATOM     22  N   UNL     1       5.873   3.704  13.746  0.00  0.00    +0.000 NA
ENDBRANCH  17  18
ENDBRANCH  16  17
ENDBRANCH  14  16
ENDBRANCH  13  14
ENDBRANCH   3  13
TORSDOF 7
ENDMDL
MODEL 5
REMARK VINA RESULT:      -6.5      3.410      5.168
REMARK  Name = 
REMARK  8 active torsions:
REMARK  status: ('A' for Active; 'I' for Inactive)
REMARK    1  A    between atoms: C_1  and  N_2
REMARK    2  A    between atoms: N_2  and  C_14
REMARK    3  A    between atoms: C_3  and  C_5
REMARK    4  A    between atoms: C_5  and  N_6
REMARK    5  A    between atoms: N_6  and  C_7
REMARK    6  A    between atoms: C_7  and  C_8
REMARK    7  A    between atoms: C_8  and  N_9
REMARK    8  A    between atoms: C_14  and  C_15
REMARK                            x       y       z     vdW  Elec       q    Type
REMARK                         _______ _______ _______ _____ _____    ______ ____
ROOT
ATOM      1  C   UNL     1       5.603   4.057  16.414  0.00  0.00    +0.000 C 
ATOM      2  N   UNL     1       5.400   4.308  17.843  0.00  0.00    +0.000 N 
ATOM      3  C   UNL     1       6.263   5.088  18.615  0.00  0.00    +0.000 C 
ATOM      4  O   UNL     1       5.995   5.413  19.778  0.00  0.00    +0.000 OA
ENDROOT
BRANCH   2   5
ATOM      5  C   UNL     1       4.176   3.694  18.502  0.00  0.00    +0.000 C 
ATOM      6  C   UNL     1       3.300   4.810  19.144  0.00  0.00    +0.000 C 
ATOM      7  C   UNL     1       1.936   4.321  19.631  0.00  0.00    +0.000 C 
ATOM      8  C   UNL     1       1.184   3.588  18.528  0.00  0.00    +0.000 C 
ATOM      9  C   UNL     1       1.990   2.410  17.997  0.00  0.00    +0.000 C 
ATOM     10  C   UNL     1       3.361   2.850  17.475  0.00  0.00    +0.000 C 
BRANCH   5  11
ATOM     11  C   UNL     1       4.557   2.765  19.625  0.00  0.00    +0.000 C 
ATOM     12  N   UNL     1       4.877   2.063  20.495  0.00  0.00    +0.000 NA
ENDBRANCH   5  11
ENDBRANCH   2   5
BRANCH   3  13
ATOM     13  C   UNL     1       7.612   5.555  18.046  0.00  0.00    +0.000 C 
BRANCH  13  14
ATOM     14  N   UNL     1       7.446   6.919  17.513  0.00  0.00    +0.000 NA
ATOM     15  H   UNL     1       6.444   7.136  17.569  0.00  0.00    +0.000 HD
BRANCH  14  16
ATOM     16  C   UNL     1       8.196   7.914  18.292  0.00  0.00    +0.000 C 
BRANCH  16  17
ATOM     17  C   UNL     1       8.056   9.325  17.720  0.00  0.00    +0.000 C 
BRANCH  17  18
ATOM     18  N   UNL     1       8.927  10.268  18.390  0.00  0.00    +0.000 N 
ATOM     19  C   UNL     1       9.475  11.397  17.857  0.00  0.00    +0.000 A 
ATOM     20  C   UNL     1      10.261  11.937  18.847  0.00  0.00    +0.000 A 
ATOM     21  C   UNL     1      10.120  11.056  19.936  0.00  0.00    +0.000 A 
ATOM     22  N   UNL     1       9.301  10.038  19.663  0.00  0.00    +0.000 NA
ENDBRANCH  17  18
ENDBRANCH  16  17
ENDBRANCH  14  16
ENDBRANCH  13  14
ENDBRANCH   3  13
TORSDOF 7
ENDMDL
MODEL 6
REMARK VINA RESULT:      -6.4      2.087      6.264
REMARK  Name = 
REMARK  8 active torsions:
REMARK  status: ('A' for Active; 'I' for Inactive)
REMARK    1  A    between atoms: C_1  and  N_2
REMARK    2  A    between atoms: N_2  and  C_14
REMARK    3  A    between atoms: C_3  and  C_5
REMARK    4  A    between atoms: C_5  and  N_6
REMARK    5  A    between atoms: N_6  and  C_7
REMARK    6  A    between atoms: C_7  and  C_8
REMARK    7  A    between atoms: C_8  and  N_9
REMARK    8  A    between atoms: C_14  and  C_15
REMARK                            x       y       z     vdW  Elec       q    Type
REMARK                         _______ _______ _______ _____ _____    ______ ____
ROOT
ATOM      1  C   UNL     1       4.031   4.288  16.478  0.00  0.00    +0.000 C 
ATOM      2  N   UNL     1       4.550   5.121  17.566  0.00  0.00    +0.000 N 
ATOM      3  C   UNL     1       3.777   5.533  18.653  0.00  0.00    +0.000 C 
ATOM      4  O   UNL     1       4.270   6.104  19.632  0.00  0.00    +0.000 OA
ENDROOT
BRANCH   2   5
ATOM      5  C   UNL     1       6.010   5.539  17.501  0.00  0.00    +0.000 C 
ATOM      6  C   UNL     1       6.114   7.073  17.253  0.00  0.00    +0.000 C 
ATOM      7  C   UNL     1       7.531   7.627  17.399  0.00  0.00    +0.000 C 
ATOM      8  C   UNL     1       8.143   7.237  18.739  0.00  0.00    +0.000 C 
ATOM      9  C   UNL     1       8.165   5.724  18.917  0.00  0.00    +0.000 C 
ATOM     10  C   UNL     1       6.762   5.119  18.801  0.00  0.00    +0.000 C 
BRANCH   5  11
ATOM     11  C   UNL     1       6.726   4.881  16.351  0.00  0.00    +0.000 C 
ATOM     12  N   UNL     1       7.301   4.366  15.482  0.00  0.00    +0.000 NA
ENDBRANCH   5  11
ENDBRANCH   2   5
BRANCH   3  13
ATOM     13  C   UNL     1       2.256   5.309  18.658  0.00  0.00    +0.000 C 
BRANCH  13  14
ATOM     14  N   UNL     1       1.803   5.220  20.058  0.00  0.00    +0.000 NA
ATOM     15  H   UNL     1       1.431   6.144  20.306  0.00  0.00    +0.000 HD
BRANCH  14  16
ATOM     16  C   UNL     1       0.746   4.214  20.235  0.00  0.00    +0.000 C 
BRANCH  16  17
ATOM     17  C   UNL     1       1.281   2.907  20.820  0.00  0.00    +0.000 C 
BRANCH  17  18
ATOM     18  N   UNL     1       2.424   2.413  20.081  0.00  0.00    +0.000 N 
ATOM     19  C   UNL     1       2.403   1.739  18.896  0.00  0.00    +0.000 A 
ATOM     20  C   UNL     1       3.713   1.437  18.612  0.00  0.00    +0.000 A 
ATOM     21  C   UNL     1       4.445   1.970  19.689  0.00  0.00    +0.000 A 
ATOM     22  N   UNL     1       3.662   2.573  20.587  0.00  0.00    +0.000 NA
ENDBRANCH  17  18
ENDBRANCH  16  17
ENDBRANCH  14  16
ENDBRANCH  13  14
ENDBRANCH   3  13
TORSDOF 7
ENDMDL
MODEL 7
REMARK VINA RESULT:      -6.4      1.383      2.171
REMARK  Name = 
REMARK  8 active torsions:
REMARK  status: ('A' for Active; 'I' for Inactive)
REMARK    1  A    between atoms: C_1  and  N_2
REMARK    2  A    between atoms: N_2  and  C_14
REMARK    3  A    between atoms: C_3  and  C_5
REMARK    4  A    between atoms: C_5  and  N_6
REMARK    5  A    between atoms: N_6  and  C_7
REMARK    6  A    between atoms: C_7  and  C_8
REMARK    7  A    between atoms: C_8  and  N_9
REMARK    8  A    between atoms: C_14  and  C_15
REMARK                            x       y       z     vdW  Elec       q    Type
REMARK                         _______ _______ _______ _____ _____    ______ ____
ROOT
ATOM      1  C   UNL     1       3.988   6.212  17.794  0.00  0.00    +0.000 C 
ATOM      2  N   UNL     1       4.135   4.997  18.599  0.00  0.00    +0.000 N 
ATOM      3  C   UNL     1       5.366   4.527  19.060  0.00  0.00    +0.000 C 
ATOM      4  O   UNL     1       5.453   3.589  19.862  0.00  0.00    +0.000 OA
ENDROOT
BRANCH   2   5
ATOM      5  C   UNL     1       2.874   4.228  18.954  0.00  0.00    +0.000 C 
ATOM      6  C   UNL     1       3.184   2.704  19.038  0.00  0.00    +0.000 C 
ATOM      7  C   UNL     1       2.038   1.871  19.610  0.00  0.00    +0.000 C 
ATOM      8  C   UNL     1       1.572   2.418  20.954  0.00  0.00    +0.000 C 
ATOM      9  C   UNL     1       1.138   3.874  20.837  0.00  0.00    +0.000 C 
ATOM     10  C   UNL     1       2.261   4.759  20.287  0.00  0.00    +0.000 C 
BRANCH   5  11
ATOM     11  C   UNL     1       1.813   4.381  17.895  0.00  0.00    +0.000 C 
ATOM     12  N   UNL     1       0.976   4.509  17.099  0.00  0.00    +0.000 NA
ENDBRANCH   5  11
ENDBRANCH   2   5
BRANCH   3  13
ATOM     13  C   UNL     1       6.678   5.150  18.558  0.00  0.00    +0.000 C 
BRANCH  13  14
ATOM     14  N   UNL     1       7.114   4.414  17.358  0.00  0.00    +0.000 NA
ATOM     15  H   UNL     1       6.803   3.444  17.480  0.00  0.00    +0.000 HD
BRANCH  14  16
ATOM     16  C   UNL     1       6.519   4.957  16.129  0.00  0.00    +0.000 C 
BRANCH  16  17
ATOM     17  C   UNL     1       6.297   3.880  15.066  0.00  0.00    +0.000 C 
BRANCH  17  18
ATOM     18  N   UNL     1       6.796   4.290  13.771  0.00  0.00    +0.000 N 
ATOM     19  C   UNL     1       6.487   3.736  12.563  0.00  0.00    +0.000 A 
ATOM     20  C   UNL     1       7.233   4.422  11.634  0.00  0.00    +0.000 A 
ATOM     21  C   UNL     1       7.960   5.365  12.384  0.00  0.00    +0.000 A 
ATOM     22  N   UNL     1       7.692   5.292  13.689  0.00  0.00    +0.000 NA
ENDBRANCH  17  18
ENDBRANCH  16  17
ENDBRANCH  14  16
ENDBRANCH  13  14
ENDBRANCH   3  13
TORSDOF 7
ENDMDL
MODEL 8
REMARK VINA RESULT:      -6.3      1.612      2.006
REMARK  Name = 
REMARK  8 active torsions:
REMARK  status: ('A' for Active; 'I' for Inactive)
REMARK    1  A    between atoms: C_1  and  N_2
REMARK    2  A    between atoms: N_2  and  C_14
REMARK    3  A    between atoms: C_3  and  C_5
REMARK    4  A    between atoms: C_5  and  N_6
REMARK    5  A    between atoms: N_6  and  C_7
REMARK    6  A    between atoms: C_7  and  C_8
REMARK    7  A    between atoms: C_8  and  N_9
REMARK    8  A    between atoms: C_14  and  C_15
REMARK                            x       y       z     vdW  Elec       q    Type
REMARK                         _______ _______ _______ _____ _____    ______ ____
ROOT
ATOM      1  C   UNL     1       3.978   6.246  18.097  0.00  0.00    +0.000 C 
ATOM      2  N   UNL     1       4.018   4.799  17.871  0.00  0.00    +0.000 N 
ATOM      3  C   UNL     1       4.738   4.204  16.833  0.00  0.00    +0.000 C 
ATOM      4  O   UNL     1       4.882   2.979  16.751  0.00  0.00    +0.000 OA
ENDROOT
BRANCH   2   5
ATOM      5  C   UNL     1       3.243   3.913  18.831  0.00  0.00    +0.000 C 
ATOM      6  C   UNL     1       2.565   4.782  19.931  0.00  0.00    +0.000 C 
ATOM      7  C   UNL     1       1.579   4.010  20.808  0.00  0.00    +0.000 C 
ATOM      8  C   UNL     1       0.545   3.275  19.964  0.00  0.00    +0.000 C 
ATOM      9  C   UNL     1       1.211   2.320  18.981  0.00  0.00    +0.000 C 
ATOM     10  C   UNL     1       2.196   3.049  18.062  0.00  0.00    +0.000 C 
BRANCH   5  11
ATOM     11  C   UNL     1       4.150   2.953  19.557  0.00  0.00    +0.000 C 
ATOM     12  N   UNL     1       4.849   2.231  20.141  0.00  0.00    +0.000 NA
ENDBRANCH   5  11
ENDBRANCH   2   5
BRANCH   3  13
ATOM     13  C   UNL     1       5.364   5.064  15.724  0.00  0.00    +0.000 C 
BRANCH  13  14
ATOM     14  N   UNL     1       5.975   4.167  14.727  0.00  0.00    +0.000 NA
ATOM     15  H   UNL     1       5.282   4.043  13.980  0.00  0.00    +0.000 HD
BRANCH  14  16
ATOM     16  C   UNL     1       7.204   4.732  14.153  0.00  0.00    +0.000 C 
BRANCH  16  17
ATOM     17  C   UNL     1       7.169   4.764  12.625  0.00  0.00    +0.000 C 
BRANCH  17  18
ATOM     18  N   UNL     1       6.666   3.525  12.071  0.00  0.00    +0.000 N 
ATOM     19  C   UNL     1       7.404   2.510  11.535  0.00  0.00    +0.000 A 
ATOM     20  C   UNL     1       6.496   1.575  11.100  0.00  0.00    +0.000 A 
ATOM     21  C   UNL     1       5.239   2.122  11.417  0.00  0.00    +0.000 A 
ATOM     22  N   UNL     1       5.338   3.311  12.015  0.00  0.00    +0.000 NA
ENDBRANCH  17  18
ENDBRANCH  16  17
ENDBRANCH  14  16
ENDBRANCH  13  14
ENDBRANCH   3  13
TORSDOF 7
ENDMDL
MODEL 9
REMARK VINA RESULT:      -6.3      2.488      6.104
REMARK  Name = 
REMARK  8 active torsions:
REMARK  status: ('A' for Active; 'I' for Inactive)
REMARK    1  A    between atoms: C_1  and  N_2
REMARK    2  A    between atoms: N_2  and  C_14
REMARK    3  A    between atoms: C_3  and  C_5
REMARK    4  A    between atoms: C_5  and  N_6
REMARK    5  A    between atoms: N_6  and  C_7
REMARK    6  A    between atoms: C_7  and  C_8
REMARK    7  A    between atoms: C_8  and  N_9
REMARK    8  A    between atoms: C_14  and  C_15
REMARK                            x       y       z     vdW  Elec       q    Type
REMARK                         _______ _______ _______ _____ _____    ______ ____
ROOT
ATOM      1  C   UNL     1       5.113   4.901  19.676  0.00  0.00    +0.000 C 
ATOM      2  N   UNL     1       4.761   5.768  18.548  0.00  0.00    +0.000 N 
ATOM      3  C   UNL     1       3.657   6.622  18.552  0.00  0.00    +0.000 C 
ATOM      4  O   UNL     1       3.465   7.453  17.657  0.00  0.00    +0.000 OA
ENDROOT
BRANCH   2   5
ATOM      5  C   UNL     1       5.661   5.735  17.324  0.00  0.00    +0.000 C 
ATOM      6  C   UNL     1       6.617   4.508  17.398  0.00  0.00    +0.000 C 
ATOM      7  C   UNL     1       7.402   4.258  16.110  0.00  0.00    +0.000 C 
ATOM      8  C   UNL     1       6.475   4.170  14.905  0.00  0.00    +0.000 C 
ATOM      9  C   UNL     1       5.638   5.434  14.757  0.00  0.00    +0.000 C 
ATOM     10  C   UNL     1       4.813   5.719  16.016  0.00  0.00    +0.000 C 
BRANCH   5  11
ATOM     11  C   UNL     1       6.548   6.952  17.254  0.00  0.00    +0.000 C 
ATOM     12  N   UNL     1       7.211   7.904  17.183  0.00  0.00    +0.000 NA
ENDBRANCH   5  11
ENDBRANCH   2   5
BRANCH   3  13
ATOM     13  C   UNL     1       2.610   6.539  19.674  0.00  0.00    +0.000 C 
BRANCH  13  14
ATOM     14  N   UNL     1       1.695   5.422  19.376  0.00  0.00    +0.000 NA
ATOM     15  H   UNL     1       2.198   4.792  18.740  0.00  0.00    +0.000 HD
BRANCH  14  16
ATOM     16  C   UNL     1       1.316   4.678  20.586  0.00  0.00    +0.000 C 
BRANCH  16  17
ATOM     17  C   UNL     1       1.052   3.199  20.299  0.00  0.00    +0.000 C 
BRANCH  17  18
ATOM     18  N   UNL     1       1.926   2.687  19.265  0.00  0.00    +0.000 N 
ATOM     19  C   UNL     1       3.106   2.028  19.444  0.00  0.00    +0.000 A 
ATOM     20  C   UNL     1       3.594   1.783  18.182  0.00  0.00    +0.000 A 
ATOM     21  C   UNL     1       2.636   2.338  17.313  0.00  0.00    +0.000 A 
ATOM     22  N   UNL     1       1.612   2.887  17.971  0.00  0.00    +0.000 NA
ENDBRANCH  17  18
ENDBRANCH  16  17
ENDBRANCH  14  16
ENDBRANCH  13  14
ENDBRANCH   3  13
TORSDOF 7
ENDMDL
