MODEL 1
REMARK VINA RESULT:      -7.5      0.000      0.000
REMARK  Name = 
REMARK  14 active torsions:
REMARK  status: ('A' for Active; 'I' for Inactive)
REMARK    1  A    between atoms: C_1  and  C_2
REMARK    2  A    between atoms: C_2  and  O_4
REMARK    3  A    between atoms: O_4  and  C_5
REMARK    4  A    between atoms: C_6  and  C_7
REMARK    5  A    between atoms: N_8  and  N_9
REMARK    6  A    between atoms: C_10  and  C_12
REMARK    7  A    between atoms: C_19  and  C_20
REMARK    8  A    between atoms: C_20  and  C_21
REMARK    9  A    between atoms: C_20  and  C_22
REMARK   10  A    between atoms: C_20  and  C_23
REMARK   11  A    between atoms: C_25  and  C_26
REMARK   12  A    between atoms: C_26  and  C_27
REMARK   13  A    between atoms: C_26  and  C_28
REMARK   14  A    between atoms: C_26  and  C_29
REMARK                            x       y       z     vdW  Elec       q    Type
REMARK                         _______ _______ _______ _____ _____    ______ ____
ROOT
ATOM      1  C   UNL     1       3.141   4.743  19.025  0.00  0.00    +0.000 A 
ATOM      2  C   UNL     1       3.483   6.006  18.481  0.00  0.00    +0.000 A 
ATOM      3  C   UNL     1       4.797   6.286  18.152  0.00  0.00    +0.000 A 
ATOM      4  C   UNL     1       5.841   5.379  18.428  0.00  0.00    +0.000 A 
ATOM      5  C   UNL     1       5.467   4.152  19.005  0.00  0.00    +0.000 A 
ATOM      6  C   UNL     1       4.152   3.779  19.318  0.00  0.00    +0.000 A 
ENDROOT
BRANCH   4   7
ATOM      7  C   UNL     1       7.324   5.743  18.203  0.00  0.00    +0.000 C 
ATOM      8  C   UNL     1       8.102   5.839  19.533  0.00  0.00    +0.000 C 
ATOM      9  C   UNL     1       7.989   4.663  17.319  0.00  0.00    +0.000 C 
ATOM     10  C   UNL     1       7.516   7.094  17.473  0.00  0.00    +0.000 C 
ENDBRANCH   4   7
BRANCH   6  11
ATOM     11  C   UNL     1       3.911   2.383  19.960  0.00  0.00    +0.000 C 
ATOM     12  C   UNL     1       2.901   2.499  21.122  0.00  0.00    +0.000 C 
ATOM     13  C   UNL     1       3.412   1.408  18.880  0.00  0.00    +0.000 C 
ATOM     14  C   UNL     1       5.148   1.700  20.615  0.00  0.00    +0.000 C 
ENDBRANCH   6  11
BRANCH   2  15
ATOM     15  C   UNL     1       2.469   7.073  18.245  0.00  0.00    +0.000 C 
ATOM     16  N   UNL     1       2.251   8.012  19.090  0.00  0.00    +0.000 NA
BRANCH  16  17
ATOM     17  N   UNL     1       1.327   8.966  18.610  0.00  0.00    +0.000 NA
ATOM     18  C   UNL     1       0.595   9.442  19.558  0.00  0.00    +0.000 C 
ATOM     19  N   UNL     1       0.708   8.978  20.862  0.00  0.00    +0.000 N 
ATOM     20  H   UNL     1       1.271   8.126  20.794  0.00  0.00    +0.000 HD
ATOM     21  H   UNL     1      -0.162   8.834  21.343  0.00  0.00    +0.000 HD
BRANCH  18  22
ATOM     22  C   UNL     1      -0.468  10.441  19.280  0.00  0.00    +0.000 A 
ATOM     23  C   UNL     1      -1.139  10.374  18.062  0.00  0.00    +0.000 A 
ATOM     24  C   UNL     1      -2.164  11.276  17.855  0.00  0.00    +0.000 A 
ATOM     25  N   UNL     1      -2.540  12.209  18.758  0.00  0.00    +0.000 NA
ATOM     26  C   UNL     1      -1.859  12.250  19.925  0.00  0.00    +0.000 A 
ATOM     27  C   UNL     1      -0.826  11.389  20.234  0.00  0.00    +0.000 A 
ENDBRANCH  18  22
ENDBRANCH  16  17
ENDBRANCH   2  15
BRANCH   1  28
ATOM     28  O   UNL     1       1.789   4.475  19.306  0.00  0.00    +0.000 OA
BRANCH  28  30
ATOM     29  C   UNL     1       0.234   2.736  19.043  0.00  0.00    +0.000 C 
ATOM     30  C   UNL     1       1.028   3.806  18.349  0.00  0.00    +0.000 C 
ATOM     31  O   UNL     1       0.861   4.145  17.173  0.00  0.00    +0.000 OA
ENDBRANCH  28  30
ENDBRANCH   1  28
TORSDOF 7
ENDMDL
MODEL 2
REMARK VINA RESULT:      -7.4      0.530      1.275
REMARK  Name = 
REMARK  14 active torsions:
REMARK  status: ('A' for Active; 'I' for Inactive)
REMARK    1  A    between atoms: C_1  and  C_2
REMARK    2  A    between atoms: C_2  and  O_4
REMARK    3  A    between atoms: O_4  and  C_5
REMARK    4  A    between atoms: C_6  and  C_7
REMARK    5  A    between atoms: N_8  and  N_9
REMARK    6  A    between atoms: C_10  and  C_12
REMARK    7  A    between atoms: C_19  and  C_20
REMARK    8  A    between atoms: C_20  and  C_21
REMARK    9  A    between atoms: C_20  and  C_22
REMARK   10  A    between atoms: C_20  and  C_23
REMARK   11  A    between atoms: C_25  and  C_26
REMARK   12  A    between atoms: C_26  and  C_27
REMARK   13  A    between atoms: C_26  and  C_28
REMARK   14  A    between atoms: C_26  and  C_29
REMARK                            x       y       z     vdW  Elec       q    Type
REMARK                         _______ _______ _______ _____ _____    ______ ____
ROOT
ATOM      1  C   UNL     1       3.119   4.735  18.976  0.00  0.00    +0.000 A 
ATOM      2  C   UNL     1       3.468   5.972  18.380  0.00  0.00    +0.000 A 
ATOM      3  C   UNL     1       4.788   6.242  18.068  0.00  0.00    +0.000 A 
ATOM      4  C   UNL     1       5.829   5.355  18.412  0.00  0.00    +0.000 A 
ATOM      5  C   UNL     1       5.447   4.156  19.039  0.00  0.00    +0.000 A 
ATOM      6  C   UNL     1       4.126   3.792  19.340  0.00  0.00    +0.000 A 
ENDROOT
BRANCH   4   7
ATOM      7  C   UNL     1       7.316   5.715  18.203  0.00  0.00    +0.000 C 
ATOM      8  C   UNL     1       8.082   5.793  19.541  0.00  0.00    +0.000 C 
ATOM      9  C   UNL     1       7.983   4.642  17.313  0.00  0.00    +0.000 C 
ATOM     10  C   UNL     1       7.520   7.073  17.491  0.00  0.00    +0.000 C 
ENDBRANCH   4   7
BRANCH   6  11
ATOM     11  C   UNL     1       3.876   2.427  20.043  0.00  0.00    +0.000 C 
ATOM     12  C   UNL     1       3.322   1.401  19.030  0.00  0.00    +0.000 C 
ATOM     13  C   UNL     1       5.187   1.936  20.677  0.00  0.00    +0.000 C 
ATOM     14  C   UNL     1       2.817   2.421  21.186  0.00  0.00    +0.000 C 
ENDBRANCH   6  11
BRANCH   2  15
ATOM     15  C   UNL     1       2.455   7.020  18.069  0.00  0.00    +0.000 C 
ATOM     16  N   UNL     1       2.675   8.268  18.266  0.00  0.00    +0.000 NA
BRANCH  16  17
ATOM     17  N   UNL     1       1.621   9.082  17.801  0.00  0.00    +0.000 NA
ATOM     18  C   UNL     1       0.877   9.500  18.767  0.00  0.00    +0.000 C 
ATOM     19  N   UNL     1       1.104   9.103  20.078  0.00  0.00    +0.000 N 
ATOM     20  H   UNL     1       1.764   8.325  20.011  0.00  0.00    +0.000 HD
ATOM     21  H   UNL     1       0.279   8.872  20.605  0.00  0.00    +0.000 HD
BRANCH  18  22
ATOM     22  C   UNL     1      -0.312  10.350  18.509  0.00  0.00    +0.000 A 
ATOM     23  C   UNL     1      -0.414  11.570  19.173  0.00  0.00    +0.000 A 
ATOM     24  C   UNL     1      -1.499  12.368  18.868  0.00  0.00    +0.000 A 
ATOM     25  N   UNL     1      -2.456  12.029  17.976  0.00  0.00    +0.000 NA
ATOM     26  C   UNL     1      -2.330  10.832  17.359  0.00  0.00    +0.000 A 
ATOM     27  C   UNL     1      -1.280   9.966  17.585  0.00  0.00    +0.000 A 
ENDBRANCH  18  22
ENDBRANCH  16  17
ENDBRANCH   2  15
BRANCH   1  28
ATOM     28  O   UNL     1       1.761   4.473  19.239  0.00  0.00    +0.000 OA
BRANCH  28  30
ATOM     29  C   UNL     1       0.249   2.703  18.940  0.00  0.00    +0.000 C 
ATOM     30  C   UNL     1       1.009   3.812  18.270  0.00  0.00    +0.000 C 
ATOM     31  O   UNL     1       0.823   4.180  17.105  0.00  0.00    +0.000 OA
ENDBRANCH  28  30
ENDBRANCH   1  28
TORSDOF 7
ENDMDL
MODEL 3
REMARK VINA RESULT:      -7.4      0.600      1.005
REMARK  Name = 
REMARK  14 active torsions:
REMARK  status: ('A' for Active; 'I' for Inactive)
REMARK    1  A    between atoms: C_1  and  C_2
REMARK    2  A    between atoms: C_2  and  O_4
REMARK    3  A    between atoms: O_4  and  C_5
REMARK    4  A    between atoms: C_6  and  C_7
REMARK    5  A    between atoms: N_8  and  N_9
REMARK    6  A    between atoms: C_10  and  C_12
REMARK    7  A    between atoms: C_19  and  C_20
REMARK    8  A    between atoms: C_20  and  C_21
REMARK    9  A    between atoms: C_20  and  C_22
REMARK   10  A    between atoms: C_20  and  C_23
REMARK   11  A    between atoms: C_25  and  C_26
REMARK   12  A    between atoms: C_26  and  C_27
REMARK   13  A    between atoms: C_26  and  C_28
REMARK   14  A    between atoms: C_26  and  C_29
REMARK                            x       y       z     vdW  Elec       q    Type
REMARK                         _______ _______ _______ _____ _____    ______ ____
ROOT
ATOM      1  C   UNL     1       3.089   4.760  18.965  0.00  0.00    +0.000 A 
ATOM      2  C   UNL     1       3.448   5.997  18.374  0.00  0.00    +0.000 A 
ATOM      3  C   UNL     1       4.773   6.265  18.078  0.00  0.00    +0.000 A 
ATOM      4  C   UNL     1       5.808   5.374  18.433  0.00  0.00    +0.000 A 
ATOM      5  C   UNL     1       5.415   4.176  19.054  0.00  0.00    +0.000 A 
ATOM      6  C   UNL     1       4.090   3.814  19.339  0.00  0.00    +0.000 A 
ENDROOT
BRANCH   4   7
ATOM      7  C   UNL     1       7.297   5.731  18.242  0.00  0.00    +0.000 C 
ATOM      8  C   UNL     1       8.039   5.845  19.591  0.00  0.00    +0.000 C 
ATOM      9  C   UNL     1       7.982   4.637  17.392  0.00  0.00    +0.000 C 
ATOM     10  C   UNL     1       7.513   7.071  17.498  0.00  0.00    +0.000 C 
ENDBRANCH   4   7
BRANCH   6  11
ATOM     11  C   UNL     1       3.828   2.450  20.038  0.00  0.00    +0.000 C 
ATOM     12  C   UNL     1       5.157   1.851  20.549  0.00  0.00    +0.000 C 
ATOM     13  C   UNL     1       2.826   2.652  21.187  0.00  0.00    +0.000 C 
ATOM     14  C   UNL     1       3.235   1.318  19.145  0.00  0.00    +0.000 C 
ENDBRANCH   6  11
BRANCH   2  15
ATOM     15  C   UNL     1       2.442   7.049  18.054  0.00  0.00    +0.000 C 
ATOM     16  N   UNL     1       2.729   8.298  18.056  0.00  0.00    +0.000 NA
BRANCH  16  17
ATOM     17  N   UNL     1       1.653   9.100  17.619  0.00  0.00    +0.000 NA
ATOM     18  C   UNL     1       0.945   9.530  18.607  0.00  0.00    +0.000 C 
ATOM     19  N   UNL     1       1.223   9.154  19.914  0.00  0.00    +0.000 N 
ATOM     20  H   UNL     1       1.885   8.378  19.834  0.00  0.00    +0.000 HD
ATOM     21  H   UNL     1       0.421   8.928  20.476  0.00  0.00    +0.000 HD
BRANCH  18  22
ATOM     22  C   UNL     1      -0.258  10.370  18.381  0.00  0.00    +0.000 A 
ATOM     23  C   UNL     1      -1.222   9.922  17.482  0.00  0.00    +0.000 A 
ATOM     24  C   UNL     1      -2.359  10.692  17.338  0.00  0.00    +0.000 A 
ATOM     25  N   UNL     1      -2.579  11.844  18.010  0.00  0.00    +0.000 NA
ATOM     26  C   UNL     1      -1.617  12.253  18.866  0.00  0.00    +0.000 A 
ATOM     27  C   UNL     1      -0.449  11.553  19.090  0.00  0.00    +0.000 A 
ENDBRANCH  18  22
ENDBRANCH  16  17
ENDBRANCH   2  15
BRANCH   1  28
ATOM     28  O   UNL     1       1.728   4.502  19.213  0.00  0.00    +0.000 OA
BRANCH  28  30
ATOM     29  C   UNL     1       0.238   2.714  18.913  0.00  0.00    +0.000 C 
ATOM     30  C   UNL     1       0.991   3.827  18.242  0.00  0.00    +0.000 C 
ATOM     31  O   UNL     1       0.808   4.186  17.074  0.00  0.00    +0.000 OA
ENDBRANCH  28  30
ENDBRANCH   1  28
TORSDOF 7
ENDMDL
MODEL 4
REMARK VINA RESULT:      -7.4      0.281      1.213
REMARK  Name = 
REMARK  14 active torsions:
REMARK  status: ('A' for Active; 'I' for Inactive)
REMARK    1  A    between atoms: C_1  and  C_2
REMARK    2  A    between atoms: C_2  and  O_4
REMARK    3  A    between atoms: O_4  and  C_5
REMARK    4  A    between atoms: C_6  and  C_7
REMARK    5  A    between atoms: N_8  and  N_9
REMARK    6  A    between atoms: C_10  and  C_12
REMARK    7  A    between atoms: C_19  and  C_20
REMARK    8  A    between atoms: C_20  and  C_21
REMARK    9  A    between atoms: C_20  and  C_22
REMARK   10  A    between atoms: C_20  and  C_23
REMARK   11  A    between atoms: C_25  and  C_26
REMARK   12  A    between atoms: C_26  and  C_27
REMARK   13  A    between atoms: C_26  and  C_28
REMARK   14  A    between atoms: C_26  and  C_29
REMARK                            x       y       z     vdW  Elec       q    Type
REMARK                         _______ _______ _______ _____ _____    ______ ____
ROOT
ATOM      1  C   UNL     1       3.111   4.693  19.003  0.00  0.00    +0.000 A 
ATOM      2  C   UNL     1       3.427   5.948  18.427  0.00  0.00    +0.000 A 
ATOM      3  C   UNL     1       4.735   6.247  18.091  0.00  0.00    +0.000 A 
ATOM      4  C   UNL     1       5.798   5.369  18.392  0.00  0.00    +0.000 A 
ATOM      5  C   UNL     1       5.449   4.151  19.000  0.00  0.00    +0.000 A 
ATOM      6  C   UNL     1       4.141   3.759  19.323  0.00  0.00    +0.000 A 
ENDROOT
BRANCH   4   7
ATOM      7  C   UNL     1       7.273   5.758  18.157  0.00  0.00    +0.000 C 
ATOM      8  C   UNL     1       7.403   7.145  17.491  0.00  0.00    +0.000 C 
ATOM      9  C   UNL     1       8.017   5.788  19.511  0.00  0.00    +0.000 C 
ATOM     10  C   UNL     1       8.032   4.756  17.255  0.00  0.00    +0.000 C 
ENDBRANCH   4   7
BRANCH   6  11
ATOM     11  C   UNL     1       3.929   2.375  20.000  0.00  0.00    +0.000 C 
ATOM     12  C   UNL     1       2.912   2.499  21.156  0.00  0.00    +0.000 C 
ATOM     13  C   UNL     1       3.455   1.361  18.945  0.00  0.00    +0.000 C 
ATOM     14  C   UNL     1       5.179   1.737  20.677  0.00  0.00    +0.000 C 
ENDBRANCH   6  11
BRANCH   2  15
ATOM     15  C   UNL     1       2.391   6.987  18.163  0.00  0.00    +0.000 C 
ATOM     16  N   UNL     1       2.493   8.187  18.602  0.00  0.00    +0.000 NA
BRANCH  16  17
ATOM     17  N   UNL     1       1.452   9.021  18.141  0.00  0.00    +0.000 NA
ATOM     18  C   UNL     1       0.735   9.471  19.112  0.00  0.00    +0.000 C 
ATOM     19  N   UNL     1       0.971   9.086  20.425  0.00  0.00    +0.000 N 
ATOM     20  H   UNL     1       1.611   8.291  20.359  0.00  0.00    +0.000 HD
ATOM     21  H   UNL     1       0.149   8.884  20.967  0.00  0.00    +0.000 HD
BRANCH  18  22
ATOM     22  C   UNL     1      -0.437  10.347  18.859  0.00  0.00    +0.000 A 
ATOM     23  C   UNL     1      -0.717  11.362  19.772  0.00  0.00    +0.000 A 
ATOM     24  C   UNL     1      -1.775  12.199  19.481  0.00  0.00    +0.000 A 
ATOM     25  N   UNL     1      -2.545  12.085  18.375  0.00  0.00    +0.000 NA
ATOM     26  C   UNL     1      -2.250  11.082  17.517  0.00  0.00    +0.000 A 
ATOM     27  C   UNL     1      -1.209  10.197  17.711  0.00  0.00    +0.000 A 
ENDBRANCH  18  22
ENDBRANCH  16  17
ENDBRANCH   2  15
BRANCH   1  28
ATOM     28  O   UNL     1       1.764   4.404  19.291  0.00  0.00    +0.000 OA
BRANCH  28  30
ATOM     29  C   UNL     1       0.253   2.634  18.984  0.00  0.00    +0.000 C 
ATOM     30  C   UNL     1       0.999   3.758  18.322  0.00  0.00    +0.000 C 
ATOM     31  O   UNL     1       0.792   4.147  17.168  0.00  0.00    +0.000 OA
ENDBRANCH  28  30
ENDBRANCH   1  28
TORSDOF 7
ENDMDL
MODEL 5
REMARK VINA RESULT:      -7.3      0.470      1.220
REMARK  Name = 
REMARK  14 active torsions:
REMARK  status: ('A' for Active; 'I' for Inactive)
REMARK    1  A    between atoms: C_1  and  C_2
REMARK    2  A    between atoms: C_2  and  O_4
REMARK    3  A    between atoms: O_4  and  C_5
REMARK    4  A    between atoms: C_6  and  C_7
REMARK    5  A    between atoms: N_8  and  N_9
REMARK    6  A    between atoms: C_10  and  C_12
REMARK    7  A    between atoms: C_19  and  C_20
REMARK    8  A    between atoms: C_20  and  C_21
REMARK    9  A    between atoms: C_20  and  C_22
REMARK   10  A    between atoms: C_20  and  C_23
REMARK   11  A    between atoms: C_25  and  C_26
REMARK   12  A    between atoms: C_26  and  C_27
REMARK   13  A    between atoms: C_26  and  C_28
REMARK   14  A    between atoms: C_26  and  C_29
REMARK                            x       y       z     vdW  Elec       q    Type
REMARK                         _______ _______ _______ _____ _____    ______ ____
ROOT
ATOM      1  C   UNL     1       3.113   4.734  19.005  0.00  0.00    +0.000 A 
ATOM      2  C   UNL     1       3.456   5.982  18.429  0.00  0.00    +0.000 A 
ATOM      3  C   UNL     1       4.774   6.260  18.112  0.00  0.00    +0.000 A 
ATOM      4  C   UNL     1       5.819   5.368  18.432  0.00  0.00    +0.000 A 
ATOM      5  C   UNL     1       5.443   4.157  19.040  0.00  0.00    +0.000 A 
ATOM      6  C   UNL     1       4.124   3.786  19.344  0.00  0.00    +0.000 A 
ENDROOT
BRANCH   4   7
ATOM      7  C   UNL     1       7.303   5.734  18.218  0.00  0.00    +0.000 C 
ATOM      8  C   UNL     1       8.047   4.660  17.396  0.00  0.00    +0.000 C 
ATOM      9  C   UNL     1       7.396   7.082  17.469  0.00  0.00    +0.000 C 
ATOM     10  C   UNL     1       8.085   5.906  19.541  0.00  0.00    +0.000 C 
ENDBRANCH   4   7
BRANCH   6  11
ATOM     11  C   UNL     1       3.881   2.409  20.024  0.00  0.00    +0.000 C 
ATOM     12  C   UNL     1       3.332   1.397  18.994  0.00  0.00    +0.000 C 
ATOM     13  C   UNL     1       5.196   1.913  20.649  0.00  0.00    +0.000 C 
ATOM     14  C   UNL     1       2.824   2.379  21.168  0.00  0.00    +0.000 C 
ENDBRANCH   6  11
BRANCH   2  15
ATOM     15  C   UNL     1       2.440   7.035  18.145  0.00  0.00    +0.000 C 
ATOM     16  N   UNL     1       2.709   8.286  18.213  0.00  0.00    +0.000 NA
BRANCH  16  17
ATOM     17  N   UNL     1       1.629   9.095  17.801  0.00  0.00    +0.000 NA
ATOM     18  C   UNL     1       0.913   9.483  18.800  0.00  0.00    +0.000 C 
ATOM     19  N   UNL     1       1.189   9.063  20.094  0.00  0.00    +0.000 N 
ATOM     20  H   UNL     1       1.858   8.296  19.989  0.00  0.00    +0.000 HD
ATOM     21  H   UNL     1       0.387   8.811  20.644  0.00  0.00    +0.000 HD
BRANCH  18  22
ATOM     22  C   UNL     1      -0.296  10.321  18.599  0.00  0.00    +0.000 A 
ATOM     23  C   UNL     1      -1.143  10.021  17.536  0.00  0.00    +0.000 A 
ATOM     24  C   UNL     1      -2.292  10.777  17.409  0.00  0.00    +0.000 A 
ATOM     25  N   UNL     1      -2.629  11.782  18.248  0.00  0.00    +0.000 NA
ATOM     26  C   UNL     1      -1.777  12.052  19.263  0.00  0.00    +0.000 A 
ATOM     27  C   UNL     1      -0.609  11.350  19.483  0.00  0.00    +0.000 A 
ENDBRANCH  18  22
ENDBRANCH  16  17
ENDBRANCH   2  15
BRANCH   1  28
ATOM     28  O   UNL     1       1.758   4.466  19.275  0.00  0.00    +0.000 OA
BRANCH  28  30
ATOM     29  C   UNL     1       0.217   2.719  18.995  0.00  0.00    +0.000 C 
ATOM     30  C   UNL     1       1.006   3.797  18.310  0.00  0.00    +0.000 C 
ATOM     31  O   UNL     1       0.842   4.142  17.135  0.00  0.00    +0.000 OA
ENDBRANCH  28  30
ENDBRANCH   1  28
TORSDOF 7
ENDMDL
MODEL 6
REMARK VINA RESULT:      -7.3      1.147      1.946
REMARK  Name = 
REMARK  14 active torsions:
REMARK  status: ('A' for Active; 'I' for Inactive)
REMARK    1  A    between atoms: C_1  and  C_2
REMARK    2  A    between atoms: C_2  and  O_4
REMARK    3  A    between atoms: O_4  and  C_5
REMARK    4  A    between atoms: C_6  and  C_7
REMARK    5  A    between atoms: N_8  and  N_9
REMARK    6  A    between atoms: C_10  and  C_12
REMARK    7  A    between atoms: C_19  and  C_20
REMARK    8  A    between atoms: C_20  and  C_21
REMARK    9  A    between atoms: C_20  and  C_22
REMARK   10  A    between atoms: C_20  and  C_23
REMARK   11  A    between atoms: C_25  and  C_26
REMARK   12  A    between atoms: C_26  and  C_27
REMARK   13  A    between atoms: C_26  and  C_28
REMARK   14  A    between atoms: C_26  and  C_29
REMARK                            x       y       z     vdW  Elec       q    Type
REMARK                         _______ _______ _______ _____ _____    ______ ____
ROOT
ATOM      1  C   UNL     1       2.793   4.741  18.351  0.00  0.00    +0.000 A 
ATOM      2  C   UNL     1       3.154   6.017  17.852  0.00  0.00    +0.000 A 
ATOM      3  C   UNL     1       4.398   6.211  17.279  0.00  0.00    +0.000 A 
ATOM      4  C   UNL     1       5.371   5.190  17.255  0.00  0.00    +0.000 A 
ATOM      5  C   UNL     1       4.989   3.950  17.796  0.00  0.00    +0.000 A 
ATOM      6  C   UNL     1       3.731   3.666  18.347  0.00  0.00    +0.000 A 
ENDROOT
BRANCH   4   7
ATOM      7  C   UNL     1       6.810   5.441  16.754  0.00  0.00    +0.000 C 
ATOM      8  C   UNL     1       7.242   6.908  16.959  0.00  0.00    +0.000 C 
ATOM      9  C   UNL     1       7.788   4.525  17.524  0.00  0.00    +0.000 C 
ATOM     10  C   UNL     1       6.995   5.125  15.251  0.00  0.00    +0.000 C 
ENDBRANCH   4   7
BRANCH   6  11
ATOM     11  C   UNL     1       3.473   2.239  18.909  0.00  0.00    +0.000 C 
ATOM     12  C   UNL     1       4.269   1.195  18.095  0.00  0.00    +0.000 C 
ATOM     13  C   UNL     1       3.860   2.202  20.397  0.00  0.00    +0.000 C 
ATOM     14  C   UNL     1       2.005   1.720  18.835  0.00  0.00    +0.000 C 
ENDBRANCH   6  11
BRANCH   2  15
ATOM     15  C   UNL     1       2.235   7.189  17.921  0.00  0.00    +0.000 C 
ATOM     16  N   UNL     1       2.517   8.245  18.591  0.00  0.00    +0.000 NA
BRANCH  16  17
ATOM     17  N   UNL     1       1.553   9.263  18.426  0.00  0.00    +0.000 NA
ATOM     18  C   UNL     1       0.908   9.491  19.518  0.00  0.00    +0.000 C 
ATOM     19  N   UNL     1       1.137   8.742  20.664  0.00  0.00    +0.000 N 
ATOM     20  H   UNL     1       1.693   7.941  20.353  0.00  0.00    +0.000 HD
ATOM     21  H   UNL     1       0.312   8.472  21.172  0.00  0.00    +0.000 HD
BRANCH  18  22
ATOM     22  C   UNL     1      -0.177  10.503  19.572  0.00  0.00    +0.000 A 
ATOM     23  C   UNL     1      -0.450  11.120  20.790  0.00  0.00    +0.000 A 
ATOM     24  C   UNL     1      -1.422  12.101  20.798  0.00  0.00    +0.000 A 
ATOM     25  N   UNL     1      -2.115  12.484  19.702  0.00  0.00    +0.000 NA
ATOM     26  C   UNL     1      -1.830  11.856  18.539  0.00  0.00    +0.000 A 
ATOM     27  C   UNL     1      -0.872  10.870  18.422  0.00  0.00    +0.000 A 
ENDBRANCH  18  22
ENDBRANCH  16  17
ENDBRANCH   2  15
BRANCH   1  28
ATOM     28  O   UNL     1       1.503   4.568  18.887  0.00  0.00    +0.000 OA
BRANCH  28  30
ATOM     29  C   UNL     1       0.796   3.573  20.892  0.00  0.00    +0.000 C 
ATOM     30  C   UNL     1       1.304   4.828  20.241  0.00  0.00    +0.000 C 
ATOM     31  O   UNL     1       1.667   5.835  20.858  0.00  0.00    +0.000 OA
ENDBRANCH  28  30
ENDBRANCH   1  28
TORSDOF 7
ENDMDL
MODEL 7
REMARK VINA RESULT:      -7.2      1.156      1.557
REMARK  Name = 
REMARK  14 active torsions:
REMARK  status: ('A' for Active; 'I' for Inactive)
REMARK    1  A    between atoms: C_1  and  C_2
REMARK    2  A    between atoms: C_2  and  O_4
REMARK    3  A    between atoms: O_4  and  C_5
REMARK    4  A    between atoms: C_6  and  C_7
REMARK    5  A    between atoms: N_8  and  N_9
REMARK    6  A    between atoms: C_10  and  C_12
REMARK    7  A    between atoms: C_19  and  C_20
REMARK    8  A    between atoms: C_20  and  C_21
REMARK    9  A    between atoms: C_20  and  C_22
REMARK   10  A    between atoms: C_20  and  C_23
REMARK   11  A    between atoms: C_25  and  C_26
REMARK   12  A    between atoms: C_26  and  C_27
REMARK   13  A    between atoms: C_26  and  C_28
REMARK   14  A    between atoms: C_26  and  C_29
REMARK                            x       y       z     vdW  Elec       q    Type
REMARK                         _______ _______ _______ _____ _____    ______ ____
ROOT
ATOM      1  C   UNL     1       2.791   4.814  18.314  0.00  0.00    +0.000 A 
ATOM      2  C   UNL     1       3.190   6.104  17.885  0.00  0.00    +0.000 A 
ATOM      3  C   UNL     1       4.446   6.295  17.338  0.00  0.00    +0.000 A 
ATOM      4  C   UNL     1       5.395   5.253  17.276  0.00  0.00    +0.000 A 
ATOM      5  C   UNL     1       4.975   3.997  17.748  0.00  0.00    +0.000 A 
ATOM      6  C   UNL     1       3.702   3.717  18.268  0.00  0.00    +0.000 A 
ENDROOT
BRANCH   4   7
ATOM      7  C   UNL     1       6.846   5.493  16.807  0.00  0.00    +0.000 C 
ATOM      8  C   UNL     1       7.302   6.944  17.067  0.00  0.00    +0.000 C 
ATOM      9  C   UNL     1       7.794   4.533  17.561  0.00  0.00    +0.000 C 
ATOM     10  C   UNL     1       7.051   5.224  15.297  0.00  0.00    +0.000 C 
ENDBRANCH   4   7
BRANCH   6  11
ATOM     11  C   UNL     1       3.402   2.271  18.754  0.00  0.00    +0.000 C 
ATOM     12  C   UNL     1       3.582   2.176  20.285  0.00  0.00    +0.000 C 
ATOM     13  C   UNL     1       1.976   1.880  18.332  0.00  0.00    +0.000 C 
ATOM     14  C   UNL     1       4.334   1.149  18.205  0.00  0.00    +0.000 C 
ENDBRANCH   6  11
BRANCH   2  15
ATOM     15  C   UNL     1       2.299   7.293  18.002  0.00  0.00    +0.000 C 
ATOM     16  N   UNL     1       2.391   8.129  18.969  0.00  0.00    +0.000 NA
BRANCH  16  17
ATOM     17  N   UNL     1       1.521   9.230  18.817  0.00  0.00    +0.000 NA
ATOM     18  C   UNL     1       0.789   9.409  19.863  0.00  0.00    +0.000 C 
ATOM     19  N   UNL     1       0.851   8.544  20.947  0.00  0.00    +0.000 N 
ATOM     20  H   UNL     1       1.378   7.733  20.611  0.00  0.00    +0.000 HD
ATOM     21  H   UNL     1      -0.035   8.295  21.349  0.00  0.00    +0.000 HD
BRANCH  18  22
ATOM     22  C   UNL     1      -0.223  10.494  19.915  0.00  0.00    +0.000 A 
ATOM     23  C   UNL     1      -1.028  10.706  18.799  0.00  0.00    +0.000 A 
ATOM     24  C   UNL     1      -2.001  11.680  18.897  0.00  0.00    +0.000 A 
ATOM     25  N   UNL     1      -2.207  12.431  20.002  0.00  0.00    +0.000 NA
ATOM     26  C   UNL     1      -1.400  12.205  21.062  0.00  0.00    +0.000 A 
ATOM     27  C   UNL     1      -0.404  11.249  21.070  0.00  0.00    +0.000 A 
ENDBRANCH  18  22
ENDBRANCH  16  17
ENDBRANCH   2  15
BRANCH   1  28
ATOM     28  O   UNL     1       1.490   4.646  18.824  0.00  0.00    +0.000 OA
BRANCH  28  30
ATOM     29  C   UNL     1       0.585   3.528  20.679  0.00  0.00    +0.000 C 
ATOM     30  C   UNL     1       1.293   4.763  20.198  0.00  0.00    +0.000 C 
ATOM     31  O   UNL     1       1.785   5.618  20.943  0.00  0.00    +0.000 OA
ENDBRANCH  28  30
ENDBRANCH   1  28
TORSDOF 7
ENDMDL
MODEL 8
REMARK VINA RESULT:      -7.2      0.614      1.084
REMARK  Name = 
REMARK  14 active torsions:
REMARK  status: ('A' for Active; 'I' for Inactive)
REMARK    1  A    between atoms: C_1  and  C_2
REMARK    2  A    between atoms: C_2  and  O_4
REMARK    3  A    between atoms: O_4  and  C_5
REMARK    4  A    between atoms: C_6  and  C_7
REMARK    5  A    between atoms: N_8  and  N_9
REMARK    6  A    between atoms: C_10  and  C_12
REMARK    7  A    between atoms: C_19  and  C_20
REMARK    8  A    between atoms: C_20  and  C_21
REMARK    9  A    between atoms: C_20  and  C_22
REMARK   10  A    between atoms: C_20  and  C_23
REMARK   11  A    between atoms: C_25  and  C_26
REMARK   12  A    between atoms: C_26  and  C_27
REMARK   13  A    between atoms: C_26  and  C_28
REMARK   14  A    between atoms: C_26  and  C_29
REMARK                            x       y       z     vdW  Elec       q    Type
REMARK                         _______ _______ _______ _____ _____    ______ ____
ROOT
ATOM      1  C   UNL     1       2.957   4.744  19.115  0.00  0.00    +0.000 A 
ATOM      2  C   UNL     1       3.272   5.986  18.510  0.00  0.00    +0.000 A 
ATOM      3  C   UNL     1       4.571   6.254  18.116  0.00  0.00    +0.000 A 
ATOM      4  C   UNL     1       5.628   5.359  18.384  0.00  0.00    +0.000 A 
ATOM      5  C   UNL     1       5.282   4.156  19.022  0.00  0.00    +0.000 A 
ATOM      6  C   UNL     1       3.981   3.793  19.404  0.00  0.00    +0.000 A 
ENDROOT
BRANCH   4   7
ATOM      7  C   UNL     1       7.099   5.716  18.083  0.00  0.00    +0.000 C 
ATOM      8  C   UNL     1       7.772   4.665  17.175  0.00  0.00    +0.000 C 
ATOM      9  C   UNL     1       7.160   7.090  17.378  0.00  0.00    +0.000 C 
ATOM     10  C   UNL     1       7.971   5.832  19.356  0.00  0.00    +0.000 C 
ENDBRANCH   4   7
BRANCH   6  11
ATOM     11  C   UNL     1       3.771   2.423  20.107  0.00  0.00    +0.000 C 
ATOM     12  C   UNL     1       2.812   2.583  21.307  0.00  0.00    +0.000 C 
ATOM     13  C   UNL     1       3.227   1.407  19.088  0.00  0.00    +0.000 C 
ATOM     14  C   UNL     1       5.037   1.765  20.734  0.00  0.00    +0.000 C 
ENDBRANCH   6  11
BRANCH   2  15
ATOM     15  C   UNL     1       2.246   7.041  18.276  0.00  0.00    +0.000 C 
ATOM     16  N   UNL     1       2.503   8.290  18.406  0.00  0.00    +0.000 NA
BRANCH  16  17
ATOM     17  N   UNL     1       1.415   9.107  18.031  0.00  0.00    +0.000 NA
ATOM     18  C   UNL     1       0.765   9.540  19.057  0.00  0.00    +0.000 C 
ATOM     19  N   UNL     1       1.108   9.153  20.346  0.00  0.00    +0.000 N 
ATOM     20  H   UNL     1       1.755   8.370  20.226  0.00  0.00    +0.000 HD
ATOM     21  H   UNL     1       0.333   8.932  20.947  0.00  0.00    +0.000 HD
BRANCH  18  22
ATOM     22  C   UNL     1      -0.438  10.395  18.899  0.00  0.00    +0.000 A 
ATOM     23  C   UNL     1      -1.269  10.177  17.803  0.00  0.00    +0.000 A 
ATOM     24  C   UNL     1      -2.412  10.946  17.714  0.00  0.00    +0.000 A 
ATOM     25  N   UNL     1      -2.760  11.887  18.620  0.00  0.00    +0.000 NA
ATOM     26  C   UNL     1      -1.924  12.078  19.666  0.00  0.00    +0.000 A 
ATOM     27  C   UNL     1      -0.762  11.357  19.851  0.00  0.00    +0.000 A 
ENDBRANCH  18  22
ENDBRANCH  16  17
ENDBRANCH   2  15
BRANCH   1  28
ATOM     28  O   UNL     1       1.618   4.485  19.463  0.00  0.00    +0.000 OA
BRANCH  28  30
ATOM     29  C   UNL     1       1.258   3.896  17.219  0.00  0.00    +0.000 C 
ATOM     30  C   UNL     1       0.869   3.639  18.647  0.00  0.00    +0.000 C 
ATOM     31  O   UNL     1       0.162   2.695  19.017  0.00  0.00    +0.000 OA
ENDBRANCH  28  30
ENDBRANCH   1  28
TORSDOF 7
ENDMDL
MODEL 9
REMARK VINA RESULT:      -7.1      0.751      1.182
REMARK  Name = 
REMARK  14 active torsions:
REMARK  status: ('A' for Active; 'I' for Inactive)
REMARK    1  A    between atoms: C_1  and  C_2
REMARK    2  A    between atoms: C_2  and  O_4
REMARK    3  A    between atoms: O_4  and  C_5
REMARK    4  A    between atoms: C_6  and  C_7
REMARK    5  A    between atoms: N_8  and  N_9
REMARK    6  A    between atoms: C_10  and  C_12
REMARK    7  A    between atoms: C_19  and  C_20
REMARK    8  A    between atoms: C_20  and  C_21
REMARK    9  A    between atoms: C_20  and  C_22
REMARK   10  A    between atoms: C_20  and  C_23
REMARK   11  A    between atoms: C_25  and  C_26
REMARK   12  A    between atoms: C_26  and  C_27
REMARK   13  A    between atoms: C_26  and  C_28
REMARK   14  A    between atoms: C_26  and  C_29
REMARK                            x       y       z     vdW  Elec       q    Type
REMARK                         _______ _______ _______ _____ _____    ______ ____
ROOT
ATOM      1  C   UNL     1       3.034   4.778  19.236  0.00  0.00    +0.000 A 
ATOM      2  C   UNL     1       3.371   6.043  18.694  0.00  0.00    +0.000 A 
ATOM      3  C   UNL     1       4.666   6.297  18.279  0.00  0.00    +0.000 A 
ATOM      4  C   UNL     1       5.702   5.358  18.464  0.00  0.00    +0.000 A 
ATOM      5  C   UNL     1       5.337   4.130  19.042  0.00  0.00    +0.000 A 
ATOM      6  C   UNL     1       4.037   3.784  19.440  0.00  0.00    +0.000 A 
ENDROOT
BRANCH   4   7
ATOM      7  C   UNL     1       7.175   5.689  18.142  0.00  0.00    +0.000 C 
ATOM      8  C   UNL     1       8.053   5.701  19.412  0.00  0.00    +0.000 C 
ATOM      9  C   UNL     1       7.736   4.633  17.162  0.00  0.00    +0.000 C 
ATOM     10  C   UNL     1       7.355   7.067  17.460  0.00  0.00    +0.000 C 
ENDBRANCH   4   7
BRANCH   6  11
ATOM     11  C   UNL     1       3.804   2.381  20.070  0.00  0.00    +0.000 C 
ATOM     12  C   UNL     1       2.819   2.487  21.255  0.00  0.00    +0.000 C 
ATOM     13  C   UNL     1       3.279   1.420  18.990  0.00  0.00    +0.000 C 
ATOM     14  C   UNL     1       5.053   1.686  20.692  0.00  0.00    +0.000 C 
ENDBRANCH   6  11
BRANCH   2  15
ATOM     15  C   UNL     1       2.371   7.140  18.550  0.00  0.00    +0.000 C 
ATOM     16  N   UNL     1       2.108   7.959  19.500  0.00  0.00    +0.000 NA
BRANCH  16  17
ATOM     17  N   UNL     1       1.212   8.975  19.104  0.00  0.00    +0.000 NA
ATOM     18  C   UNL     1       0.700   9.583  20.119  0.00  0.00    +0.000 C 
ATOM     19  N   UNL     1       0.987   9.189  21.419  0.00  0.00    +0.000 N 
ATOM     20  H   UNL     1       1.446   8.279  21.327  0.00  0.00    +0.000 HD
ATOM     21  H   UNL     1       0.201   9.169  22.044  0.00  0.00    +0.000 HD
BRANCH  18  22
ATOM     22  C   UNL     1      -0.294  10.671  19.941  0.00  0.00    +0.000 A 
ATOM     23  C   UNL     1      -0.865  11.241  21.076  0.00  0.00    +0.000 A 
ATOM     24  C   UNL     1      -1.740  12.292  20.884  0.00  0.00    +0.000 A 
ATOM     25  N   UNL     1      -2.069  12.786  19.669  0.00  0.00    +0.000 NA
ATOM     26  C   UNL     1      -1.503  12.201  18.590  0.00  0.00    +0.000 A 
ATOM     27  C   UNL     1      -0.611  11.152  18.673  0.00  0.00    +0.000 A 
ENDBRANCH  18  22
ENDBRANCH  16  17
ENDBRANCH   2  15
BRANCH   1  28
ATOM     28  O   UNL     1       1.698   4.538  19.607  0.00  0.00    +0.000 OA
BRANCH  28  30
ATOM     29  C   UNL     1       1.279   4.050  17.350  0.00  0.00    +0.000 C 
ATOM     30  C   UNL     1       0.906   3.750  18.773  0.00  0.00    +0.000 C 
ATOM     31  O   UNL     1       0.173   2.818  19.120  0.00  0.00    +0.000 OA
ENDBRANCH  28  30
ENDBRANCH   1  28
TORSDOF 7
ENDMDL
