MODEL 1
REMARK VINA RESULT:      -7.8      0.000      0.000
REMARK  Name = 
REMARK  7 active torsions:
REMARK  status: ('A' for Active; 'I' for Inactive)
REMARK    1  A    between atoms: C_2  and  C_3
REMARK    2  A    between atoms: C_4  and  C_5
REMARK    3  A    between atoms: C_8  and  O_9
REMARK    4  A    between atoms: C_10  and  O_11
REMARK    5  A    between atoms: N_13  and  C_14
REMARK    6  A    between atoms: C_14  and  C_15
REMARK    7  A    between atoms: C_15  and  C_16
REMARK                            x       y       z     vdW  Elec       q    Type
REMARK                         _______ _______ _______ _____ _____    ______ ____
ROOT
ATOM      1  O   UNL     1       7.534   6.478  16.294  0.00  0.00    +0.000 OA
ATOM      2  C   UNL     1       7.363   6.754  17.475  0.00  0.00    +0.000 C 
ATOM      3  N   UNL     1       6.468   6.103  18.293  0.00  0.00    +0.000 N 
ATOM      4  H   UNL     1       6.264   6.476  19.210  0.00  0.00    +0.000 HD
ENDROOT
BRANCH   2   5
ATOM      5  C   UNL     1       8.105   7.836  18.169  0.00  0.00    +0.000 C 
ATOM      6  C   UNL     1       7.995   9.105  17.736  0.00  0.00    +0.000 C 
BRANCH   6   7
ATOM      7  C   UNL     1       8.687  10.263  18.326  0.00  0.00    +0.000 A 
ATOM      8  C   UNL     1       9.451  10.170  19.503  0.00  0.00    +0.000 A 
ATOM      9  C   UNL     1      10.127  11.286  20.016  0.00  0.00    +0.000 A 
ATOM     10  C   UNL     1      10.049  12.496  19.341  0.00  0.00    +0.000 A 
ATOM     11  C   UNL     1       9.308  12.594  18.168  0.00  0.00    +0.000 A 
ATOM     12  C   UNL     1       8.633  11.493  17.654  0.00  0.00    +0.000 A 
BRANCH  10  13
ATOM     13  O   UNL     1      10.691  13.617  19.787  0.00  0.00    +0.000 OA
ATOM     14  H   UNL     1      11.648  13.449  19.761  0.00  0.00    +0.000 HD
ENDBRANCH  10  13
BRANCH  11  15
ATOM     15  O   UNL     1       9.243  13.786  17.504  0.00  0.00    +0.000 OA
ATOM     16  H   UNL     1       9.954  14.329  17.902  0.00  0.00    +0.000 HD
ENDBRANCH  11  15
ENDBRANCH   6   7
ENDBRANCH   2   5
BRANCH   3  17
ATOM     17  C   UNL     1       5.586   5.084  17.753  0.00  0.00    +0.000 C 
BRANCH  17  18
ATOM     18  C   UNL     1       4.178   5.601  17.441  0.00  0.00    +0.000 C 
BRANCH  18  19
ATOM     19  C   UNL     1       3.105   5.020  18.337  0.00  0.00    +0.000 A 
ATOM     20  C   UNL     1       2.227   4.036  17.861  0.00  0.00    +0.000 A 
ATOM     21  C   UNL     1       1.222   3.525  18.685  0.00  0.00    +0.000 A 
ATOM     22  C   UNL     1       1.091   3.983  19.994  0.00  0.00    +0.000 A 
ATOM     23  C   UNL     1       1.972   4.945  20.484  0.00  0.00    +0.000 A 
ATOM     24  C   UNL     1       2.977   5.458  19.662  0.00  0.00    +0.000 A 
ENDBRANCH  18  19
ENDBRANCH  17  18
ENDBRANCH   3  17
TORSDOF 7
ENDMDL
MODEL 2
REMARK VINA RESULT:      -7.6      1.019      1.354
REMARK  Name = 
REMARK  7 active torsions:
REMARK  status: ('A' for Active; 'I' for Inactive)
REMARK    1  A    between atoms: C_2  and  C_3
REMARK    2  A    between atoms: C_4  and  C_5
REMARK    3  A    between atoms: C_8  and  O_9
REMARK    4  A    between atoms: C_10  and  O_11
REMARK    5  A    between atoms: N_13  and  C_14
REMARK    6  A    between atoms: C_14  and  C_15
REMARK    7  A    between atoms: C_15  and  C_16
REMARK                            x       y       z     vdW  Elec       q    Type
REMARK                         _______ _______ _______ _____ _____    ______ ____
ROOT
ATOM      1  O   UNL     1       7.790   6.536  16.338  0.00  0.00    +0.000 OA
ATOM      2  C   UNL     1       7.219   7.129  17.244  0.00  0.00    +0.000 C 
ATOM      3  N   UNL     1       6.238   6.568  18.030  0.00  0.00    +0.000 N 
ATOM      4  H   UNL     1       5.702   7.152  18.656  0.00  0.00    +0.000 HD
ENDROOT
BRANCH   2   5
ATOM      5  C   UNL     1       7.517   8.538  17.604  0.00  0.00    +0.000 C 
ATOM      6  C   UNL     1       8.598   8.820  18.354  0.00  0.00    +0.000 C 
BRANCH   6   7
ATOM      7  C   UNL     1       8.996  10.168  18.791  0.00  0.00    +0.000 A 
ATOM      8  C   UNL     1       9.512  10.427  20.074  0.00  0.00    +0.000 A 
ATOM      9  C   UNL     1       9.916  11.718  20.443  0.00  0.00    +0.000 A 
ATOM     10  C   UNL     1       9.817  12.750  19.521  0.00  0.00    +0.000 A 
ATOM     11  C   UNL     1       9.323  12.500  18.244  0.00  0.00    +0.000 A 
ATOM     12  C   UNL     1       8.918  11.224  17.871  0.00  0.00    +0.000 A 
BRANCH  10  13
ATOM     13  O   UNL     1      10.201  14.027  19.818  0.00  0.00    +0.000 OA
ATOM     14  H   UNL     1      10.594  14.420  19.020  0.00  0.00    +0.000 HD
ENDBRANCH  10  13
BRANCH  11  15
ATOM     15  O   UNL     1       9.237  13.519  17.339  0.00  0.00    +0.000 OA
ATOM     16  H   UNL     1       8.300  13.803  17.375  0.00  0.00    +0.000 HD
ENDBRANCH  11  15
ENDBRANCH   6   7
ENDBRANCH   2   5
BRANCH   3  17
ATOM     17  C   UNL     1       5.751   5.229  17.752  0.00  0.00    +0.000 C 
BRANCH  17  18
ATOM     18  C   UNL     1       4.412   5.211  17.008  0.00  0.00    +0.000 C 
BRANCH  18  19
ATOM     19  C   UNL     1       3.437   4.180  17.534  0.00  0.00    +0.000 A 
ATOM     20  C   UNL     1       2.106   4.524  17.809  0.00  0.00    +0.000 A 
ATOM     21  C   UNL     1       1.220   3.574  18.321  0.00  0.00    +0.000 A 
ATOM     22  C   UNL     1       1.651   2.271  18.554  0.00  0.00    +0.000 A 
ATOM     23  C   UNL     1       2.966   1.912  18.264  0.00  0.00    +0.000 A 
ATOM     24  C   UNL     1       3.854   2.860  17.753  0.00  0.00    +0.000 A 
ENDBRANCH  18  19
ENDBRANCH  17  18
ENDBRANCH   3  17
TORSDOF 7
ENDMDL
MODEL 3
REMARK VINA RESULT:      -7.6      2.556      3.415
REMARK  Name = 
REMARK  7 active torsions:
REMARK  status: ('A' for Active; 'I' for Inactive)
REMARK    1  A    between atoms: C_2  and  C_3
REMARK    2  A    between atoms: C_4  and  C_5
REMARK    3  A    between atoms: C_8  and  O_9
REMARK    4  A    between atoms: C_10  and  O_11
REMARK    5  A    between atoms: N_13  and  C_14
REMARK    6  A    between atoms: C_14  and  C_15
REMARK    7  A    between atoms: C_15  and  C_16
REMARK                            x       y       z     vdW  Elec       q    Type
REMARK                         _______ _______ _______ _____ _____    ______ ____
ROOT
ATOM      1  O   UNL     1       6.675   7.770  17.195  0.00  0.00    +0.000 OA
ATOM      2  C   UNL     1       7.678   7.986  17.864  0.00  0.00    +0.000 C 
ATOM      3  N   UNL     1       8.212   7.085  18.757  0.00  0.00    +0.000 N 
ATOM      4  H   UNL     1       8.947   7.379  19.386  0.00  0.00    +0.000 HD
ENDROOT
BRANCH   2   5
ATOM      5  C   UNL     1       8.442   9.257  17.792  0.00  0.00    +0.000 C 
ATOM      6  C   UNL     1       9.007   9.758  18.905  0.00  0.00    +0.000 C 
BRANCH   6   7
ATOM      7  C   UNL     1       9.776  11.012  18.972  0.00  0.00    +0.000 A 
ATOM      8  C   UNL     1      10.427  11.440  20.143  0.00  0.00    +0.000 A 
ATOM      9  C   UNL     1      11.182  12.621  20.159  0.00  0.00    +0.000 A 
ATOM     10  C   UNL     1      11.296  13.370  18.997  0.00  0.00    +0.000 A 
ATOM     11  C   UNL     1      10.668  12.947  17.830  0.00  0.00    +0.000 A 
ATOM     12  C   UNL     1       9.917  11.778  17.805  0.00  0.00    +0.000 A 
BRANCH  10  13
ATOM     13  O   UNL     1      12.023  14.526  18.948  0.00  0.00    +0.000 OA
ATOM     14  H   UNL     1      11.541  15.209  19.445  0.00  0.00    +0.000 HD
ENDBRANCH  10  13
BRANCH  11  15
ATOM     15  O   UNL     1      10.793  13.684  16.687  0.00  0.00    +0.000 OA
ATOM     16  H   UNL     1      10.071  13.364  16.107  0.00  0.00    +0.000 HD
ENDBRANCH  11  15
ENDBRANCH   6   7
ENDBRANCH   2   5
BRANCH   3  17
ATOM     17  C   UNL     1       7.536   5.829  19.027  0.00  0.00    +0.000 C 
BRANCH  17  18
ATOM     18  C   UNL     1       7.924   4.709  18.058  0.00  0.00    +0.000 C 
BRANCH  18  19
ATOM     19  C   UNL     1       6.995   4.584  16.869  0.00  0.00    +0.000 A 
ATOM     20  C   UNL     1       7.469   4.774  15.564  0.00  0.00    +0.000 A 
ATOM     21  C   UNL     1       6.600   4.685  14.474  0.00  0.00    +0.000 A 
ATOM     22  C   UNL     1       5.253   4.395  14.677  0.00  0.00    +0.000 A 
ATOM     23  C   UNL     1       4.775   4.183  15.968  0.00  0.00    +0.000 A 
ATOM     24  C   UNL     1       5.642   4.273  17.059  0.00  0.00    +0.000 A 
ENDBRANCH  18  19
ENDBRANCH  17  18
ENDBRANCH   3  17
TORSDOF 7
ENDMDL
MODEL 4
REMARK VINA RESULT:      -7.6      1.272      1.784
REMARK  Name = 
REMARK  7 active torsions:
REMARK  status: ('A' for Active; 'I' for Inactive)
REMARK    1  A    between atoms: C_2  and  C_3
REMARK    2  A    between atoms: C_4  and  C_5
REMARK    3  A    between atoms: C_8  and  O_9
REMARK    4  A    between atoms: C_10  and  O_11
REMARK    5  A    between atoms: N_13  and  C_14
REMARK    6  A    between atoms: C_14  and  C_15
REMARK    7  A    between atoms: C_15  and  C_16
REMARK                            x       y       z     vdW  Elec       q    Type
REMARK                         _______ _______ _______ _____ _____    ______ ____
ROOT
ATOM      1  O   UNL     1       8.108   6.758  18.717  0.00  0.00    +0.000 OA
ATOM      2  C   UNL     1       7.762   7.611  17.909  0.00  0.00    +0.000 C 
ATOM      3  N   UNL     1       6.814   7.405  16.934  0.00  0.00    +0.000 N 
ATOM      4  H   UNL     1       6.683   8.095  16.207  0.00  0.00    +0.000 HD
ENDROOT
BRANCH   2   5
ATOM      5  C   UNL     1       8.332   8.983  17.886  0.00  0.00    +0.000 C 
ATOM      6  C   UNL     1       8.851   9.508  19.010  0.00  0.00    +0.000 C 
BRANCH   6   7
ATOM      7  C   UNL     1       9.432  10.856  19.124  0.00  0.00    +0.000 A 
ATOM      8  C   UNL     1       9.938  11.363  20.334  0.00  0.00    +0.000 A 
ATOM      9  C   UNL     1      10.519  12.637  20.397  0.00  0.00    +0.000 A 
ATOM     10  C   UNL     1      10.605  13.402  19.242  0.00  0.00    +0.000 A 
ATOM     11  C   UNL     1      10.121  12.902  18.037  0.00  0.00    +0.000 A 
ATOM     12  C   UNL     1       9.543  11.641  17.967  0.00  0.00    +0.000 A 
BRANCH  10  13
ATOM     13  O   UNL     1      11.166  14.648  19.238  0.00  0.00    +0.000 OA
ATOM     14  H   UNL     1      10.576  15.245  18.746  0.00  0.00    +0.000 HD
ENDBRANCH  10  13
BRANCH  11  15
ATOM     15  O   UNL     1      10.218  13.657  16.903  0.00  0.00    +0.000 OA
ATOM     16  H   UNL     1      10.025  13.032  16.174  0.00  0.00    +0.000 HD
ENDBRANCH  11  15
ENDBRANCH   6   7
ENDBRANCH   2   5
BRANCH   3  17
ATOM     17  C   UNL     1       6.225   6.091  16.748  0.00  0.00    +0.000 C 
BRANCH  17  18
ATOM     18  C   UNL     1       4.731   6.137  16.411  0.00  0.00    +0.000 C 
BRANCH  18  19
ATOM     19  C   UNL     1       3.907   5.112  17.161  0.00  0.00    +0.000 A 
ATOM     20  C   UNL     1       2.812   5.504  17.944  0.00  0.00    +0.000 A 
ATOM     21  C   UNL     1       2.074   4.556  18.656  0.00  0.00    +0.000 A 
ATOM     22  C   UNL     1       2.416   3.208  18.584  0.00  0.00    +0.000 A 
ATOM     23  C   UNL     1       3.488   2.804  17.792  0.00  0.00    +0.000 A 
ATOM     24  C   UNL     1       4.229   3.750  17.081  0.00  0.00    +0.000 A 
ENDBRANCH  18  19
ENDBRANCH  17  18
ENDBRANCH   3  17
TORSDOF 7
ENDMDL
MODEL 5
REMARK VINA RESULT:      -7.6      1.287      1.606
REMARK  Name = 
REMARK  7 active torsions:
REMARK  status: ('A' for Active; 'I' for Inactive)
REMARK    1  A    between atoms: C_2  and  C_3
REMARK    2  A    between atoms: C_4  and  C_5
REMARK    3  A    between atoms: C_8  and  O_9
REMARK    4  A    between atoms: C_10  and  O_11
REMARK    5  A    between atoms: N_13  and  C_14
REMARK    6  A    between atoms: C_14  and  C_15
REMARK    7  A    between atoms: C_15  and  C_16
REMARK                            x       y       z     vdW  Elec       q    Type
REMARK                         _______ _______ _______ _____ _____    ______ ____
ROOT
ATOM      1  O   UNL     1       7.133   7.289  16.773  0.00  0.00    +0.000 OA
ATOM      2  C   UNL     1       7.639   7.233  17.886  0.00  0.00    +0.000 C 
ATOM      3  N   UNL     1       7.450   6.190  18.763  0.00  0.00    +0.000 N 
ATOM      4  H   UNL     1       7.768   6.273  19.719  0.00  0.00    +0.000 HD
ENDROOT
BRANCH   2   5
ATOM      5  C   UNL     1       8.523   8.296  18.429  0.00  0.00    +0.000 C 
ATOM      6  C   UNL     1       8.296   9.581  18.106  0.00  0.00    +0.000 C 
BRANCH   6   7
ATOM      7  C   UNL     1       9.104  10.724  18.563  0.00  0.00    +0.000 A 
ATOM      8  C   UNL     1       9.868  10.687  19.744  0.00  0.00    +0.000 A 
ATOM      9  C   UNL     1      10.656  11.780  20.130  0.00  0.00    +0.000 A 
ATOM     10  C   UNL     1      10.689  12.910  19.324  0.00  0.00    +0.000 A 
ATOM     11  C   UNL     1       9.949  12.950  18.147  0.00  0.00    +0.000 A 
ATOM     12  C   UNL     1       9.164  11.870  17.759  0.00  0.00    +0.000 A 
BRANCH  10  13
ATOM     13  O   UNL     1      11.443  14.005  19.643  0.00  0.00    +0.000 OA
ATOM     14  H   UNL     1      11.738  14.421  18.815  0.00  0.00    +0.000 HD
ENDBRANCH  10  13
BRANCH  11  15
ATOM     15  O   UNL     1       9.994  14.062  17.355  0.00  0.00    +0.000 OA
ATOM     16  H   UNL     1       9.059  14.337  17.263  0.00  0.00    +0.000 HD
ENDBRANCH  11  15
ENDBRANCH   6   7
ENDBRANCH   2   5
BRANCH   3  17
ATOM     17  C   UNL     1       6.534   5.112  18.436  0.00  0.00    +0.000 C 
BRANCH  17  18
ATOM     18  C   UNL     1       5.201   5.196  19.187  0.00  0.00    +0.000 C 
BRANCH  18  19
ATOM     19  C   UNL     1       4.184   4.171  18.737  0.00  0.00    +0.000 A 
ATOM     20  C   UNL     1       4.286   2.832  19.141  0.00  0.00    +0.000 A 
ATOM     21  C   UNL     1       3.360   1.885  18.698  0.00  0.00    +0.000 A 
ATOM     22  C   UNL     1       2.317   2.268  17.858  0.00  0.00    +0.000 A 
ATOM     23  C   UNL     1       2.192   3.600  17.468  0.00  0.00    +0.000 A 
ATOM     24  C   UNL     1       3.118   4.548  17.908  0.00  0.00    +0.000 A 
ENDBRANCH  18  19
ENDBRANCH  17  18
ENDBRANCH   3  17
TORSDOF 7
ENDMDL
MODEL 6
REMARK VINA RESULT:      -7.6      5.797      8.577
REMARK  Name = 
REMARK  7 active torsions:
REMARK  status: ('A' for Active; 'I' for Inactive)
REMARK    1  A    between atoms: C_2  and  C_3
REMARK    2  A    between atoms: C_4  and  C_5
REMARK    3  A    between atoms: C_8  and  O_9
REMARK    4  A    between atoms: C_10  and  O_11
REMARK    5  A    between atoms: N_13  and  C_14
REMARK    6  A    between atoms: C_14  and  C_15
REMARK    7  A    between atoms: C_15  and  C_16
REMARK                            x       y       z     vdW  Elec       q    Type
REMARK                         _______ _______ _______ _____ _____    ______ ____
ROOT
ATOM      1  O   UNL     1       1.936   9.550  17.389  0.00  0.00    +0.000 OA
ATOM      2  C   UNL     1       1.617   9.102  18.482  0.00  0.00    +0.000 C 
ATOM      3  N   UNL     1       0.673   9.677  19.302  0.00  0.00    +0.000 N 
ATOM      4  H   UNL     1       0.564   9.348  20.251  0.00  0.00    +0.000 HD
ENDROOT
BRANCH   2   5
ATOM      5  C   UNL     1       2.217   7.873  19.061  0.00  0.00    +0.000 C 
ATOM      6  C   UNL     1       2.659   6.900  18.245  0.00  0.00    +0.000 C 
BRANCH   6   7
ATOM      7  C   UNL     1       3.260   5.631  18.690  0.00  0.00    +0.000 A 
ATOM      8  C   UNL     1       2.510   4.615  19.310  0.00  0.00    +0.000 A 
ATOM      9  C   UNL     1       3.107   3.404  19.687  0.00  0.00    +0.000 A 
ATOM     10  C   UNL     1       4.456   3.204  19.430  0.00  0.00    +0.000 A 
ATOM     11  C   UNL     1       5.202   4.197  18.803  0.00  0.00    +0.000 A 
ATOM     12  C   UNL     1       4.618   5.401  18.428  0.00  0.00    +0.000 A 
BRANCH  10  13
ATOM     13  O   UNL     1       5.094   2.043  19.767  0.00  0.00    +0.000 OA
ATOM     14  H   UNL     1       5.899   2.271  20.262  0.00  0.00    +0.000 HD
ENDBRANCH  10  13
BRANCH  11  15
ATOM     15  O   UNL     1       6.527   3.989  18.546  0.00  0.00    +0.000 OA
ATOM     16  H   UNL     1       6.553   3.145  18.050  0.00  0.00    +0.000 HD
ENDBRANCH  11  15
ENDBRANCH   6   7
ENDBRANCH   2   5
BRANCH   3  17
ATOM     17  C   UNL     1       0.056  10.941  18.937  0.00  0.00    +0.000 C 
BRANCH  17  18
ATOM     18  C   UNL     1      -1.448  10.989  19.225  0.00  0.00    +0.000 C 
BRANCH  18  19
ATOM     19  C   UNL     1      -2.308  10.840  17.989  0.00  0.00    +0.000 A 
ATOM     20  C   UNL     1      -1.923   9.988  16.944  0.00  0.00    +0.000 A 
ATOM     21  C   UNL     1      -2.708   9.878  15.794  0.00  0.00    +0.000 A 
ATOM     22  C   UNL     1      -3.888  10.609  15.681  0.00  0.00    +0.000 A 
ATOM     23  C   UNL     1      -4.291  11.442  16.722  0.00  0.00    +0.000 A 
ATOM     24  C   UNL     1      -3.508  11.555  17.872  0.00  0.00    +0.000 A 
ENDBRANCH  18  19
ENDBRANCH  17  18
ENDBRANCH   3  17
TORSDOF 7
ENDMDL
MODEL 7
REMARK VINA RESULT:      -7.5      1.179      1.665
REMARK  Name = 
REMARK  7 active torsions:
REMARK  status: ('A' for Active; 'I' for Inactive)
REMARK    1  A    between atoms: C_2  and  C_3
REMARK    2  A    between atoms: C_4  and  C_5
REMARK    3  A    between atoms: C_8  and  O_9
REMARK    4  A    between atoms: C_10  and  O_11
REMARK    5  A    between atoms: N_13  and  C_14
REMARK    6  A    between atoms: C_14  and  C_15
REMARK    7  A    between atoms: C_15  and  C_16
REMARK                            x       y       z     vdW  Elec       q    Type
REMARK                         _______ _______ _______ _____ _____    ______ ____
ROOT
ATOM      1  O   UNL     1       6.369   7.612  16.900  0.00  0.00    +0.000 OA
ATOM      2  C   UNL     1       7.364   7.301  17.541  0.00  0.00    +0.000 C 
ATOM      3  N   UNL     1       7.737   6.001  17.796  0.00  0.00    +0.000 N 
ATOM      4  H   UNL     1       8.480   5.812  18.455  0.00  0.00    +0.000 HD
ENDROOT
BRANCH   2   5
ATOM      5  C   UNL     1       8.296   8.298  18.125  0.00  0.00    +0.000 C 
ATOM      6  C   UNL     1       8.093   9.609  17.906  0.00  0.00    +0.000 C 
BRANCH   6   7
ATOM      7  C   UNL     1       8.948  10.695  18.414  0.00  0.00    +0.000 A 
ATOM      8  C   UNL     1       9.773  10.543  19.543  0.00  0.00    +0.000 A 
ATOM      9  C   UNL     1      10.603  11.586  19.978  0.00  0.00    +0.000 A 
ATOM     10  C   UNL     1      10.617  12.781  19.272  0.00  0.00    +0.000 A 
ATOM     11  C   UNL     1       9.815  12.935  18.145  0.00  0.00    +0.000 A 
ATOM     12  C   UNL     1       8.989  11.906  17.709  0.00  0.00    +0.000 A 
BRANCH  10  13
ATOM     13  O   UNL     1      11.409  13.832  19.641  0.00  0.00    +0.000 OA
ATOM     14  H   UNL     1      11.482  14.437  18.883  0.00  0.00    +0.000 HD
ENDBRANCH  10  13
BRANCH  11  15
ATOM     15  O   UNL     1       9.841  14.110  17.450  0.00  0.00    +0.000 OA
ATOM     16  H   UNL     1      10.508  14.657  17.914  0.00  0.00    +0.000 HD
ENDBRANCH  11  15
ENDBRANCH   6   7
ENDBRANCH   2   5
BRANCH   3  17
ATOM     17  C   UNL     1       6.886   4.899  17.384  0.00  0.00    +0.000 C 
BRANCH  17  18
ATOM     18  C   UNL     1       5.993   4.366  18.509  0.00  0.00    +0.000 C 
BRANCH  18  19
ATOM     19  C   UNL     1       4.514   4.439  18.197  0.00  0.00    +0.000 A 
ATOM     20  C   UNL     1       3.783   5.609  18.449  0.00  0.00    +0.000 A 
ATOM     21  C   UNL     1       2.412   5.659  18.185  0.00  0.00    +0.000 A 
ATOM     22  C   UNL     1       1.762   4.547  17.656  0.00  0.00    +0.000 A 
ATOM     23  C   UNL     1       2.482   3.387  17.382  0.00  0.00    +0.000 A 
ATOM     24  C   UNL     1       3.852   3.333  17.646  0.00  0.00    +0.000 A 
ENDBRANCH  18  19
ENDBRANCH  17  18
ENDBRANCH   3  17
TORSDOF 7
ENDMDL
MODEL 8
REMARK VINA RESULT:      -7.5      2.721      9.650
REMARK  Name = 
REMARK  7 active torsions:
REMARK  status: ('A' for Active; 'I' for Inactive)
REMARK    1  A    between atoms: C_2  and  C_3
REMARK    2  A    between atoms: C_4  and  C_5
REMARK    3  A    between atoms: C_8  and  O_9
REMARK    4  A    between atoms: C_10  and  O_11
REMARK    5  A    between atoms: N_13  and  C_14
REMARK    6  A    between atoms: C_14  and  C_15
REMARK    7  A    between atoms: C_15  and  C_16
REMARK                            x       y       z     vdW  Elec       q    Type
REMARK                         _______ _______ _______ _____ _____    ______ ____
ROOT
ATOM      1  O   UNL     1       7.790   6.744  16.501  0.00  0.00    +0.000 OA
ATOM      2  C   UNL     1       6.936   7.290  17.186  0.00  0.00    +0.000 C 
ATOM      3  N   UNL     1       7.113   8.503  17.811  0.00  0.00    +0.000 N 
ATOM      4  H   UNL     1       6.430   8.826  18.483  0.00  0.00    +0.000 HD
ENDROOT
BRANCH   2   5
ATOM      5  C   UNL     1       5.594   6.702  17.429  0.00  0.00    +0.000 C 
ATOM      6  C   UNL     1       5.466   5.371  17.575  0.00  0.00    +0.000 C 
BRANCH   6   7
ATOM      7  C   UNL     1       4.195   4.664  17.805  0.00  0.00    +0.000 A 
ATOM      8  C   UNL     1       2.949   5.317  17.779  0.00  0.00    +0.000 A 
ATOM      9  C   UNL     1       1.756   4.605  17.965  0.00  0.00    +0.000 A 
ATOM     10  C   UNL     1       1.809   3.232  18.164  0.00  0.00    +0.000 A 
ATOM     11  C   UNL     1       3.035   2.576  18.175  0.00  0.00    +0.000 A 
ATOM     12  C   UNL     1       4.222   3.275  17.994  0.00  0.00    +0.000 A 
BRANCH  10  13
ATOM     13  O   UNL     1       0.681   2.482  18.344  0.00  0.00    +0.000 OA
ATOM     14  H   UNL     1      -0.046   2.906  17.857  0.00  0.00    +0.000 HD
ENDBRANCH  10  13
BRANCH  11  15
ATOM     15  O   UNL     1       3.078   1.223  18.363  0.00  0.00    +0.000 OA
ATOM     16  H   UNL     1       3.485   1.110  19.246  0.00  0.00    +0.000 HD
ENDBRANCH  11  15
ENDBRANCH   6   7
ENDBRANCH   2   5
BRANCH   3  17
ATOM     17  C   UNL     1       8.401   9.172  17.763  0.00  0.00    +0.000 C 
BRANCH  17  18
ATOM     18  C   UNL     1       8.846   9.732  19.118  0.00  0.00    +0.000 C 
BRANCH  18  19
ATOM     19  C   UNL     1       9.903  10.810  19.012  0.00  0.00    +0.000 A 
ATOM     20  C   UNL     1      10.294  11.313  17.763  0.00  0.00    +0.000 A 
ATOM     21  C   UNL     1      11.290  12.287  17.671  0.00  0.00    +0.000 A 
ATOM     22  C   UNL     1      11.897  12.777  18.825  0.00  0.00    +0.000 A 
ATOM     23  C   UNL     1      11.501  12.300  20.073  0.00  0.00    +0.000 A 
ATOM     24  C   UNL     1      10.506  11.325  20.167  0.00  0.00    +0.000 A 
ENDBRANCH  18  19
ENDBRANCH  17  18
ENDBRANCH   3  17
TORSDOF 7
ENDMDL
MODEL 9
REMARK VINA RESULT:      -7.5      1.379      2.332
REMARK  Name = 
REMARK  7 active torsions:
REMARK  status: ('A' for Active; 'I' for Inactive)
REMARK    1  A    between atoms: C_2  and  C_3
REMARK    2  A    between atoms: C_4  and  C_5
REMARK    3  A    between atoms: C_8  and  O_9
REMARK    4  A    between atoms: C_10  and  O_11
REMARK    5  A    between atoms: N_13  and  C_14
REMARK    6  A    between atoms: C_14  and  C_15
REMARK    7  A    between atoms: C_15  and  C_16
REMARK                            x       y       z     vdW  Elec       q    Type
REMARK                         _______ _______ _______ _____ _____    ______ ____
ROOT
ATOM      1  O   UNL     1       7.125   5.830  18.906  0.00  0.00    +0.000 OA
ATOM      2  C   UNL     1       7.637   6.665  18.173  0.00  0.00    +0.000 C 
ATOM      3  N   UNL     1       7.559   6.632  16.799  0.00  0.00    +0.000 N 
ATOM      4  H   UNL     1       8.128   7.261  16.249  0.00  0.00    +0.000 HD
ENDROOT
BRANCH   2   5
ATOM      5  C   UNL     1       8.412   7.824  18.683  0.00  0.00    +0.000 C 
ATOM      6  C   UNL     1       8.286   9.024  18.089  0.00  0.00    +0.000 C 
BRANCH   6   7
ATOM      7  C   UNL     1       9.006  10.245  18.488  0.00  0.00    +0.000 A 
ATOM      8  C   UNL     1       9.342  11.259  17.573  0.00  0.00    +0.000 A 
ATOM      9  C   UNL     1       9.995  12.426  17.994  0.00  0.00    +0.000 A 
ATOM     10  C   UNL     1      10.301  12.584  19.339  0.00  0.00    +0.000 A 
ATOM     11  C   UNL     1       9.959  11.593  20.253  0.00  0.00    +0.000 A 
ATOM     12  C   UNL     1       9.313  10.433  19.843  0.00  0.00    +0.000 A 
BRANCH  10  13
ATOM     13  O   UNL     1      10.931  13.701  19.812  0.00  0.00    +0.000 OA
ATOM     14  H   UNL     1      11.832  13.452  20.078  0.00  0.00    +0.000 HD
ENDBRANCH  10  13
BRANCH  11  15
ATOM     15  O   UNL     1      10.256  11.760  21.576  0.00  0.00    +0.000 OA
ATOM     16  H   UNL     1      11.174  11.433  21.666  0.00  0.00    +0.000 HD
ENDBRANCH  11  15
ENDBRANCH   6   7
ENDBRANCH   2   5
BRANCH   3  17
ATOM     17  C   UNL     1       6.923   5.513  16.126  0.00  0.00    +0.000 C 
BRANCH  17  18
ATOM     18  C   UNL     1       5.489   5.810  15.676  0.00  0.00    +0.000 C 
BRANCH  18  19
ATOM     19  C   UNL     1       4.452   5.565  16.751  0.00  0.00    +0.000 A 
ATOM     20  C   UNL     1       3.900   6.632  17.473  0.00  0.00    +0.000 A 
ATOM     21  C   UNL     1       2.965   6.397  18.483  0.00  0.00    +0.000 A 
ATOM     22  C   UNL     1       2.564   5.095  18.772  0.00  0.00    +0.000 A 
ATOM     23  C   UNL     1       3.089   4.028  18.047  0.00  0.00    +0.000 A 
ATOM     24  C   UNL     1       4.026   4.262  17.038  0.00  0.00    +0.000 A 
ENDBRANCH  18  19
ENDBRANCH  17  18
ENDBRANCH   3  17
TORSDOF 7
ENDMDL
