MODEL 1
REMARK VINA RESULT:      -6.6      0.000      0.000
REMARK  Name = 
REMARK  12 active torsions:
REMARK  status: ('A' for Active; 'I' for Inactive)
REMARK    1  A    between atoms: C_1  and  O_2
REMARK    2  A    between atoms: O_2  and  P_3
REMARK    3  A    between atoms: P_3  and  O_5
REMARK    4  A    between atoms: P_3  and  C_7
REMARK    5  A    between atoms: O_5  and  C_6
REMARK    6  A    between atoms: C_7  and  O_8
REMARK    7  A    between atoms: C_7  and  C_21
REMARK    8  A    between atoms: O_8  and  C_9
REMARK    9  A    between atoms: C_9  and  C_11
REMARK   10  A    between atoms: C_11  and  O_12
REMARK   11  A    between atoms: O_12  and  C_13
REMARK   12  A    between atoms: C_18  and  C_19
REMARK                            x       y       z     vdW  Elec       q    Type
REMARK                         _______ _______ _______ _____ _____    ______ ____
ROOT
ATOM      1  O   UNL     1       4.430   5.384  18.525  0.00  0.00    +0.000 OA
ENDROOT
BRANCH   1   2
ATOM      2  C   UNL     1       5.746   5.551  18.851  0.00  0.00    +0.000 C 
ATOM      3  O   UNL     1       6.260   5.082  19.862  0.00  0.00    +0.000 OA
BRANCH   2   4
ATOM      4  C   UNL     1       6.509   6.217  17.720  0.00  0.00    +0.000 C 
BRANCH   4   5
ATOM      5  O   UNL     1       7.398   5.327  17.076  0.00  0.00    +0.000 OA
BRANCH   5   6
ATOM      6  C   UNL     1       7.032   4.905  15.825  0.00  0.00    +0.000 A 
ATOM      7  C   UNL     1       6.059   3.907  15.813  0.00  0.00    +0.000 A 
ATOM      8  C   UNL     1       5.612   3.368  14.606  0.00  0.00    +0.000 A 
ATOM      9  C   UNL     1       6.139   3.820  13.392  0.00  0.00    +0.000 A 
ATOM     10 CL   UNL     1       5.541   3.089  11.948  0.00  0.00    +0.000 Cl
ATOM     11  C   UNL     1       7.116   4.825  13.378  0.00  0.00    +0.000 A 
ATOM     12  C   UNL     1       7.749   5.358  12.121  0.00  0.00    +0.000 C 
ATOM     13  C   UNL     1       7.549   5.365  14.608  0.00  0.00    +0.000 A 
ENDBRANCH   5   6
ENDBRANCH   4   5
ENDBRANCH   2   4
ENDBRANCH   1   2
BRANCH   1  14
ATOM     14  C   UNL     1       3.491   5.618  19.619  0.00  0.00    +0.000 C 
BRANCH  14  15
ATOM     15  C   UNL     1       2.752   6.868  19.212  0.00  0.00    +0.000 A 
ATOM     16  C   UNL     1       1.968   7.784  19.883  0.00  0.00    +0.000 A 
ATOM     17  C   UNL     1       1.692   8.828  18.964  0.00  0.00    +0.000 A 
ATOM     18  C   UNL     1       2.309   8.481  17.787  0.00  0.00    +0.000 A 
ATOM     19  O   UNL     1       2.959   7.302  17.929  0.00  0.00    +0.000 OA
ENDBRANCH  14  15
BRANCH  14  20
ATOM     20  P   UNL     1       2.290   4.247  19.779  0.00  0.00    +0.000 P 
ATOM     21  O   UNL     1       2.437   4.310  21.314  0.00  0.00    +0.000 OA
BRANCH  20  23
ATOM     22  C   UNL     1       0.835   2.305  18.712  0.00  0.00    +0.000 C 
ATOM     23  O   UNL     1       1.155   2.950  19.928  0.00  0.00    +0.000 OA
ENDBRANCH  20  23
BRANCH  20  24
ATOM     24  O   UNL     1       3.440   3.169  19.252  0.00  0.00    +0.000 OA
ATOM     25  C   UNL     1       4.100   2.375  20.220  0.00  0.00    +0.000 C 
ENDBRANCH  20  24
ENDBRANCH  14  20
ENDBRANCH   1  14
TORSDOF 9
ENDMDL
MODEL 2
REMARK VINA RESULT:      -6.6      3.379      7.369
REMARK  Name = 
REMARK  12 active torsions:
REMARK  status: ('A' for Active; 'I' for Inactive)
REMARK    1  A    between atoms: C_1  and  O_2
REMARK    2  A    between atoms: O_2  and  P_3
REMARK    3  A    between atoms: P_3  and  O_5
REMARK    4  A    between atoms: P_3  and  C_7
REMARK    5  A    between atoms: O_5  and  C_6
REMARK    6  A    between atoms: C_7  and  O_8
REMARK    7  A    between atoms: C_7  and  C_21
REMARK    8  A    between atoms: O_8  and  C_9
REMARK    9  A    between atoms: C_9  and  C_11
REMARK   10  A    between atoms: C_11  and  O_12
REMARK   11  A    between atoms: O_12  and  C_13
REMARK   12  A    between atoms: C_18  and  C_19
REMARK                            x       y       z     vdW  Elec       q    Type
REMARK                         _______ _______ _______ _____ _____    ______ ____
ROOT
ATOM      1  O   UNL     1       4.546   5.129  16.682  0.00  0.00    +0.000 OA
ENDROOT
BRANCH   1   2
ATOM      2  C   UNL     1       3.468   4.647  17.371  0.00  0.00    +0.000 C 
ATOM      3  O   UNL     1       3.035   3.506  17.245  0.00  0.00    +0.000 OA
BRANCH   2   4
ATOM      4  C   UNL     1       3.014   5.635  18.432  0.00  0.00    +0.000 C 
BRANCH   4   5
ATOM      5  O   UNL     1       3.077   6.973  17.982  0.00  0.00    +0.000 OA
BRANCH   5   6
ATOM      6  C   UNL     1       2.261   7.866  18.623  0.00  0.00    +0.000 A 
ATOM      7  C   UNL     1       1.727   8.856  17.800  0.00  0.00    +0.000 A 
ATOM      8  C   UNL     1       0.897   9.845  18.329  0.00  0.00    +0.000 A 
ATOM      9  C   UNL     1       0.595   9.859  19.694  0.00  0.00    +0.000 A 
ATOM     10 CL   UNL     1      -0.427  11.126  20.267  0.00  0.00    +0.000 Cl
ATOM     11  C   UNL     1       1.117   8.871  20.542  0.00  0.00    +0.000 A 
ATOM     12  C   UNL     1       0.857   8.820  22.023  0.00  0.00    +0.000 C 
ATOM     13  C   UNL     1       1.946   7.874  19.987  0.00  0.00    +0.000 A 
ENDBRANCH   5   6
ENDBRANCH   4   5
ENDBRANCH   2   4
ENDBRANCH   1   2
BRANCH   1  14
ATOM     14  C   UNL     1       5.731   4.276  16.721  0.00  0.00    +0.000 C 
BRANCH  14  15
ATOM     15  C   UNL     1       6.221   4.257  15.296  0.00  0.00    +0.000 A 
ATOM     16  C   UNL     1       5.710   3.772  14.109  0.00  0.00    +0.000 A 
ATOM     17  C   UNL     1       6.588   4.208  13.084  0.00  0.00    +0.000 A 
ATOM     18  C   UNL     1       7.587   4.917  13.705  0.00  0.00    +0.000 A 
ATOM     19  O   UNL     1       7.369   4.959  15.041  0.00  0.00    +0.000 OA
ENDBRANCH  14  15
BRANCH  14  20
ATOM     20  P   UNL     1       7.037   4.991  17.786  0.00  0.00    +0.000 P 
ATOM     21  O   UNL     1       6.378   4.335  19.017  0.00  0.00    +0.000 OA
BRANCH  20  23
ATOM     22  C   UNL     1       8.103   5.425  20.173  0.00  0.00    +0.000 C 
ATOM     23  O   UNL     1       8.272   5.667  18.790  0.00  0.00    +0.000 OA
ENDBRANCH  20  23
BRANCH  20  24
ATOM     24  O   UNL     1       6.343   6.493  17.639  0.00  0.00    +0.000 OA
ATOM     25  C   UNL     1       7.189   7.592  17.360  0.00  0.00    +0.000 C 
ENDBRANCH  20  24
ENDBRANCH  14  20
ENDBRANCH   1  14
TORSDOF 9
ENDMDL
MODEL 3
REMARK VINA RESULT:      -6.6      3.869      7.845
REMARK  Name = 
REMARK  12 active torsions:
REMARK  status: ('A' for Active; 'I' for Inactive)
REMARK    1  A    between atoms: C_1  and  O_2
REMARK    2  A    between atoms: O_2  and  P_3
REMARK    3  A    between atoms: P_3  and  O_5
REMARK    4  A    between atoms: P_3  and  C_7
REMARK    5  A    between atoms: O_5  and  C_6
REMARK    6  A    between atoms: C_7  and  O_8
REMARK    7  A    between atoms: C_7  and  C_21
REMARK    8  A    between atoms: O_8  and  C_9
REMARK    9  A    between atoms: C_9  and  C_11
REMARK   10  A    between atoms: C_11  and  O_12
REMARK   11  A    between atoms: O_12  and  C_13
REMARK   12  A    between atoms: C_18  and  C_19
REMARK                            x       y       z     vdW  Elec       q    Type
REMARK                         _______ _______ _______ _____ _____    ______ ____
ROOT
ATOM      1  O   UNL     1       2.994   6.340  17.594  0.00  0.00    +0.000 OA
ENDROOT
BRANCH   1   2
ATOM      2  C   UNL     1       2.539   7.195  18.558  0.00  0.00    +0.000 C 
ATOM      3  O   UNL     1       2.607   6.962  19.761  0.00  0.00    +0.000 OA
BRANCH   2   4
ATOM      4  C   UNL     1       2.123   8.525  17.955  0.00  0.00    +0.000 C 
BRANCH   4   5
ATOM      5  O   UNL     1       1.717   9.456  18.937  0.00  0.00    +0.000 OA
BRANCH   5   6
ATOM      6  C   UNL     1       0.459   9.978  18.794  0.00  0.00    +0.000 A 
ATOM      7  C   UNL     1       0.064  10.828  19.825  0.00  0.00    +0.000 A 
ATOM      8  C   UNL     1      -1.205  11.410  19.816  0.00  0.00    +0.000 A 
ATOM      9  C   UNL     1      -2.097  11.143  18.774  0.00  0.00    +0.000 A 
ATOM     10 CL   UNL     1      -3.650  11.892  18.849  0.00  0.00    +0.000 Cl
ATOM     11  C   UNL     1      -1.722  10.294  17.723  0.00  0.00    +0.000 A 
ATOM     12  C   UNL     1      -2.624   9.939  16.572  0.00  0.00    +0.000 C 
ATOM     13  C   UNL     1      -0.432   9.723  17.744  0.00  0.00    +0.000 A 
ENDBRANCH   5   6
ENDBRANCH   4   5
ENDBRANCH   2   4
ENDBRANCH   1   2
BRANCH   1  14
ATOM     14  C   UNL     1       4.195   5.590  17.956  0.00  0.00    +0.000 C 
BRANCH  14  15
ATOM     15  C   UNL     1       3.711   4.171  18.116  0.00  0.00    +0.000 A 
ATOM     16  C   UNL     1       3.050   3.282  17.294  0.00  0.00    +0.000 A 
ATOM     17  C   UNL     1       3.021   2.042  17.983  0.00  0.00    +0.000 A 
ATOM     18  C   UNL     1       3.649   2.252  19.186  0.00  0.00    +0.000 A 
ATOM     19  O   UNL     1       4.077   3.534  19.272  0.00  0.00    +0.000 OA
ENDBRANCH  14  15
BRANCH  14  20
ATOM     20  P   UNL     1       5.446   5.641  16.622  0.00  0.00    +0.000 P 
ATOM     21  O   UNL     1       6.276   4.580  17.374  0.00  0.00    +0.000 OA
BRANCH  20  23
ATOM     22  C   UNL     1       6.690   4.524  14.565  0.00  0.00    +0.000 C 
ATOM     23  O   UNL     1       6.629   5.690  15.361  0.00  0.00    +0.000 OA
ENDBRANCH  20  23
BRANCH  20  24
ATOM     24  O   UNL     1       5.981   7.115  17.171  0.00  0.00    +0.000 OA
ATOM     25  C   UNL     1       7.334   7.225  17.569  0.00  0.00    +0.000 C 
ENDBRANCH  20  24
ENDBRANCH  14  20
ENDBRANCH   1  14
TORSDOF 9
ENDMDL
MODEL 4
REMARK VINA RESULT:      -6.6      3.947      7.557
REMARK  Name = 
REMARK  12 active torsions:
REMARK  status: ('A' for Active; 'I' for Inactive)
REMARK    1  A    between atoms: C_1  and  O_2
REMARK    2  A    between atoms: O_2  and  P_3
REMARK    3  A    between atoms: P_3  and  O_5
REMARK    4  A    between atoms: P_3  and  C_7
REMARK    5  A    between atoms: O_5  and  C_6
REMARK    6  A    between atoms: C_7  and  O_8
REMARK    7  A    between atoms: C_7  and  C_21
REMARK    8  A    between atoms: O_8  and  C_9
REMARK    9  A    between atoms: C_9  and  C_11
REMARK   10  A    between atoms: C_11  and  O_12
REMARK   11  A    between atoms: O_12  and  C_13
REMARK   12  A    between atoms: C_18  and  C_19
REMARK                            x       y       z     vdW  Elec       q    Type
REMARK                         _______ _______ _______ _____ _____    ______ ____
ROOT
ATOM      1  O   UNL     1       2.720   6.934  19.020  0.00  0.00    +0.000 OA
ENDROOT
BRANCH   1   2
ATOM      2  C   UNL     1       2.308   8.106  18.451  0.00  0.00    +0.000 C 
ATOM      3  O   UNL     1       2.500   8.395  17.274  0.00  0.00    +0.000 OA
BRANCH   2   4
ATOM      4  C   UNL     1       1.432   8.898  19.406  0.00  0.00    +0.000 C 
BRANCH   4   5
ATOM      5  O   UNL     1       1.190  10.212  18.948  0.00  0.00    +0.000 OA
BRANCH   5   6
ATOM      6  C   UNL     1      -0.117  10.536  18.701  0.00  0.00    +0.000 A 
ATOM      7  C   UNL     1      -0.673  11.436  19.608  0.00  0.00    +0.000 A 
ATOM      8  C   UNL     1      -2.005  11.833  19.487  0.00  0.00    +0.000 A 
ATOM      9  C   UNL     1      -2.802  11.328  18.455  0.00  0.00    +0.000 A 
ATOM     10 CL   UNL     1      -4.442  11.859  18.388  0.00  0.00    +0.000 Cl
ATOM     11  C   UNL     1      -2.265  10.424  17.527  0.00  0.00    +0.000 A 
ATOM     12  C   UNL     1      -3.054   9.819  16.398  0.00  0.00    +0.000 C 
ATOM     13  C   UNL     1      -0.913  10.042  17.660  0.00  0.00    +0.000 A 
ENDBRANCH   5   6
ENDBRANCH   4   5
ENDBRANCH   2   4
ENDBRANCH   1   2
BRANCH   1  14
ATOM     14  C   UNL     1       3.076   5.882  18.070  0.00  0.00    +0.000 C 
BRANCH  14  15
ATOM     15  C   UNL     1       4.584   5.885  18.063  0.00  0.00    +0.000 A 
ATOM     16  C   UNL     1       5.541   6.448  17.243  0.00  0.00    +0.000 A 
ATOM     17  C   UNL     1       6.794   6.211  17.865  0.00  0.00    +0.000 A 
ATOM     18  C   UNL     1       6.528   5.506  19.014  0.00  0.00    +0.000 A 
ATOM     19  O   UNL     1       5.195   5.312  19.147  0.00  0.00    +0.000 OA
ENDBRANCH  14  15
BRANCH  14  20
ATOM     20  P   UNL     1       2.490   4.243  18.633  0.00  0.00    +0.000 P 
ATOM     21  O   UNL     1       1.356   4.301  17.588  0.00  0.00    +0.000 OA
BRANCH  20  23
ATOM     22  C   UNL     1       0.636   2.351  18.731  0.00  0.00    +0.000 C 
ATOM     23  O   UNL     1       1.937   2.693  19.166  0.00  0.00    +0.000 OA
ENDBRANCH  20  23
BRANCH  20  24
ATOM     24  O   UNL     1       1.876   4.930  20.016  0.00  0.00    +0.000 OA
ATOM     25  C   UNL     1       2.228   4.352  21.258  0.00  0.00    +0.000 C 
ENDBRANCH  20  24
ENDBRANCH  14  20
ENDBRANCH   1  14
TORSDOF 9
ENDMDL
MODEL 5
REMARK VINA RESULT:      -6.6      3.965      7.523
REMARK  Name = 
REMARK  12 active torsions:
REMARK  status: ('A' for Active; 'I' for Inactive)
REMARK    1  A    between atoms: C_1  and  O_2
REMARK    2  A    between atoms: O_2  and  P_3
REMARK    3  A    between atoms: P_3  and  O_5
REMARK    4  A    between atoms: P_3  and  C_7
REMARK    5  A    between atoms: O_5  and  C_6
REMARK    6  A    between atoms: C_7  and  O_8
REMARK    7  A    between atoms: C_7  and  C_21
REMARK    8  A    between atoms: O_8  and  C_9
REMARK    9  A    between atoms: C_9  and  C_11
REMARK   10  A    between atoms: C_11  and  O_12
REMARK   11  A    between atoms: O_12  and  C_13
REMARK   12  A    between atoms: C_18  and  C_19
REMARK                            x       y       z     vdW  Elec       q    Type
REMARK                         _______ _______ _______ _____ _____    ______ ____
ROOT
ATOM      1  O   UNL     1       2.668   6.863  18.945  0.00  0.00    +0.000 OA
ENDROOT
BRANCH   1   2
ATOM      2  C   UNL     1       2.244   8.079  18.486  0.00  0.00    +0.000 C 
ATOM      3  O   UNL     1       2.414   8.466  17.334  0.00  0.00    +0.000 OA
BRANCH   2   4
ATOM      4  C   UNL     1       1.385   8.784  19.520  0.00  0.00    +0.000 C 
BRANCH   4   5
ATOM      5  O   UNL     1       1.163  10.142  19.199  0.00  0.00    +0.000 OA
BRANCH   5   6
ATOM      6  C   UNL     1      -0.113  10.476  18.833  0.00  0.00    +0.000 A 
ATOM      7  C   UNL     1      -0.741  11.382  19.685  0.00  0.00    +0.000 A 
ATOM      8  C   UNL     1      -2.054  11.790  19.442  0.00  0.00    +0.000 A 
ATOM      9  C   UNL     1      -2.757  11.291  18.342  0.00  0.00    +0.000 A 
ATOM     10 CL   UNL     1      -4.380  11.836  18.125  0.00  0.00    +0.000 Cl
ATOM     11  C   UNL     1      -2.146  10.381  17.467  0.00  0.00    +0.000 A 
ATOM     12  C   UNL     1      -2.833   9.781  16.271  0.00  0.00    +0.000 C 
ATOM     13  C   UNL     1      -0.815   9.988  17.724  0.00  0.00    +0.000 A 
ENDBRANCH   5   6
ENDBRANCH   4   5
ENDBRANCH   2   4
ENDBRANCH   1   2
BRANCH   1  14
ATOM     14  C   UNL     1       3.174   5.960  17.915  0.00  0.00    +0.000 C 
BRANCH  14  15
ATOM     15  C   UNL     1       4.673   6.044  18.054  0.00  0.00    +0.000 A 
ATOM     16  C   UNL     1       5.604   5.403  18.847  0.00  0.00    +0.000 A 
ATOM     17  C   UNL     1       6.880   5.818  18.386  0.00  0.00    +0.000 A 
ATOM     18  C   UNL     1       6.652   6.696  17.355  0.00  0.00    +0.000 A 
ATOM     19  O   UNL     1       5.322   6.833  17.141  0.00  0.00    +0.000 OA
ENDBRANCH  14  15
BRANCH  14  20
ATOM     20  P   UNL     1       2.649   4.233  18.218  0.00  0.00    +0.000 P 
ATOM     21  O   UNL     1       1.375   4.486  17.385  0.00  0.00    +0.000 OA
BRANCH  20  23
ATOM     22  C   UNL     1       3.207   1.661  18.527  0.00  0.00    +0.000 C 
ATOM     23  O   UNL     1       2.152   2.602  18.505  0.00  0.00    +0.000 OA
ENDBRANCH  20  23
BRANCH  20  24
ATOM     24  O   UNL     1       2.256   4.621  19.785  0.00  0.00    +0.000 OA
ATOM     25  C   UNL     1       1.051   4.103  20.317  0.00  0.00    +0.000 C 
ENDBRANCH  20  24
ENDBRANCH  14  20
ENDBRANCH   1  14
TORSDOF 9
ENDMDL
MODEL 6
REMARK VINA RESULT:      -6.5      1.408      3.417
REMARK  Name = 
REMARK  12 active torsions:
REMARK  status: ('A' for Active; 'I' for Inactive)
REMARK    1  A    between atoms: C_1  and  O_2
REMARK    2  A    between atoms: O_2  and  P_3
REMARK    3  A    between atoms: P_3  and  O_5
REMARK    4  A    between atoms: P_3  and  C_7
REMARK    5  A    between atoms: O_5  and  C_6
REMARK    6  A    between atoms: C_7  and  O_8
REMARK    7  A    between atoms: C_7  and  C_21
REMARK    8  A    between atoms: O_8  and  C_9
REMARK    9  A    between atoms: C_9  and  C_11
REMARK   10  A    between atoms: C_11  and  O_12
REMARK   11  A    between atoms: O_12  and  C_13
REMARK   12  A    between atoms: C_18  and  C_19
REMARK                            x       y       z     vdW  Elec       q    Type
REMARK                         _______ _______ _______ _____ _____    ______ ____
ROOT
ATOM      1  O   UNL     1       5.175   5.361  19.299  0.00  0.00    +0.000 OA
ENDROOT
BRANCH   1   2
ATOM      2  C   UNL     1       6.495   5.540  18.994  0.00  0.00    +0.000 C 
ATOM      3  O   UNL     1       7.416   5.196  19.728  0.00  0.00    +0.000 OA
BRANCH   2   4
ATOM      4  C   UNL     1       6.663   6.036  17.568  0.00  0.00    +0.000 C 
BRANCH   4   5
ATOM      5  O   UNL     1       7.538   5.221  16.815  0.00  0.00    +0.000 OA
BRANCH   5   6
ATOM      6  C   UNL     1       7.081   4.812  15.590  0.00  0.00    +0.000 A 
ATOM      7  C   UNL     1       6.039   3.889  15.640  0.00  0.00    +0.000 A 
ATOM      8  C   UNL     1       5.495   3.370  14.463  0.00  0.00    +0.000 A 
ATOM      9  C   UNL     1       5.994   3.769  13.219  0.00  0.00    +0.000 A 
ATOM     10 CL   UNL     1       5.275   3.068  11.816  0.00  0.00    +0.000 Cl
ATOM     11  C   UNL     1       7.039   4.700  13.143  0.00  0.00    +0.000 A 
ATOM     12  C   UNL     1       7.647   5.171  11.850  0.00  0.00    +0.000 C 
ATOM     13  C   UNL     1       7.569   5.220  14.343  0.00  0.00    +0.000 A 
ENDBRANCH   5   6
ENDBRANCH   4   5
ENDBRANCH   2   4
ENDBRANCH   1   2
BRANCH   1  14
ATOM     14  C   UNL     1       4.271   5.385  18.153  0.00  0.00    +0.000 C 
BRANCH  14  15
ATOM     15  C   UNL     1       3.646   4.012  18.146  0.00  0.00    +0.000 A 
ATOM     16  C   UNL     1       2.680   3.398  17.375  0.00  0.00    +0.000 A 
ATOM     17  C   UNL     1       2.650   2.038  17.776  0.00  0.00    +0.000 A 
ATOM     18  C   UNL     1       3.584   1.907  18.774  0.00  0.00    +0.000 A 
ATOM     19  O   UNL     1       4.197   3.093  18.999  0.00  0.00    +0.000 OA
ENDBRANCH  14  15
BRANCH  14  20
ATOM     20  P   UNL     1       2.950   6.634  18.364  0.00  0.00    +0.000 P 
ATOM     21  O   UNL     1       3.978   7.752  18.089  0.00  0.00    +0.000 OA
BRANCH  20  23
ATOM     22  C   UNL     1       1.851   8.970  17.765  0.00  0.00    +0.000 C 
ATOM     23  O   UNL     1       1.702   7.814  18.564  0.00  0.00    +0.000 OA
ENDBRANCH  20  23
BRANCH  20  24
ATOM     24  O   UNL     1       2.970   6.386  20.007  0.00  0.00    +0.000 OA
ATOM     25  C   UNL     1       1.772   5.965  20.630  0.00  0.00    +0.000 C 
ENDBRANCH  20  24
ENDBRANCH  14  20
ENDBRANCH   1  14
TORSDOF 9
ENDMDL
MODEL 7
REMARK VINA RESULT:      -6.5      3.590      7.711
REMARK  Name = 
REMARK  12 active torsions:
REMARK  status: ('A' for Active; 'I' for Inactive)
REMARK    1  A    between atoms: C_1  and  O_2
REMARK    2  A    between atoms: O_2  and  P_3
REMARK    3  A    between atoms: P_3  and  O_5
REMARK    4  A    between atoms: P_3  and  C_7
REMARK    5  A    between atoms: O_5  and  C_6
REMARK    6  A    between atoms: C_7  and  O_8
REMARK    7  A    between atoms: C_7  and  C_21
REMARK    8  A    between atoms: O_8  and  C_9
REMARK    9  A    between atoms: C_9  and  C_11
REMARK   10  A    between atoms: C_11  and  O_12
REMARK   11  A    between atoms: O_12  and  C_13
REMARK   12  A    between atoms: C_18  and  C_19
REMARK                            x       y       z     vdW  Elec       q    Type
REMARK                         _______ _______ _______ _____ _____    ______ ____
ROOT
ATOM      1  O   UNL     1       3.660   5.778  17.336  0.00  0.00    +0.000 OA
ENDROOT
BRANCH   1   2
ATOM      2  C   UNL     1       2.952   6.628  18.139  0.00  0.00    +0.000 C 
ATOM      3  O   UNL     1       2.356   6.268  19.149  0.00  0.00    +0.000 OA
BRANCH   2   4
ATOM      4  C   UNL     1       3.162   8.073  17.724  0.00  0.00    +0.000 C 
BRANCH   4   5
ATOM      5  O   UNL     1       1.944   8.736  17.453  0.00  0.00    +0.000 OA
BRANCH   5   6
ATOM      6  C   UNL     1       1.587   9.727  18.329  0.00  0.00    +0.000 A 
ATOM      7  C   UNL     1       2.129  10.978  18.040  0.00  0.00    +0.000 A 
ATOM      8  C   UNL     1       1.865  12.071  18.867  0.00  0.00    +0.000 A 
ATOM      9  C   UNL     1       1.056  11.924  19.997  0.00  0.00    +0.000 A 
ATOM     10 CL   UNL     1       0.794  13.324  20.972  0.00  0.00    +0.000 Cl
ATOM     11  C   UNL     1       0.496  10.676  20.307  0.00  0.00    +0.000 A 
ATOM     12  C   UNL     1      -0.370  10.425  21.511  0.00  0.00    +0.000 C 
ATOM     13  C   UNL     1       0.766   9.585  19.454  0.00  0.00    +0.000 A 
ENDBRANCH   5   6
ENDBRANCH   4   5
ENDBRANCH   2   4
ENDBRANCH   1   2
BRANCH   1  14
ATOM     14  C   UNL     1       4.801   5.133  17.981  0.00  0.00    +0.000 C 
BRANCH  14  15
ATOM     15  C   UNL     1       4.288   3.767  18.360  0.00  0.00    +0.000 A 
ATOM     16  C   UNL     1       3.693   2.735  17.663  0.00  0.00    +0.000 A 
ATOM     17  C   UNL     1       3.587   1.647  18.567  0.00  0.00    +0.000 A 
ATOM     18  C   UNL     1       4.107   2.083  19.761  0.00  0.00    +0.000 A 
ATOM     19  O   UNL     1       4.541   3.360  19.643  0.00  0.00    +0.000 OA
ENDBRANCH  14  15
BRANCH  14  20
ATOM     20  P   UNL     1       6.205   4.936  16.823  0.00  0.00    +0.000 P 
ATOM     21  O   UNL     1       7.096   4.480  17.997  0.00  0.00    +0.000 OA
BRANCH  20  23
ATOM     22  C   UNL     1       7.168   4.743  14.361  0.00  0.00    +0.000 C 
ATOM     23  O   UNL     1       7.530   4.751  15.727  0.00  0.00    +0.000 OA
ENDBRANCH  20  23
BRANCH  20  24
ATOM     24  O   UNL     1       6.371   6.587  16.735  0.00  0.00    +0.000 OA
ATOM     25  C   UNL     1       7.392   7.194  17.504  0.00  0.00    +0.000 C 
ENDBRANCH  20  24
ENDBRANCH  14  20
ENDBRANCH   1  14
TORSDOF 9
ENDMDL
MODEL 8
REMARK VINA RESULT:      -6.5      3.729      7.459
REMARK  Name = 
REMARK  12 active torsions:
REMARK  status: ('A' for Active; 'I' for Inactive)
REMARK    1  A    between atoms: C_1  and  O_2
REMARK    2  A    between atoms: O_2  and  P_3
REMARK    3  A    between atoms: P_3  and  O_5
REMARK    4  A    between atoms: P_3  and  C_7
REMARK    5  A    between atoms: O_5  and  C_6
REMARK    6  A    between atoms: C_7  and  O_8
REMARK    7  A    between atoms: C_7  and  C_21
REMARK    8  A    between atoms: O_8  and  C_9
REMARK    9  A    between atoms: C_9  and  C_11
REMARK   10  A    between atoms: C_11  and  O_12
REMARK   11  A    between atoms: O_12  and  C_13
REMARK   12  A    between atoms: C_18  and  C_19
REMARK                            x       y       z     vdW  Elec       q    Type
REMARK                         _______ _______ _______ _____ _____    ______ ____
ROOT
ATOM      1  O   UNL     1       3.917   6.294  18.833  0.00  0.00    +0.000 OA
ENDROOT
BRANCH   1   2
ATOM      2  C   UNL     1       3.509   7.202  17.896  0.00  0.00    +0.000 C 
ATOM      3  O   UNL     1       3.925   7.221  16.742  0.00  0.00    +0.000 OA
BRANCH   2   4
ATOM      4  C   UNL     1       2.355   8.041  18.416  0.00  0.00    +0.000 C 
BRANCH   4   5
ATOM      5  O   UNL     1       2.023   7.726  19.753  0.00  0.00    +0.000 OA
BRANCH   5   6
ATOM      6  C   UNL     1       1.243   8.638  20.414  0.00  0.00    +0.000 A 
ATOM      7  C   UNL     1       1.260   8.517  21.802  0.00  0.00    +0.000 A 
ATOM      8  C   UNL     1       0.491   9.368  22.597  0.00  0.00    +0.000 A 
ATOM      9  C   UNL     1      -0.311  10.351  22.009  0.00  0.00    +0.000 A 
ATOM     10 CL   UNL     1      -1.242  11.350  23.064  0.00  0.00    +0.000 Cl
ATOM     11  C   UNL     1      -0.343  10.495  20.614  0.00  0.00    +0.000 A 
ATOM     12  C   UNL     1      -1.190  11.512  19.899  0.00  0.00    +0.000 C 
ATOM     13  C   UNL     1       0.449   9.632  19.828  0.00  0.00    +0.000 A 
ENDBRANCH   5   6
ENDBRANCH   4   5
ENDBRANCH   2   4
ENDBRANCH   1   2
BRANCH   1  14
ATOM     14  C   UNL     1       4.003   4.916  18.355  0.00  0.00    +0.000 C 
BRANCH  14  15
ATOM     15  C   UNL     1       5.461   4.732  18.017  0.00  0.00    +0.000 A 
ATOM     16  C   UNL     1       6.154   4.492  16.848  0.00  0.00    +0.000 A 
ATOM     17  C   UNL     1       7.533   4.577  17.173  0.00  0.00    +0.000 A 
ATOM     18  C   UNL     1       7.598   4.847  18.518  0.00  0.00    +0.000 A 
ATOM     19  O   UNL     1       6.350   4.951  19.035  0.00  0.00    +0.000 OA
ENDBRANCH  14  15
BRANCH  14  20
ATOM     20  P   UNL     1       3.544   3.722  19.663  0.00  0.00    +0.000 P 
ATOM     21  O   UNL     1       4.012   2.564  18.756  0.00  0.00    +0.000 OA
BRANCH  20  23
ATOM     22  C   UNL     1       1.807   2.765  21.422  0.00  0.00    +0.000 C 
ATOM     23  O   UNL     1       3.110   2.594  20.900  0.00  0.00    +0.000 OA
ENDBRANCH  20  23
BRANCH  20  24
ATOM     24  O   UNL     1       1.935   3.953  19.319  0.00  0.00    +0.000 OA
ATOM     25  C   UNL     1       1.550   4.026  17.960  0.00  0.00    +0.000 C 
ENDBRANCH  20  24
ENDBRANCH  14  20
ENDBRANCH   1  14
TORSDOF 9
ENDMDL
MODEL 9
REMARK VINA RESULT:      -6.5      3.685      7.575
REMARK  Name = 
REMARK  12 active torsions:
REMARK  status: ('A' for Active; 'I' for Inactive)
REMARK    1  A    between atoms: C_1  and  O_2
REMARK    2  A    between atoms: O_2  and  P_3
REMARK    3  A    between atoms: P_3  and  O_5
REMARK    4  A    between atoms: P_3  and  C_7
REMARK    5  A    between atoms: O_5  and  C_6
REMARK    6  A    between atoms: C_7  and  O_8
REMARK    7  A    between atoms: C_7  and  C_21
REMARK    8  A    between atoms: O_8  and  C_9
REMARK    9  A    between atoms: C_9  and  C_11
REMARK   10  A    between atoms: C_11  and  O_12
REMARK   11  A    between atoms: O_12  and  C_13
REMARK   12  A    between atoms: C_18  and  C_19
REMARK                            x       y       z     vdW  Elec       q    Type
REMARK                         _______ _______ _______ _____ _____    ______ ____
ROOT
ATOM      1  O   UNL     1       3.621   5.848  17.509  0.00  0.00    +0.000 OA
ENDROOT
BRANCH   1   2
ATOM      2  C   UNL     1       3.000   6.750  18.327  0.00  0.00    +0.000 C 
ATOM      3  O   UNL     1       2.701   6.515  19.494  0.00  0.00    +0.000 OA
BRANCH   2   4
ATOM      4  C   UNL     1       2.909   8.114  17.667  0.00  0.00    +0.000 C 
BRANCH   4   5
ATOM      5  O   UNL     1       1.614   8.671  17.761  0.00  0.00    +0.000 OA
BRANCH   5   6
ATOM      6  C   UNL     1       1.511   9.852  18.448  0.00  0.00    +0.000 A 
ATOM      7  C   UNL     1       0.793   9.768  19.639  0.00  0.00    +0.000 A 
ATOM      8  C   UNL     1       0.591  10.903  20.426  0.00  0.00    +0.000 A 
ATOM      9  C   UNL     1       1.104  12.140  20.026  0.00  0.00    +0.000 A 
ATOM     10 CL   UNL     1       0.795  13.495  21.050  0.00  0.00    +0.000 Cl
ATOM     11  C   UNL     1       1.834  12.250  18.833  0.00  0.00    +0.000 A 
ATOM     12  C   UNL     1       2.405  13.543  18.320  0.00  0.00    +0.000 C 
ATOM     13  C   UNL     1       2.036  11.090  18.056  0.00  0.00    +0.000 A 
ENDBRANCH   5   6
ENDBRANCH   4   5
ENDBRANCH   2   4
ENDBRANCH   1   2
BRANCH   1  14
ATOM     14  C   UNL     1       4.740   5.135  18.118  0.00  0.00    +0.000 C 
BRANCH  14  15
ATOM     15  C   UNL     1       4.187   3.765  18.417  0.00  0.00    +0.000 A 
ATOM     16  C   UNL     1       3.694   2.736  17.641  0.00  0.00    +0.000 A 
ATOM     17  C   UNL     1       3.475   1.641  18.516  0.00  0.00    +0.000 A 
ATOM     18  C   UNL     1       3.831   2.070  19.771  0.00  0.00    +0.000 A 
ATOM     19  O   UNL     1       4.270   3.350  19.720  0.00  0.00    +0.000 OA
ENDBRANCH  14  15
BRANCH  14  20
ATOM     20  P   UNL     1       6.142   4.966  16.955  0.00  0.00    +0.000 P 
ATOM     21  O   UNL     1       7.030   4.465  18.113  0.00  0.00    +0.000 OA
BRANCH  20  23
ATOM     22  C   UNL     1       7.110   4.878  14.488  0.00  0.00    +0.000 C 
ATOM     23  O   UNL     1       7.467   4.807  15.854  0.00  0.00    +0.000 OA
ENDBRANCH  20  23
BRANCH  20  24
ATOM     24  O   UNL     1       6.322   6.618  16.921  0.00  0.00    +0.000 OA
ATOM     25  C   UNL     1       7.468   7.174  17.535  0.00  0.00    +0.000 C 
ENDBRANCH  20  24
ENDBRANCH  14  20
ENDBRANCH   1  14
TORSDOF 9
ENDMDL
