MODEL 1
REMARK VINA RESULT:      -8.4      0.000      0.000
REMARK  Name = 
REMARK  9 active torsions:
REMARK  status: ('A' for Active; 'I' for Inactive)
REMARK    1  A    between atoms: C_1  and  C_2
REMARK    2  A    between atoms: C_5  and  C_6
REMARK    3  A    between atoms: N_7  and  C_8
REMARK    4  A    between atoms: N_15  and  C_16
REMARK    5  A    between atoms: C_16  and  C_17
REMARK    6  A    between atoms: C_17  and  C_18
REMARK    7  A    between atoms: C_18  and  N_19
REMARK    8  A    between atoms: C_18  and  C_26
REMARK    9  A    between atoms: C_20  and  C_22
REMARK                            x       y       z     vdW  Elec       q    Type
REMARK                         _______ _______ _______ _____ _____    ______ ____
ROOT
ATOM      1  C   UNL     1       2.045   9.045  19.021  0.00  0.00    +0.000 C 
ENDROOT
BRANCH   1   9
ATOM      2  C   UNL     1      -1.639  10.676  18.696  0.00  0.00    +0.000 C 
ATOM      3  C   UNL     1      -0.499  11.620  18.271  0.00  0.00    +0.000 C 
ATOM      4  C   UNL     1       0.854  11.135  18.832  0.00  0.00    +0.000 C 
ATOM      5  C   UNL     1       1.197  11.697  20.229  0.00  0.00    +0.000 C 
ATOM      6  C   UNL     1       0.799  10.600  21.221  0.00  0.00    +0.000 C 
ATOM      7  C   UNL     1      -0.023   9.652  20.357  0.00  0.00    +0.000 C 
ATOM      8  C   UNL     1      -1.459  10.267  20.165  0.00  0.00    +0.000 C 
ATOM      9  N   UNL     1       0.716   9.679  19.064  0.00  0.00    +0.000 NA
BRANCH   2  16
ATOM     10  C   UNL     1      -3.752  12.627  20.112  0.00  0.00    +0.000 C 
ATOM     11  C   UNL     1      -3.865  11.964  18.800  0.00  0.00    +0.000 A 
ATOM     12  N   UNL     1      -4.876  12.103  17.967  0.00  0.00    +0.000 NA
ATOM     13  N   UNL     1      -4.629  11.353  16.846  0.00  0.00    +0.000 NA
ATOM     14  C   UNL     1      -3.465  10.761  17.004  0.00  0.00    +0.000 A 
ATOM     15  C   UNL     1      -2.798   9.865  16.026  0.00  0.00    +0.000 C 
ATOM     16  N   UNL     1      -2.942  11.109  18.234  0.00  0.00    +0.000 N 
ENDBRANCH   2  16
ENDBRANCH   1   9
BRANCH   1  17
ATOM     17  C   UNL     1       2.338   8.071  17.878  0.00  0.00    +0.000 C 
BRANCH  17  18
ATOM     18  C   UNL     1       3.186   6.847  18.278  0.00  0.00    +0.000 C 
BRANCH  18  19
ATOM     19  C   UNL     1       2.396   5.640  18.769  0.00  0.00    +0.000 A 
ATOM     20  C   UNL     1       2.015   4.662  17.833  0.00  0.00    +0.000 A 
ATOM     21  C   UNL     1       1.385   3.485  18.238  0.00  0.00    +0.000 A 
ATOM     22  C   UNL     1       1.083   3.284  19.581  0.00  0.00    +0.000 A 
ATOM     23  C   UNL     1       1.392   4.271  20.515  0.00  0.00    +0.000 A 
ATOM     24  C   UNL     1       2.039   5.445  20.114  0.00  0.00    +0.000 A 
ENDBRANCH  18  19
BRANCH  18  25
ATOM     25  N   UNL     1       4.060   6.442  17.180  0.00  0.00    +0.000 N 
ATOM     26  C   UNL     1       5.383   6.113  17.401  0.00  0.00    +0.000 C 
ATOM     27  O   UNL     1       5.882   6.170  18.526  0.00  0.00    +0.000 OA
ATOM     28  H   UNL     1       3.660   6.335  16.256  0.00  0.00    +0.000 HD
BRANCH  26  29
ATOM     29  C   UNL     1       6.158   5.676  16.123  0.00  0.00    +0.000 C 
ATOM     30  C   UNL     1       6.920   4.322  16.186  0.00  0.00    +0.000 C 
ATOM     31  C   UNL     1       6.446   4.040  14.751  0.00  0.00    +0.000 C 
ATOM     32  C   UNL     1       5.311   5.052  14.982  0.00  0.00    +0.000 C 
ENDBRANCH  26  29
ENDBRANCH  18  25
ENDBRANCH  17  18
ENDBRANCH   1  17
TORSDOF 7
ENDMDL
MODEL 2
REMARK VINA RESULT:      -8.2      2.458      3.538
REMARK  Name = 
REMARK  9 active torsions:
REMARK  status: ('A' for Active; 'I' for Inactive)
REMARK    1  A    between atoms: C_1  and  C_2
REMARK    2  A    between atoms: C_5  and  C_6
REMARK    3  A    between atoms: N_7  and  C_8
REMARK    4  A    between atoms: N_15  and  C_16
REMARK    5  A    between atoms: C_16  and  C_17
REMARK    6  A    between atoms: C_17  and  C_18
REMARK    7  A    between atoms: C_18  and  N_19
REMARK    8  A    between atoms: C_18  and  C_26
REMARK    9  A    between atoms: C_20  and  C_22
REMARK                            x       y       z     vdW  Elec       q    Type
REMARK                         _______ _______ _______ _____ _____    ______ ____
ROOT
ATOM      1  C   UNL     1       1.570   8.899  19.462  0.00  0.00    +0.000 C 
ENDROOT
BRANCH   1   9
ATOM      2  C   UNL     1       1.146  12.904  19.127  0.00  0.00    +0.000 C 
ATOM      3  C   UNL     1       1.199  12.401  20.582  0.00  0.00    +0.000 C 
ATOM      4  C   UNL     1       0.903  10.888  20.651  0.00  0.00    +0.000 C 
ATOM      5  C   UNL     1      -0.594  10.543  20.811  0.00  0.00    +0.000 C 
ATOM      6  C   UNL     1      -1.091  10.213  19.401  0.00  0.00    +0.000 C 
ATOM      7  C   UNL     1       0.053  10.700  18.522  0.00  0.00    +0.000 C 
ATOM      8  C   UNL     1      -0.044  12.266  18.396  0.00  0.00    +0.000 C 
ATOM      9  N   UNL     1       1.252  10.330  19.325  0.00  0.00    +0.000 NA
BRANCH   2  16
ATOM     10  C   UNL     1      -0.816  15.339  19.831  0.00  0.00    +0.000 C 
ATOM     11  C   UNL     1       0.565  15.403  19.322  0.00  0.00    +0.000 A 
ATOM     12  N   UNL     1       1.239  16.515  19.101  0.00  0.00    +0.000 NA
ATOM     13  N   UNL     1       2.491  16.188  18.648  0.00  0.00    +0.000 NA
ATOM     14  C   UNL     1       2.572  14.877  18.597  0.00  0.00    +0.000 A 
ATOM     15  C   UNL     1       3.760  14.088  18.178  0.00  0.00    +0.000 C 
ATOM     16  N   UNL     1       1.373  14.330  19.007  0.00  0.00    +0.000 N 
ENDBRANCH   2  16
ENDBRANCH   1   9
BRANCH   1  17
ATOM     17  C   UNL     1       2.150   8.173  18.245  0.00  0.00    +0.000 C 
BRANCH  17  18
ATOM     18  C   UNL     1       3.040   6.961  18.584  0.00  0.00    +0.000 C 
BRANCH  18  19
ATOM     19  C   UNL     1       2.292   5.681  18.935  0.00  0.00    +0.000 A 
ATOM     20  C   UNL     1       1.942   4.802  17.894  0.00  0.00    +0.000 A 
ATOM     21  C   UNL     1       1.352   3.567  18.164  0.00  0.00    +0.000 A 
ATOM     22  C   UNL     1       1.060   3.206  19.475  0.00  0.00    +0.000 A 
ATOM     23  C   UNL     1       1.337   4.091  20.514  0.00  0.00    +0.000 A 
ATOM     24  C   UNL     1       1.944   5.324  20.249  0.00  0.00    +0.000 A 
ENDBRANCH  18  19
BRANCH  18  25
ATOM     25  N   UNL     1       3.981   6.692  17.500  0.00  0.00    +0.000 N 
ATOM     26  C   UNL     1       5.203   6.095  17.743  0.00  0.00    +0.000 C 
ATOM     27  O   UNL     1       5.554   5.787  18.883  0.00  0.00    +0.000 OA
ATOM     28  H   UNL     1       3.694   6.886  16.549  0.00  0.00    +0.000 HD
BRANCH  26  29
ATOM     29  C   UNL     1       6.066   5.857  16.469  0.00  0.00    +0.000 C 
ATOM     30  C   UNL     1       7.056   4.657  16.499  0.00  0.00    +0.000 C 
ATOM     31  C   UNL     1       6.665   4.357  15.043  0.00  0.00    +0.000 C 
ATOM     32  C   UNL     1       5.365   5.142  15.284  0.00  0.00    +0.000 C 
ENDBRANCH  26  29
ENDBRANCH  18  25
ENDBRANCH  17  18
ENDBRANCH   1  17
TORSDOF 7
ENDMDL
MODEL 3
REMARK VINA RESULT:      -8.2      1.541      3.698
REMARK  Name = 
REMARK  9 active torsions:
REMARK  status: ('A' for Active; 'I' for Inactive)
REMARK    1  A    between atoms: C_1  and  C_2
REMARK    2  A    between atoms: C_5  and  C_6
REMARK    3  A    between atoms: N_7  and  C_8
REMARK    4  A    between atoms: N_15  and  C_16
REMARK    5  A    between atoms: C_16  and  C_17
REMARK    6  A    between atoms: C_17  and  C_18
REMARK    7  A    between atoms: C_18  and  N_19
REMARK    8  A    between atoms: C_18  and  C_26
REMARK    9  A    between atoms: C_20  and  C_22
REMARK                            x       y       z     vdW  Elec       q    Type
REMARK                         _______ _______ _______ _____ _____    ______ ____
ROOT
ATOM      1  C   UNL     1       2.022   8.422  19.276  0.00  0.00    +0.000 C 
ENDROOT
BRANCH   1   9
ATOM      2  C   UNL     1      -1.470  10.397  18.782  0.00  0.00    +0.000 C 
ATOM      3  C   UNL     1      -0.234  11.188  18.314  0.00  0.00    +0.000 C 
ATOM      4  C   UNL     1       1.056  10.605  18.929  0.00  0.00    +0.000 C 
ATOM      5  C   UNL     1       1.442  11.222  20.291  0.00  0.00    +0.000 C 
ATOM      6  C   UNL     1       0.922  10.242  21.346  0.00  0.00    +0.000 C 
ATOM      7  C   UNL     1       0.015   9.328  20.534  0.00  0.00    +0.000 C 
ATOM      8  C   UNL     1      -1.348  10.073  20.278  0.00  0.00    +0.000 C 
ATOM      9  N   UNL     1       0.766   9.190  19.254  0.00  0.00    +0.000 NA
BRANCH   2  16
ATOM     10  C   UNL     1      -3.416  12.600  20.061  0.00  0.00    +0.000 C 
ATOM     11  C   UNL     1      -3.565  11.892  18.777  0.00  0.00    +0.000 A 
ATOM     12  N   UNL     1      -4.541  12.088  17.914  0.00  0.00    +0.000 NA
ATOM     13  N   UNL     1      -4.344  11.268  16.833  0.00  0.00    +0.000 NA
ATOM     14  C   UNL     1      -3.246  10.578  17.045  0.00  0.00    +0.000 A 
ATOM     15  C   UNL     1      -2.647   9.579  16.122  0.00  0.00    +0.000 C 
ATOM     16  N   UNL     1      -2.716  10.930  18.270  0.00  0.00    +0.000 N 
ENDBRANCH   2  16
ENDBRANCH   1   9
BRANCH   1  17
ATOM     17  C   UNL     1       2.613   7.977  17.936  0.00  0.00    +0.000 C 
BRANCH  17  18
ATOM     18  C   UNL     1       3.077   6.508  17.895  0.00  0.00    +0.000 C 
BRANCH  18  19
ATOM     19  C   UNL     1       4.584   6.299  17.983  0.00  0.00    +0.000 A 
ATOM     20  C   UNL     1       5.406   6.935  17.036  0.00  0.00    +0.000 A 
ATOM     21  C   UNL     1       6.797   6.867  17.129  0.00  0.00    +0.000 A 
ATOM     22  C   UNL     1       7.391   6.125  18.144  0.00  0.00    +0.000 A 
ATOM     23  C   UNL     1       6.594   5.432  19.052  0.00  0.00    +0.000 A 
ATOM     24  C   UNL     1       5.199   5.511  18.971  0.00  0.00    +0.000 A 
ENDBRANCH  18  19
BRANCH  18  25
ATOM     25  N   UNL     1       2.417   5.727  18.938  0.00  0.00    +0.000 N 
ATOM     26  C   UNL     1       1.691   4.592  18.632  0.00  0.00    +0.000 C 
ATOM     27  O   UNL     1       1.554   4.209  17.469  0.00  0.00    +0.000 OA
ATOM     28  H   UNL     1       2.560   5.991  19.904  0.00  0.00    +0.000 HD
BRANCH  26  29
ATOM     29  C   UNL     1       1.080   3.869  19.868  0.00  0.00    +0.000 C 
ATOM     30  C   UNL     1       1.431   2.365  20.052  0.00  0.00    +0.000 C 
ATOM     31  C   UNL     1       1.570   2.628  21.560  0.00  0.00    +0.000 C 
ATOM     32  C   UNL     1       1.785   4.114  21.229  0.00  0.00    +0.000 C 
ENDBRANCH  26  29
ENDBRANCH  18  25
ENDBRANCH  17  18
ENDBRANCH   1  17
TORSDOF 7
ENDMDL
MODEL 4
REMARK VINA RESULT:      -8.1      0.222      1.688
REMARK  Name = 
REMARK  9 active torsions:
REMARK  status: ('A' for Active; 'I' for Inactive)
REMARK    1  A    between atoms: C_1  and  C_2
REMARK    2  A    between atoms: C_5  and  C_6
REMARK    3  A    between atoms: N_7  and  C_8
REMARK    4  A    between atoms: N_15  and  C_16
REMARK    5  A    between atoms: C_16  and  C_17
REMARK    6  A    between atoms: C_17  and  C_18
REMARK    7  A    between atoms: C_18  and  N_19
REMARK    8  A    between atoms: C_18  and  C_26
REMARK    9  A    between atoms: C_20  and  C_22
REMARK                            x       y       z     vdW  Elec       q    Type
REMARK                         _______ _______ _______ _____ _____    ______ ____
ROOT
ATOM      1  C   UNL     1       1.852   8.870  19.258  0.00  0.00    +0.000 C 
ENDROOT
BRANCH   1   9
ATOM      2  C   UNL     1      -1.708  10.673  18.612  0.00  0.00    +0.000 C 
ATOM      3  C   UNL     1      -0.497  11.480  18.104  0.00  0.00    +0.000 C 
ATOM      4  C   UNL     1       0.807  10.988  18.765  0.00  0.00    +0.000 C 
ATOM      5  C   UNL     1       1.155  11.704  20.088  0.00  0.00    +0.000 C 
ATOM      6  C   UNL     1       0.662  10.774  21.199  0.00  0.00    +0.000 C 
ATOM      7  C   UNL     1      -0.201   9.775  20.440  0.00  0.00    +0.000 C 
ATOM      8  C   UNL     1      -1.588  10.449  20.126  0.00  0.00    +0.000 C 
ATOM      9  N   UNL     1       0.568   9.586  19.178  0.00  0.00    +0.000 NA
BRANCH   2  16
ATOM     10  C   UNL     1      -3.083   9.914  15.819  0.00  0.00    +0.000 C 
ATOM     11  C   UNL     1      -3.601  10.801  16.874  0.00  0.00    +0.000 A 
ATOM     12  N   UNL     1      -4.767  11.415  16.842  0.00  0.00    +0.000 NA
ATOM     13  N   UNL     1      -4.917  12.138  17.997  0.00  0.00    +0.000 NA
ATOM     14  C   UNL     1      -3.838  11.958  18.728  0.00  0.00    +0.000 A 
ATOM     15  C   UNL     1      -3.582  12.542  20.070  0.00  0.00    +0.000 C 
ATOM     16  N   UNL     1      -2.967  11.124  18.057  0.00  0.00    +0.000 N 
ENDBRANCH   2  16
ENDBRANCH   1   9
BRANCH   1  17
ATOM     17  C   UNL     1       2.258   7.991  18.073  0.00  0.00    +0.000 C 
BRANCH  17  18
ATOM     18  C   UNL     1       3.155   6.792  18.439  0.00  0.00    +0.000 C 
BRANCH  18  19
ATOM     19  C   UNL     1       2.413   5.514  18.809  0.00  0.00    +0.000 A 
ATOM     20  C   UNL     1       2.074   5.301  20.157  0.00  0.00    +0.000 A 
ATOM     21  C   UNL     1       1.303   4.203  20.541  0.00  0.00    +0.000 A 
ATOM     22  C   UNL     1       0.895   3.273  19.591  0.00  0.00    +0.000 A 
ATOM     23  C   UNL     1       1.277   3.430  18.260  0.00  0.00    +0.000 A 
ATOM     24  C   UNL     1       2.036   4.539  17.869  0.00  0.00    +0.000 A 
ENDBRANCH  18  19
BRANCH  18  25
ATOM     25  N   UNL     1       4.104   6.509  17.366  0.00  0.00    +0.000 N 
ATOM     26  C   UNL     1       5.374   6.039  17.639  0.00  0.00    +0.000 C 
ATOM     27  O   UNL     1       5.761   5.862  18.795  0.00  0.00    +0.000 OA
ATOM     28  H   UNL     1       3.792   6.595  16.407  0.00  0.00    +0.000 HD
BRANCH  26  29
ATOM     29  C   UNL     1       6.242   5.764  16.375  0.00  0.00    +0.000 C 
ATOM     30  C   UNL     1       6.972   4.393  16.303  0.00  0.00    +0.000 C 
ATOM     31  C   UNL     1       6.610   4.330  14.810  0.00  0.00    +0.000 C 
ATOM     32  C   UNL     1       5.479   5.332  15.095  0.00  0.00    +0.000 C 
ENDBRANCH  26  29
ENDBRANCH  18  25
ENDBRANCH  17  18
ENDBRANCH   1  17
TORSDOF 7
ENDMDL
MODEL 5
REMARK VINA RESULT:      -8.0      2.419      3.765
REMARK  Name = 
REMARK  9 active torsions:
REMARK  status: ('A' for Active; 'I' for Inactive)
REMARK    1  A    between atoms: C_1  and  C_2
REMARK    2  A    between atoms: C_5  and  C_6
REMARK    3  A    between atoms: N_7  and  C_8
REMARK    4  A    between atoms: N_15  and  C_16
REMARK    5  A    between atoms: C_16  and  C_17
REMARK    6  A    between atoms: C_17  and  C_18
REMARK    7  A    between atoms: C_18  and  N_19
REMARK    8  A    between atoms: C_18  and  C_26
REMARK    9  A    between atoms: C_20  and  C_22
REMARK                            x       y       z     vdW  Elec       q    Type
REMARK                         _______ _______ _______ _____ _____    ______ ____
ROOT
ATOM      1  C   UNL     1       1.592   8.787  19.576  0.00  0.00    +0.000 C 
ENDROOT
BRANCH   1   9
ATOM      2  C   UNL     1       1.240  12.794  19.182  0.00  0.00    +0.000 C 
ATOM      3  C   UNL     1       1.228  12.306  20.644  0.00  0.00    +0.000 C 
ATOM      4  C   UNL     1       0.908  10.799  20.717  0.00  0.00    +0.000 C 
ATOM      5  C   UNL     1      -0.599  10.476  20.822  0.00  0.00    +0.000 C 
ATOM      6  C   UNL     1      -1.045  10.137  19.397  0.00  0.00    +0.000 C 
ATOM      7  C   UNL     1       0.139  10.599  18.558  0.00  0.00    +0.000 C 
ATOM      8  C   UNL     1       0.070  12.165  18.412  0.00  0.00    +0.000 C 
ATOM      9  N   UNL     1       1.301  10.220  19.411  0.00  0.00    +0.000 NA
BRANCH   2  16
ATOM     10  C   UNL     1       3.876  14.308  18.168  0.00  0.00    +0.000 C 
ATOM     11  C   UNL     1       2.599  14.901  18.603  0.00  0.00    +0.000 A 
ATOM     12  N   UNL     1       2.328  16.190  18.611  0.00  0.00    +0.000 NA
ATOM     13  N   UNL     1       1.044  16.367  19.060  0.00  0.00    +0.000 NA
ATOM     14  C   UNL     1       0.541  15.181  19.322  0.00  0.00    +0.000 A 
ATOM     15  C   UNL     1      -0.831  14.901  19.816  0.00  0.00    +0.000 C 
ATOM     16  N   UNL     1       1.491  14.215  19.057  0.00  0.00    +0.000 N 
ENDBRANCH   2  16
ENDBRANCH   1   9
BRANCH   1  17
ATOM     17  C   UNL     1       2.078   8.009  18.351  0.00  0.00    +0.000 C 
BRANCH  17  18
ATOM     18  C   UNL     1       3.006   6.820  18.670  0.00  0.00    +0.000 C 
BRANCH  18  19
ATOM     19  C   UNL     1       2.300   5.501  18.958  0.00  0.00    +0.000 A 
ATOM     20  C   UNL     1       1.979   5.189  20.292  0.00  0.00    +0.000 A 
ATOM     21  C   UNL     1       1.239   4.049  20.606  0.00  0.00    +0.000 A 
ATOM     22  C   UNL     1       0.845   3.176  19.598  0.00  0.00    +0.000 A 
ATOM     23  C   UNL     1       1.210   3.432  18.278  0.00  0.00    +0.000 A 
ATOM     24  C   UNL     1       1.938   4.583  17.958  0.00  0.00    +0.000 A 
ENDBRANCH  18  19
BRANCH  18  25
ATOM     25  N   UNL     1       3.983   6.625  17.602  0.00  0.00    +0.000 N 
ATOM     26  C   UNL     1       5.213   6.047  17.853  0.00  0.00    +0.000 C 
ATOM     27  O   UNL     1       5.541   5.696  18.987  0.00  0.00    +0.000 OA
ATOM     28  H   UNL     1       3.717   6.855  16.654  0.00  0.00    +0.000 HD
BRANCH  26  29
ATOM     29  C   UNL     1       6.116   5.890  16.594  0.00  0.00    +0.000 C 
ATOM     30  C   UNL     1       7.071   4.663  16.558  0.00  0.00    +0.000 C 
ATOM     31  C   UNL     1       6.727   4.496  15.069  0.00  0.00    +0.000 C 
ATOM     32  C   UNL     1       5.441   5.296  15.330  0.00  0.00    +0.000 C 
ENDBRANCH  26  29
ENDBRANCH  18  25
ENDBRANCH  17  18
ENDBRANCH   1  17
TORSDOF 7
ENDMDL
MODEL 6
REMARK VINA RESULT:      -7.9      2.705      4.995
REMARK  Name = 
REMARK  9 active torsions:
REMARK  status: ('A' for Active; 'I' for Inactive)
REMARK    1  A    between atoms: C_1  and  C_2
REMARK    2  A    between atoms: C_5  and  C_6
REMARK    3  A    between atoms: N_7  and  C_8
REMARK    4  A    between atoms: N_15  and  C_16
REMARK    5  A    between atoms: C_16  and  C_17
REMARK    6  A    between atoms: C_17  and  C_18
REMARK    7  A    between atoms: C_18  and  N_19
REMARK    8  A    between atoms: C_18  and  C_26
REMARK    9  A    between atoms: C_20  and  C_22
REMARK                            x       y       z     vdW  Elec       q    Type
REMARK                         _______ _______ _______ _____ _____    ______ ____
ROOT
ATOM      1  C   UNL     1       1.831   8.585  19.081  0.00  0.00    +0.000 C 
ENDROOT
BRANCH   1   9
ATOM      2  C   UNL     1       0.995  12.537  19.235  0.00  0.00    +0.000 C 
ATOM      3  C   UNL     1       1.154  11.878  20.618  0.00  0.00    +0.000 C 
ATOM      4  C   UNL     1       1.015  10.344  20.515  0.00  0.00    +0.000 C 
ATOM      5  C   UNL     1      -0.433   9.829  20.673  0.00  0.00    +0.000 C 
ATOM      6  C   UNL     1      -0.948   9.613  19.247  0.00  0.00    +0.000 C 
ATOM      7  C   UNL     1       0.106  10.315  18.402  0.00  0.00    +0.000 C 
ATOM      8  C   UNL     1      -0.152  11.867  18.465  0.00  0.00    +0.000 C 
ATOM      9  N   UNL     1       1.366   9.981  19.123  0.00  0.00    +0.000 NA
BRANCH   2  16
ATOM     10  C   UNL     1      -1.163  14.655  20.298  0.00  0.00    +0.000 C 
ATOM     11  C   UNL     1       0.179  14.922  19.750  0.00  0.00    +0.000 A 
ATOM     12  N   UNL     1       0.727  16.116  19.639  0.00  0.00    +0.000 NA
ATOM     13  N   UNL     1       1.981  15.976  19.105  0.00  0.00    +0.000 NA
ATOM     14  C   UNL     1       2.190  14.695  18.893  0.00  0.00    +0.000 A 
ATOM     15  C   UNL     1       3.428  14.089  18.339  0.00  0.00    +0.000 C 
ATOM     16  N   UNL     1       1.072  13.982  19.279  0.00  0.00    +0.000 N 
ENDBRANCH   2  16
ENDBRANCH   1   9
BRANCH   1  17
ATOM     17  C   UNL     1       2.656   8.140  17.871  0.00  0.00    +0.000 C 
BRANCH  17  18
ATOM     18  C   UNL     1       3.088   6.661  17.897  0.00  0.00    +0.000 C 
BRANCH  18  19
ATOM     19  C   UNL     1       4.591   6.423  17.987  0.00  0.00    +0.000 A 
ATOM     20  C   UNL     1       5.088   5.673  19.067  0.00  0.00    +0.000 A 
ATOM     21  C   UNL     1       6.438   5.332  19.147  0.00  0.00    +0.000 A 
ATOM     22  C   UNL     1       7.325   5.773  18.170  0.00  0.00    +0.000 A 
ATOM     23  C   UNL     1       6.865   6.574  17.127  0.00  0.00    +0.000 A 
ATOM     24  C   UNL     1       5.508   6.904  17.036  0.00  0.00    +0.000 A 
ENDBRANCH  18  19
BRANCH  18  25
ATOM     25  N   UNL     1       2.418   5.944  18.978  0.00  0.00    +0.000 N 
ATOM     26  C   UNL     1       1.826   4.714  18.765  0.00  0.00    +0.000 C 
ATOM     27  O   UNL     1       1.822   4.186  17.652  0.00  0.00    +0.000 OA
ATOM     28  H   UNL     1       2.455   6.332  19.912  0.00  0.00    +0.000 HD
BRANCH  26  29
ATOM     29  C   UNL     1       1.183   4.082  20.034  0.00  0.00    +0.000 C 
ATOM     30  C   UNL     1       1.170   2.529  20.121  0.00  0.00    +0.000 C 
ATOM     31  C   UNL     1       1.520   2.655  21.613  0.00  0.00    +0.000 C 
ATOM     32  C   UNL     1       2.060   4.063  21.315  0.00  0.00    +0.000 C 
ENDBRANCH  26  29
ENDBRANCH  18  25
ENDBRANCH  17  18
ENDBRANCH   1  17
TORSDOF 7
ENDMDL
MODEL 7
REMARK VINA RESULT:      -7.9      0.395      1.475
REMARK  Name = 
REMARK  9 active torsions:
REMARK  status: ('A' for Active; 'I' for Inactive)
REMARK    1  A    between atoms: C_1  and  C_2
REMARK    2  A    between atoms: C_5  and  C_6
REMARK    3  A    between atoms: N_7  and  C_8
REMARK    4  A    between atoms: N_15  and  C_16
REMARK    5  A    between atoms: C_16  and  C_17
REMARK    6  A    between atoms: C_17  and  C_18
REMARK    7  A    between atoms: C_18  and  N_19
REMARK    8  A    between atoms: C_18  and  C_26
REMARK    9  A    between atoms: C_20  and  C_22
REMARK                            x       y       z     vdW  Elec       q    Type
REMARK                         _______ _______ _______ _____ _____    ______ ____
ROOT
ATOM      1  C   UNL     1       2.186   9.125  18.599  0.00  0.00    +0.000 C 
ENDROOT
BRANCH   1   9
ATOM      2  C   UNL     1      -1.528  10.717  18.506  0.00  0.00    +0.000 C 
ATOM      3  C   UNL     1      -0.405  11.734  18.222  0.00  0.00    +0.000 C 
ATOM      4  C   UNL     1       0.957  11.197  18.711  0.00  0.00    +0.000 C 
ATOM      5  C   UNL     1       1.291  11.559  20.174  0.00  0.00    +0.000 C 
ATOM      6  C   UNL     1       0.913  10.325  20.997  0.00  0.00    +0.000 C 
ATOM      7  C   UNL     1       0.109   9.495  20.006  0.00  0.00    +0.000 C 
ATOM      8  C   UNL     1      -1.339  10.105  19.901  0.00  0.00    +0.000 C 
ATOM      9  N   UNL     1       0.846   9.721  18.731  0.00  0.00    +0.000 NA
BRANCH   2  16
ATOM     10  C   UNL     1      -3.188  10.087  15.838  0.00  0.00    +0.000 C 
ATOM     11  C   UNL     1      -3.593  10.920  16.984  0.00  0.00    +0.000 A 
ATOM     12  N   UNL     1      -4.755  11.530  17.103  0.00  0.00    +0.000 NA
ATOM     13  N   UNL     1      -4.783  12.196  18.301  0.00  0.00    +0.000 NA
ATOM     14  C   UNL     1      -3.634  11.986  18.906  0.00  0.00    +0.000 A 
ATOM     15  C   UNL     1      -3.239  12.505  20.240  0.00  0.00    +0.000 C 
ATOM     16  N   UNL     1      -2.838  11.188  18.108  0.00  0.00    +0.000 N 
ENDBRANCH   2  16
ENDBRANCH   1   9
BRANCH   1  17
ATOM     17  C   UNL     1       2.369   7.983  17.597  0.00  0.00    +0.000 C 
BRANCH  17  18
ATOM     18  C   UNL     1       3.196   6.793  18.122  0.00  0.00    +0.000 C 
BRANCH  18  19
ATOM     19  C   UNL     1       2.390   5.677  18.775  0.00  0.00    +0.000 A 
ATOM     20  C   UNL     1       1.919   4.628  17.966  0.00  0.00    +0.000 A 
ATOM     21  C   UNL     1       1.268   3.526  18.523  0.00  0.00    +0.000 A 
ATOM     22  C   UNL     1       1.037   3.475  19.894  0.00  0.00    +0.000 A 
ATOM     23  C   UNL     1       1.436   4.536  20.704  0.00  0.00    +0.000 A 
ATOM     24  C   UNL     1       2.103   5.634  20.150  0.00  0.00    +0.000 A 
ENDBRANCH  18  19
BRANCH  18  25
ATOM     25  N   UNL     1       4.028   6.233  17.060  0.00  0.00    +0.000 N 
ATOM     26  C   UNL     1       5.377   6.521  16.979  0.00  0.00    +0.000 C 
ATOM     27  O   UNL     1       5.924   7.276  17.784  0.00  0.00    +0.000 OA
ATOM     28  H   UNL     1       3.614   5.568  16.419  0.00  0.00    +0.000 HD
BRANCH  26  29
ATOM     29  C   UNL     1       6.114   5.816  15.803  0.00  0.00    +0.000 C 
ATOM     30  C   UNL     1       7.036   4.616  16.163  0.00  0.00    +0.000 C 
ATOM     31  C   UNL     1       6.507   3.893  14.914  0.00  0.00    +0.000 C 
ATOM     32  C   UNL     1       5.277   4.814  14.965  0.00  0.00    +0.000 C 
ENDBRANCH  26  29
ENDBRANCH  18  25
ENDBRANCH  17  18
ENDBRANCH   1  17
TORSDOF 7
ENDMDL
MODEL 8
REMARK VINA RESULT:      -7.8      2.180      2.756
REMARK  Name = 
REMARK  9 active torsions:
REMARK  status: ('A' for Active; 'I' for Inactive)
REMARK    1  A    between atoms: C_1  and  C_2
REMARK    2  A    between atoms: C_5  and  C_6
REMARK    3  A    between atoms: N_7  and  C_8
REMARK    4  A    between atoms: N_15  and  C_16
REMARK    5  A    between atoms: C_16  and  C_17
REMARK    6  A    between atoms: C_17  and  C_18
REMARK    7  A    between atoms: C_18  and  N_19
REMARK    8  A    between atoms: C_18  and  C_26
REMARK    9  A    between atoms: C_20  and  C_22
REMARK                            x       y       z     vdW  Elec       q    Type
REMARK                         _______ _______ _______ _____ _____    ______ ____
ROOT
ATOM      1  C   UNL     1       1.733   8.226  20.198  0.00  0.00    +0.000 C 
ENDROOT
BRANCH   1   9
ATOM      2  C   UNL     1       0.183  11.951  19.952  0.00  0.00    +0.000 C 
ATOM      3  C   UNL     1       1.103  11.736  21.169  0.00  0.00    +0.000 C 
ATOM      4  C   UNL     1       1.286  10.232  21.460  0.00  0.00    +0.000 C 
ATOM      5  C   UNL     1       0.231   9.641  22.422  0.00  0.00    +0.000 C 
ATOM      6  C   UNL     1      -0.815   8.975  21.524  0.00  0.00    +0.000 C 
ATOM      7  C   UNL     1      -0.455   9.506  20.143  0.00  0.00    +0.000 C 
ATOM      8  C   UNL     1      -1.002  10.977  20.014  0.00  0.00    +0.000 C 
ATOM      9  N   UNL     1       1.034   9.522  20.186  0.00  0.00    +0.000 NA
BRANCH   2  16
ATOM     10  C   UNL     1      -2.106  13.893  21.075  0.00  0.00    +0.000 C 
ATOM     11  C   UNL     1      -1.015  14.220  20.140  0.00  0.00    +0.000 A 
ATOM     12  N   UNL     1      -0.789  15.414  19.630  0.00  0.00    +0.000 NA
ATOM     13  N   UNL     1       0.315  15.345  18.819  0.00  0.00    +0.000 NA
ATOM     14  C   UNL     1       0.755  14.106  18.842  0.00  0.00    +0.000 A 
ATOM     15  C   UNL     1       1.943  13.586  18.119  0.00  0.00    +0.000 C 
ATOM     16  N   UNL     1      -0.060  13.349  19.660  0.00  0.00    +0.000 N 
ENDBRANCH   2  16
ENDBRANCH   1   9
BRANCH   1  17
ATOM     17  C   UNL     1       2.304   7.707  18.876  0.00  0.00    +0.000 C 
BRANCH  17  18
ATOM     18  C   UNL     1       3.099   6.391  18.992  0.00  0.00    +0.000 C 
BRANCH  18  19
ATOM     19  C   UNL     1       2.259   5.140  19.218  0.00  0.00    +0.000 A 
ATOM     20  C   UNL     1       1.898   4.364  18.102  0.00  0.00    +0.000 A 
ATOM     21  C   UNL     1       1.222   3.154  18.255  0.00  0.00    +0.000 A 
ATOM     22  C   UNL     1       0.853   2.718  19.524  0.00  0.00    +0.000 A 
ATOM     23  C   UNL     1       1.142   3.505  20.637  0.00  0.00    +0.000 A 
ATOM     24  C   UNL     1       1.835   4.712  20.487  0.00  0.00    +0.000 A 
ENDBRANCH  18  19
BRANCH  18  25
ATOM     25  N   UNL     1       3.953   6.198  17.823  0.00  0.00    +0.000 N 
ATOM     26  C   UNL     1       5.272   5.810  17.956  0.00  0.00    +0.000 C 
ATOM     27  O   UNL     1       5.784   5.633  19.063  0.00  0.00    +0.000 OA
ATOM     28  H   UNL     1       3.542   6.284  16.903  0.00  0.00    +0.000 HD
BRANCH  26  29
ATOM     29  C   UNL     1       6.025   5.623  16.606  0.00  0.00    +0.000 C 
ATOM     30  C   UNL     1       7.127   4.526  16.555  0.00  0.00    +0.000 C 
ATOM     31  C   UNL     1       6.626   4.152  15.151  0.00  0.00    +0.000 C 
ATOM     32  C   UNL     1       5.285   4.813  15.509  0.00  0.00    +0.000 C 
ENDBRANCH  26  29
ENDBRANCH  18  25
ENDBRANCH  17  18
ENDBRANCH   1  17
TORSDOF 7
ENDMDL
MODEL 9
REMARK VINA RESULT:      -7.8      2.769      5.104
REMARK  Name = 
REMARK  9 active torsions:
REMARK  status: ('A' for Active; 'I' for Inactive)
REMARK    1  A    between atoms: C_1  and  C_2
REMARK    2  A    between atoms: C_5  and  C_6
REMARK    3  A    between atoms: N_7  and  C_8
REMARK    4  A    between atoms: N_15  and  C_16
REMARK    5  A    between atoms: C_16  and  C_17
REMARK    6  A    between atoms: C_17  and  C_18
REMARK    7  A    between atoms: C_18  and  N_19
REMARK    8  A    between atoms: C_18  and  C_26
REMARK    9  A    between atoms: C_20  and  C_22
REMARK                            x       y       z     vdW  Elec       q    Type
REMARK                         _______ _______ _______ _____ _____    ______ ____
ROOT
ATOM      1  C   UNL     1       1.853   8.493  19.054  0.00  0.00    +0.000 C 
ENDROOT
BRANCH   1   9
ATOM      2  C   UNL     1       1.124  12.465  19.222  0.00  0.00    +0.000 C 
ATOM      3  C   UNL     1       1.248  11.794  20.603  0.00  0.00    +0.000 C 
ATOM      4  C   UNL     1       1.068  10.266  20.489  0.00  0.00    +0.000 C 
ATOM      5  C   UNL     1      -0.395   9.790  20.627  0.00  0.00    +0.000 C 
ATOM      6  C   UNL     1      -0.899   9.597  19.194  0.00  0.00    +0.000 C 
ATOM      7  C   UNL     1       0.184  10.274  18.365  0.00  0.00    +0.000 C 
ATOM      8  C   UNL     1      -0.032  11.832  18.435  0.00  0.00    +0.000 C 
ATOM      9  N   UNL     1       1.426   9.901  19.099  0.00  0.00    +0.000 NA
BRANCH   2  16
ATOM     10  C   UNL     1       3.530  14.346  18.249  0.00  0.00    +0.000 C 
ATOM     11  C   UNL     1       2.246  14.751  18.847  0.00  0.00    +0.000 A 
ATOM     12  N   UNL     1       1.865  15.996  19.050  0.00  0.00    +0.000 NA
ATOM     13  N   UNL     1       0.611  15.988  19.605  0.00  0.00    +0.000 NA
ATOM     14  C   UNL     1       0.236  14.735  19.736  0.00  0.00    +0.000 A 
ATOM     15  C   UNL     1      -1.064  14.262  20.279  0.00  0.00    +0.000 C 
ATOM     16  N   UNL     1       1.241  13.908  19.276  0.00  0.00    +0.000 N 
ENDBRANCH   2  16
ENDBRANCH   1   9
BRANCH   1  17
ATOM     17  C   UNL     1       2.759   8.055  17.901  0.00  0.00    +0.000 C 
BRANCH  17  18
ATOM     18  C   UNL     1       3.202   6.580  17.956  0.00  0.00    +0.000 C 
BRANCH  18  19
ATOM     19  C   UNL     1       4.706   6.354  18.055  0.00  0.00    +0.000 A 
ATOM     20  C   UNL     1       5.544   7.017  17.141  0.00  0.00    +0.000 A 
ATOM     21  C   UNL     1       6.933   6.934  17.248  0.00  0.00    +0.000 A 
ATOM     22  C   UNL     1       7.509   6.151  18.243  0.00  0.00    +0.000 A 
ATOM     23  C   UNL     1       6.695   5.433  19.117  0.00  0.00    +0.000 A 
ATOM     24  C   UNL     1       5.301   5.527  19.022  0.00  0.00    +0.000 A 
ENDBRANCH  18  19
BRANCH  18  25
ATOM     25  N   UNL     1       2.533   5.879  19.050  0.00  0.00    +0.000 N 
ATOM     26  C   UNL     1       1.778   4.746  18.819  0.00  0.00    +0.000 C 
ATOM     27  O   UNL     1       1.621   4.296  17.683  0.00  0.00    +0.000 OA
ATOM     28  H   UNL     1       2.691   6.198  19.997  0.00  0.00    +0.000 HD
BRANCH  26  29
ATOM     29  C   UNL     1       1.162   4.113  20.102  0.00  0.00    +0.000 C 
ATOM     30  C   UNL     1       1.105   2.560  20.167  0.00  0.00    +0.000 C 
ATOM     31  C   UNL     1       1.511   2.652  21.646  0.00  0.00    +0.000 C 
ATOM     32  C   UNL     1       2.082   4.049  21.349  0.00  0.00    +0.000 C 
ENDBRANCH  26  29
ENDBRANCH  18  25
ENDBRANCH  17  18
ENDBRANCH   1  17
TORSDOF 7
ENDMDL
