MODEL 1
REMARK VINA RESULT:      -6.4      0.000      0.000
REMARK  Name = 
REMARK  3 active torsions:
REMARK  status: ('A' for Active; 'I' for Inactive)
REMARK    1  A    between atoms: C_6  and  O_7
REMARK    2  A    between atoms: O_7  and  C_8
REMARK    3  A    between atoms: C_8  and  C_10
REMARK                            x       y       z     vdW  Elec       q    Type
REMARK                         _______ _______ _______ _____ _____    ______ ____
ROOT
ATOM      1  O   UNL     1       6.627   5.265  19.872  0.00  0.00    +0.000 OA
ATOM      2  C   UNL     1       5.966   4.851  18.914  0.00  0.00    +0.000 C 
ATOM      3  C   UNL     1       4.887   3.826  19.156  0.00  0.00    +0.000 C 
ATOM      4  C   UNL     1       4.020   3.411  17.983  0.00  0.00    +0.000 C 
ATOM      5  C   UNL     1       4.400   3.905  16.589  0.00  0.00    +0.000 C 
ATOM      6  C   UNL     1       5.497   4.923  16.487  0.00  0.00    +0.000 C 
ATOM      7  C   UNL     1       6.215   5.357  17.535  0.00  0.00    +0.000 C 
ATOM      8 CL   UNL     1       7.469   6.530  17.352  0.00  0.00    +0.000 Cl
ENDROOT
BRANCH   6   9
ATOM      9  O   UNL     1       5.694   5.506  15.192  0.00  0.00    +0.000 OA
BRANCH   9  10
ATOM     10  C   UNL     1       6.665   4.937  14.407  0.00  0.00    +0.000 C 
ATOM     11  O   UNL     1       7.807   5.350  14.258  0.00  0.00    +0.000 OA
BRANCH  10  12
ATOM     12  C   UNL     1       6.221   3.727  13.657  0.00  0.00    +0.000 C 
ATOM     13  C   UNL     1       5.111   3.629  12.639  0.00  0.00    +0.000 C 
ATOM     14  C   UNL     1       6.540   3.652  12.178  0.00  0.00    +0.000 C 
ENDBRANCH  10  12
ENDBRANCH   9  10
ENDBRANCH   6   9
TORSDOF 3
ENDMDL
MODEL 2
REMARK VINA RESULT:      -6.3      2.641      5.062
REMARK  Name = 
REMARK  3 active torsions:
REMARK  status: ('A' for Active; 'I' for Inactive)
REMARK    1  A    between atoms: C_6  and  O_7
REMARK    2  A    between atoms: O_7  and  C_8
REMARK    3  A    between atoms: C_8  and  C_10
REMARK                            x       y       z     vdW  Elec       q    Type
REMARK                         _______ _______ _______ _____ _____    ______ ____
ROOT
ATOM      1  O   UNL     1       7.544   5.929  15.647  0.00  0.00    +0.000 OA
ATOM      2  C   UNL     1       6.961   5.536  16.663  0.00  0.00    +0.000 C 
ATOM      3  C   UNL     1       7.494   5.935  18.016  0.00  0.00    +0.000 C 
ATOM      4  C   UNL     1       6.704   5.529  19.244  0.00  0.00    +0.000 C 
ATOM      5  C   UNL     1       5.518   4.584  19.064  0.00  0.00    +0.000 C 
ATOM      6  C   UNL     1       5.092   4.263  17.662  0.00  0.00    +0.000 C 
ATOM      7  C   UNL     1       5.740   4.688  16.567  0.00  0.00    +0.000 C 
ATOM      8 CL   UNL     1       5.200   4.281  14.977  0.00  0.00    +0.000 Cl
ENDROOT
BRANCH   6   9
ATOM      9  O   UNL     1       3.864   3.534  17.531  0.00  0.00    +0.000 OA
BRANCH   9  10
ATOM     10  C   UNL     1       2.760   4.080  18.137  0.00  0.00    +0.000 C 
ATOM     11  O   UNL     1       2.276   5.178  17.899  0.00  0.00    +0.000 OA
BRANCH  10  12
ATOM     12  C   UNL     1       2.160   3.230  19.205  0.00  0.00    +0.000 C 
ATOM     13  C   UNL     1       0.780   3.342  19.806  0.00  0.00    +0.000 C 
ATOM     14  C   UNL     1       1.070   2.258  18.808  0.00  0.00    +0.000 C 
ENDBRANCH  10  12
ENDBRANCH   9  10
ENDBRANCH   6   9
TORSDOF 3
ENDMDL
MODEL 3
REMARK VINA RESULT:      -6.2      2.491      3.727
REMARK  Name = 
REMARK  3 active torsions:
REMARK  status: ('A' for Active; 'I' for Inactive)
REMARK    1  A    between atoms: C_6  and  O_7
REMARK    2  A    between atoms: O_7  and  C_8
REMARK    3  A    between atoms: C_8  and  C_10
REMARK                            x       y       z     vdW  Elec       q    Type
REMARK                         _______ _______ _______ _____ _____    ______ ____
ROOT
ATOM      1  O   UNL     1       0.979   4.288  17.332  0.00  0.00    +0.000 OA
ATOM      2  C   UNL     1       2.004   3.804  17.820  0.00  0.00    +0.000 C 
ATOM      3  C   UNL     1       2.056   2.322  18.098  0.00  0.00    +0.000 C 
ATOM      4  C   UNL     1       3.360   1.734  18.599  0.00  0.00    +0.000 C 
ATOM      5  C   UNL     1       4.491   2.689  18.973  0.00  0.00    +0.000 C 
ATOM      6  C   UNL     1       4.311   4.141  18.645  0.00  0.00    +0.000 C 
ATOM      7  C   UNL     1       3.187   4.658  18.124  0.00  0.00    +0.000 C 
ATOM      8 CL   UNL     1       3.040   6.342  17.772  0.00  0.00    +0.000 Cl
ENDROOT
BRANCH   6   9
ATOM      9  O   UNL     1       5.464   4.974  18.830  0.00  0.00    +0.000 OA
BRANCH   9  10
ATOM     10  C   UNL     1       6.515   4.762  17.975  0.00  0.00    +0.000 C 
ATOM     11  O   UNL     1       7.644   4.411  18.291  0.00  0.00    +0.000 OA
BRANCH  10  12
ATOM     12  C   UNL     1       6.209   5.038  16.541  0.00  0.00    +0.000 C 
ATOM     13  C   UNL     1       7.087   4.773  15.343  0.00  0.00    +0.000 C 
ATOM     14  C   UNL     1       5.934   3.856  15.635  0.00  0.00    +0.000 C 
ENDBRANCH  10  12
ENDBRANCH   9  10
ENDBRANCH   6   9
TORSDOF 3
ENDMDL
MODEL 4
REMARK VINA RESULT:      -6.1      2.156      5.067
REMARK  Name = 
REMARK  3 active torsions:
REMARK  status: ('A' for Active; 'I' for Inactive)
REMARK    1  A    between atoms: C_6  and  O_7
REMARK    2  A    between atoms: O_7  and  C_8
REMARK    3  A    between atoms: C_8  and  C_10
REMARK                            x       y       z     vdW  Elec       q    Type
REMARK                         _______ _______ _______ _____ _____    ______ ____
ROOT
ATOM      1  O   UNL     1       7.675   6.543  16.715  0.00  0.00    +0.000 OA
ATOM      2  C   UNL     1       6.740   5.737  16.684  0.00  0.00    +0.000 C 
ATOM      3  C   UNL     1       6.148   5.352  15.352  0.00  0.00    +0.000 C 
ATOM      4  C   UNL     1       5.072   4.284  15.330  0.00  0.00    +0.000 C 
ATOM      5  C   UNL     1       4.513   3.789  16.661  0.00  0.00    +0.000 C 
ATOM      6  C   UNL     1       5.192   4.253  17.916  0.00  0.00    +0.000 C 
ATOM      7  C   UNL     1       6.201   5.137  17.937  0.00  0.00    +0.000 C 
ATOM      8 CL   UNL     1       6.940   5.636  19.417  0.00  0.00    +0.000 Cl
ENDROOT
BRANCH   6   9
ATOM      9  O   UNL     1       4.768   3.620  19.131  0.00  0.00    +0.000 OA
BRANCH   9  10
ATOM     10  C   UNL     1       3.576   4.048  19.659  0.00  0.00    +0.000 C 
ATOM     11  O   UNL     1       3.323   5.181  20.045  0.00  0.00    +0.000 OA
BRANCH  10  12
ATOM     12  C   UNL     1       2.541   2.982  19.788  0.00  0.00    +0.000 C 
ATOM     13  C   UNL     1       1.084   3.148  20.144  0.00  0.00    +0.000 C 
ATOM     14  C   UNL     1       1.474   2.896  18.716  0.00  0.00    +0.000 C 
ENDBRANCH  10  12
ENDBRANCH   9  10
ENDBRANCH   6   9
TORSDOF 3
ENDMDL
MODEL 5
REMARK VINA RESULT:      -6.1      3.675      4.953
REMARK  Name = 
REMARK  3 active torsions:
REMARK  status: ('A' for Active; 'I' for Inactive)
REMARK    1  A    between atoms: C_6  and  O_7
REMARK    2  A    between atoms: O_7  and  C_8
REMARK    3  A    between atoms: C_8  and  C_10
REMARK                            x       y       z     vdW  Elec       q    Type
REMARK                         _______ _______ _______ _____ _____    ______ ____
ROOT
ATOM      1  O   UNL     1       0.833   2.414  18.351  0.00  0.00    +0.000 OA
ATOM      2  C   UNL     1       1.451   3.366  18.840  0.00  0.00    +0.000 C 
ATOM      3  C   UNL     1       0.955   3.979  20.125  0.00  0.00    +0.000 C 
ATOM      4  C   UNL     1       1.786   5.077  20.760  0.00  0.00    +0.000 C 
ATOM      5  C   UNL     1       2.975   5.633  19.978  0.00  0.00    +0.000 C 
ATOM      6  C   UNL     1       3.361   4.931  18.710  0.00  0.00    +0.000 C 
ATOM      7  C   UNL     1       2.676   3.904  18.184  0.00  0.00    +0.000 C 
ATOM      8 CL   UNL     1       3.171   3.139  16.716  0.00  0.00    +0.000 Cl
ENDROOT
BRANCH   6   9
ATOM      9  O   UNL     1       4.591   5.356  18.107  0.00  0.00    +0.000 OA
BRANCH   9  10
ATOM     10  C   UNL     1       5.735   4.748  18.559  0.00  0.00    +0.000 C 
ATOM     11  O   UNL     1       5.797   3.855  19.392  0.00  0.00    +0.000 OA
BRANCH  10  12
ATOM     12  C   UNL     1       6.994   5.296  17.976  0.00  0.00    +0.000 C 
ATOM     13  C   UNL     1       7.282   6.722  17.575  0.00  0.00    +0.000 C 
ATOM     14  C   UNL     1       7.856   6.180  18.853  0.00  0.00    +0.000 C 
ENDBRANCH  10  12
ENDBRANCH   9  10
ENDBRANCH   6   9
TORSDOF 3
ENDMDL
MODEL 6
REMARK VINA RESULT:      -6.1      3.174      4.391
REMARK  Name = 
REMARK  3 active torsions:
REMARK  status: ('A' for Active; 'I' for Inactive)
REMARK    1  A    between atoms: C_6  and  O_7
REMARK    2  A    between atoms: O_7  and  C_8
REMARK    3  A    between atoms: C_8  and  C_10
REMARK                            x       y       z     vdW  Elec       q    Type
REMARK                         _______ _______ _______ _____ _____    ______ ____
ROOT
ATOM      1  O   UNL     1       0.856   1.898  19.157  0.00  0.00    +0.000 OA
ATOM      2  C   UNL     1       1.584   2.866  19.400  0.00  0.00    +0.000 C 
ATOM      3  C   UNL     1       1.000   4.065  20.103  0.00  0.00    +0.000 C 
ATOM      4  C   UNL     1       1.936   5.196  20.483  0.00  0.00    +0.000 C 
ATOM      5  C   UNL     1       3.374   5.151  19.974  0.00  0.00    +0.000 C 
ATOM      6  C   UNL     1       3.828   3.898  19.285  0.00  0.00    +0.000 C 
ATOM      7  C   UNL     1       3.024   2.857  19.018  0.00  0.00    +0.000 C 
ATOM      8 CL   UNL     1       3.607   1.442  18.216  0.00  0.00    +0.000 Cl
ENDROOT
BRANCH   6   9
ATOM      9  O   UNL     1       5.230   3.814  18.994  0.00  0.00    +0.000 OA
BRANCH   9  10
ATOM     10  C   UNL     1       5.725   4.727  18.097  0.00  0.00    +0.000 C 
ATOM     11  O   UNL     1       6.556   5.592  18.332  0.00  0.00    +0.000 OA
BRANCH  10  12
ATOM     12  C   UNL     1       5.127   4.636  16.733  0.00  0.00    +0.000 C 
ATOM     13  C   UNL     1       5.601   5.315  15.472  0.00  0.00    +0.000 C 
ATOM     14  C   UNL     1       5.884   3.855  15.679  0.00  0.00    +0.000 C 
ENDBRANCH  10  12
ENDBRANCH   9  10
ENDBRANCH   6   9
TORSDOF 3
ENDMDL
MODEL 7
REMARK VINA RESULT:      -6.1      3.149      4.046
REMARK  Name = 
REMARK  3 active torsions:
REMARK  status: ('A' for Active; 'I' for Inactive)
REMARK    1  A    between atoms: C_6  and  O_7
REMARK    2  A    between atoms: O_7  and  C_8
REMARK    3  A    between atoms: C_8  and  C_10
REMARK                            x       y       z     vdW  Elec       q    Type
REMARK                         _______ _______ _______ _____ _____    ______ ____
ROOT
ATOM      1  O   UNL     1       2.613   2.478  22.176  0.00  0.00    +0.000 OA
ATOM      2  C   UNL     1       2.450   2.898  21.026  0.00  0.00    +0.000 C 
ATOM      3  C   UNL     1       1.199   3.674  20.700  0.00  0.00    +0.000 C 
ATOM      4  C   UNL     1       1.068   4.268  19.311  0.00  0.00    +0.000 C 
ATOM      5  C   UNL     1       2.114   3.898  18.262  0.00  0.00    +0.000 C 
ATOM      6  C   UNL     1       3.311   3.118  18.719  0.00  0.00    +0.000 C 
ATOM      7  C   UNL     1       3.472   2.658  19.969  0.00  0.00    +0.000 C 
ATOM      8 CL   UNL     1       4.873   1.761  20.433  0.00  0.00    +0.000 Cl
ENDROOT
BRANCH   6   9
ATOM      9  O   UNL     1       4.360   2.956  17.754  0.00  0.00    +0.000 OA
BRANCH   9  10
ATOM     10  C   UNL     1       4.997   4.101  17.347  0.00  0.00    +0.000 C 
ATOM     11  O   UNL     1       5.580   4.898  18.068  0.00  0.00    +0.000 OA
BRANCH  10  12
ATOM     12  C   UNL     1       4.905   4.369  15.883  0.00  0.00    +0.000 C 
ATOM     13  C   UNL     1       5.679   5.387  15.080  0.00  0.00    +0.000 C 
ATOM     14  C   UNL     1       6.063   3.937  15.008  0.00  0.00    +0.000 C 
ENDBRANCH  10  12
ENDBRANCH   9  10
ENDBRANCH   6   9
TORSDOF 3
ENDMDL
MODEL 8
REMARK VINA RESULT:      -6.1      2.590      4.874
REMARK  Name = 
REMARK  3 active torsions:
REMARK  status: ('A' for Active; 'I' for Inactive)
REMARK    1  A    between atoms: C_6  and  O_7
REMARK    2  A    between atoms: O_7  and  C_8
REMARK    3  A    between atoms: C_8  and  C_10
REMARK                            x       y       z     vdW  Elec       q    Type
REMARK                         _______ _______ _______ _____ _____    ______ ____
ROOT
ATOM      1  O   UNL     1       7.583   5.985  15.639  0.00  0.00    +0.000 OA
ATOM      2  C   UNL     1       6.952   5.506  16.586  0.00  0.00    +0.000 C 
ATOM      3  C   UNL     1       7.384   5.828  17.994  0.00  0.00    +0.000 C 
ATOM      4  C   UNL     1       6.533   5.315  19.139  0.00  0.00    +0.000 C 
ATOM      5  C   UNL     1       5.394   4.349  18.820  0.00  0.00    +0.000 C 
ATOM      6  C   UNL     1       5.068   4.112  17.375  0.00  0.00    +0.000 C 
ATOM      7  C   UNL     1       5.769   4.630  16.355  0.00  0.00    +0.000 C 
ATOM      8 CL   UNL     1       5.345   4.315  14.710  0.00  0.00    +0.000 Cl
ENDROOT
BRANCH   6   9
ATOM      9  O   UNL     1       3.877   3.356  17.117  0.00  0.00    +0.000 OA
BRANCH   9  10
ATOM     10  C   UNL     1       3.497   2.462  18.086  0.00  0.00    +0.000 C 
ATOM     11  O   UNL     1       3.910   1.318  18.214  0.00  0.00    +0.000 OA
BRANCH  10  12
ATOM     12  C   UNL     1       2.450   2.972  19.018  0.00  0.00    +0.000 C 
ATOM     13  C   UNL     1       1.461   4.086  18.774  0.00  0.00    +0.000 C 
ATOM     14  C   UNL     1       1.003   2.658  18.699  0.00  0.00    +0.000 C 
ENDBRANCH  10  12
ENDBRANCH   9  10
ENDBRANCH   6   9
TORSDOF 3
ENDMDL
MODEL 9
REMARK VINA RESULT:      -6.1      2.274      5.289
REMARK  Name = 
REMARK  3 active torsions:
REMARK  status: ('A' for Active; 'I' for Inactive)
REMARK    1  A    between atoms: C_6  and  O_7
REMARK    2  A    between atoms: O_7  and  C_8
REMARK    3  A    between atoms: C_8  and  C_10
REMARK                            x       y       z     vdW  Elec       q    Type
REMARK                         _______ _______ _______ _____ _____    ______ ____
ROOT
ATOM      1  O   UNL     1       7.645   6.670  16.614  0.00  0.00    +0.000 OA
ATOM      2  C   UNL     1       6.738   5.840  16.725  0.00  0.00    +0.000 C 
ATOM      3  C   UNL     1       5.962   5.432  15.498  0.00  0.00    +0.000 C 
ATOM      4  C   UNL     1       4.924   4.337  15.640  0.00  0.00    +0.000 C 
ATOM      5  C   UNL     1       4.585   3.834  17.041  0.00  0.00    +0.000 C 
ATOM      6  C   UNL     1       5.434   4.322  18.178  0.00  0.00    +0.000 C 
ATOM      7  C   UNL     1       6.411   5.233  18.046  0.00  0.00    +0.000 C 
ATOM      8 CL   UNL     1       7.351   5.757  19.396  0.00  0.00    +0.000 Cl
ENDROOT
BRANCH   6   9
ATOM      9  O   UNL     1       5.215   3.684  19.444  0.00  0.00    +0.000 OA
BRANCH   9  10
ATOM     10  C   UNL     1       4.081   2.920  19.555  0.00  0.00    +0.000 C 
ATOM     11  O   UNL     1       3.960   1.753  19.208  0.00  0.00    +0.000 OA
BRANCH  10  12
ATOM     12  C   UNL     1       2.904   3.641  20.121  0.00  0.00    +0.000 C 
ATOM     13  C   UNL     1       1.485   3.142  20.238  0.00  0.00    +0.000 C 
ATOM     14  C   UNL     1       2.363   3.176  21.456  0.00  0.00    +0.000 C 
ENDBRANCH  10  12
ENDBRANCH   9  10
ENDBRANCH   6   9
TORSDOF 3
ENDMDL
