MODEL 1
REMARK VINA RESULT:      -6.9      0.000      0.000
REMARK  Name = 
REMARK  12 active torsions:
REMARK  status: ('A' for Active; 'I' for Inactive)
REMARK    1  A    between atoms: C_1  and  C_2
REMARK    2  A    between atoms: C_2  and  N_3
REMARK    3  A    between atoms: N_3  and  C_4
REMARK    4  A    between atoms: C_4  and  C_5
REMARK    5  A    between atoms: C_6  and  C_8
REMARK    6  A    between atoms: N_10  and  C_11
REMARK    7  A    between atoms: N_10  and  C_13
REMARK    8  A    between atoms: C_11  and  C_12
REMARK    9  A    between atoms: C_20  and  O_21
REMARK   10  A    between atoms: C_22  and  C_23
REMARK   11  A    between atoms: N_25  and  C_26
REMARK   12  A    between atoms: C_26  and  C_27
REMARK                            x       y       z     vdW  Elec       q    Type
REMARK                         _______ _______ _______ _____ _____    ______ ____
ROOT
ATOM      1  C   UNL     1      -4.710  12.705  21.296  0.00  0.00    +0.000 A 
ATOM      2  C   UNL     1      -6.039  12.507  21.360  0.00  0.00    +0.000 A 
ATOM      3  C   UNL     1      -6.785  12.051  20.221  0.00  0.00    +0.000 A 
ATOM      4  C   UNL     1      -6.165  11.851  19.053  0.00  0.00    +0.000 A 
ATOM      5  N   UNL     1      -4.789  11.983  18.922  0.00  0.00    +0.000 N 
ATOM      6  C   UNL     1      -4.217  11.721  17.690  0.00  0.00    +0.000 A 
ATOM      7  O   UNL     1      -4.832  11.476  16.648  0.00  0.00    +0.000 OA
ATOM      8  C   UNL     1      -2.737  11.713  17.620  0.00  0.00    +0.000 A 
ATOM      9  C   UNL     1      -2.070  12.007  18.750  0.00  0.00    +0.000 A 
ATOM     10  N   UNL     1      -2.684  12.337  19.946  0.00  0.00    +0.000 NA
ATOM     11  C   UNL     1      -3.982  12.333  20.003  0.00  0.00    +0.000 A 
ENDROOT
BRANCH   9  12
ATOM     12  C   UNL     1      -0.554  11.945  18.727  0.00  0.00    +0.000 C 
ATOM     13  O   UNL     1       0.178  12.870  19.056  0.00  0.00    +0.000 OA
ATOM     14  N   UNL     1      -0.069  10.724  18.311  0.00  0.00    +0.000 N 
ATOM     15  H   UNL     1      -0.745  10.004  18.082  0.00  0.00    +0.000 HD
BRANCH  14  16
ATOM     16  C   UNL     1       1.344  10.453  18.185  0.00  0.00    +0.000 C 
BRANCH  16  17
ATOM     17  C   UNL     1       1.681   9.090  18.735  0.00  0.00    +0.000 A 
ATOM     18  C   UNL     1       1.347   8.747  20.055  0.00  0.00    +0.000 A 
ATOM     19  C   UNL     1       1.684   7.491  20.562  0.00  0.00    +0.000 A 
ATOM     20  C   UNL     1       2.357   6.582  19.754  0.00  0.00    +0.000 A 
ATOM     21  F   UNL     1       2.684   5.379  20.247  0.00  0.00    +0.000 F 
ATOM     22  C   UNL     1       2.698   6.902  18.447  0.00  0.00    +0.000 A 
ATOM     23  C   UNL     1       2.365   8.158  17.937  0.00  0.00    +0.000 A 
ENDBRANCH  16  17
ENDBRANCH  14  16
ENDBRANCH   9  12
BRANCH   1  26
ATOM     24  C   UNL     1      -3.905  14.752  22.418  0.00  0.00    +0.000 C 
ATOM     25  O   UNL     1      -3.191  15.325  23.237  0.00  0.00    +0.000 OA
ATOM     26  N   UNL     1      -4.028  13.349  22.323  0.00  0.00    +0.000 N 
BRANCH  24  28
ATOM     27  N   UNL     1      -6.007  16.118  21.974  0.00  0.00    +0.000 N 
ATOM     28  C   UNL     1      -4.787  15.617  21.480  0.00  0.00    +0.000 C 
ATOM     29  O   UNL     1      -4.368  15.851  20.349  0.00  0.00    +0.000 OA
BRANCH  27  31
ATOM     30  C   UNL     1      -7.757  16.360  20.167  0.00  0.00    +0.000 C 
ATOM     31  C   UNL     1      -6.776  17.030  21.117  0.00  0.00    +0.000 C 
ENDBRANCH  27  31
BRANCH  27  32
ATOM     32  C   UNL     1      -6.477  15.888  23.344  0.00  0.00    +0.000 C 
ATOM     33  C   UNL     1      -7.605  14.878  23.473  0.00  0.00    +0.000 C 
ENDBRANCH  27  32
ENDBRANCH  24  28
BRANCH  26  34
ATOM     34  C   UNL     1      -3.395  12.523  23.370  0.00  0.00    +0.000 C 
ATOM     35  C   UNL     1      -4.257  12.349  24.623  0.00  0.00    +0.000 C 
ENDBRANCH  26  34
ENDBRANCH   1  26
BRANCH   8  36
ATOM     36  O   UNL     1      -2.168  11.356  16.416  0.00  0.00    +0.000 OA
ATOM     37  H   UNL     1      -2.819  11.608  15.728  0.00  0.00    +0.000 HD
ENDBRANCH   8  36
TORSDOF 9
ENDMDL
MODEL 2
REMARK VINA RESULT:      -6.9      0.751      1.258
REMARK  Name = 
REMARK  12 active torsions:
REMARK  status: ('A' for Active; 'I' for Inactive)
REMARK    1  A    between atoms: C_1  and  C_2
REMARK    2  A    between atoms: C_2  and  N_3
REMARK    3  A    between atoms: N_3  and  C_4
REMARK    4  A    between atoms: C_4  and  C_5
REMARK    5  A    between atoms: C_6  and  C_8
REMARK    6  A    between atoms: N_10  and  C_11
REMARK    7  A    between atoms: N_10  and  C_13
REMARK    8  A    between atoms: C_11  and  C_12
REMARK    9  A    between atoms: C_20  and  O_21
REMARK   10  A    between atoms: C_22  and  C_23
REMARK   11  A    between atoms: N_25  and  C_26
REMARK   12  A    between atoms: C_26  and  C_27
REMARK                            x       y       z     vdW  Elec       q    Type
REMARK                         _______ _______ _______ _____ _____    ______ ____
ROOT
ATOM      1  C   UNL     1      -4.246  12.625  21.462  0.00  0.00    +0.000 A 
ATOM      2  C   UNL     1      -5.583  12.551  21.581  0.00  0.00    +0.000 A 
ATOM      3  C   UNL     1      -6.420  12.251  20.453  0.00  0.00    +0.000 A 
ATOM      4  C   UNL     1      -5.875  12.077  19.245  0.00  0.00    +0.000 A 
ATOM      5  N   UNL     1      -4.500  12.087  19.053  0.00  0.00    +0.000 N 
ATOM      6  C   UNL     1      -4.012  11.860  17.779  0.00  0.00    +0.000 A 
ATOM      7  O   UNL     1      -4.692  11.751  16.756  0.00  0.00    +0.000 OA
ATOM      8  C   UNL     1      -2.544  11.716  17.633  0.00  0.00    +0.000 A 
ATOM      9  C   UNL     1      -1.802  11.864  18.745  0.00  0.00    +0.000 A 
ATOM     10  N   UNL     1      -2.327  12.164  19.990  0.00  0.00    +0.000 NA
ATOM     11  C   UNL     1      -3.615  12.279  20.113  0.00  0.00    +0.000 A 
ENDROOT
BRANCH   9  12
ATOM     12  C   UNL     1      -0.302  11.659  18.641  0.00  0.00    +0.000 C 
ATOM     13  O   UNL     1       0.531  12.496  18.965  0.00  0.00    +0.000 OA
ATOM     14  N   UNL     1       0.042  10.416  18.155  0.00  0.00    +0.000 N 
ATOM     15  H   UNL     1      -0.710   9.774  17.935  0.00  0.00    +0.000 HD
BRANCH  14  16
ATOM     16  C   UNL     1       1.414  10.019  17.945  0.00  0.00    +0.000 C 
BRANCH  16  17
ATOM     17  C   UNL     1       1.727   8.750  18.697  0.00  0.00    +0.000 A 
ATOM     18  C   UNL     1       2.384   7.684  18.063  0.00  0.00    +0.000 A 
ATOM     19  C   UNL     1       2.648   6.505  18.761  0.00  0.00    +0.000 A 
ATOM     20  C   UNL     1       2.255   6.389  20.089  0.00  0.00    +0.000 A 
ATOM     21  F   UNL     1       2.506   5.253  20.755  0.00  0.00    +0.000 F 
ATOM     22  C   UNL     1       1.603   7.431  20.735  0.00  0.00    +0.000 A 
ATOM     23  C   UNL     1       1.334   8.611  20.039  0.00  0.00    +0.000 A 
ENDBRANCH  16  17
ENDBRANCH  14  16
ENDBRANCH   9  12
BRANCH   1  26
ATOM     24  C   UNL     1      -3.101  14.486  22.613  0.00  0.00    +0.000 C 
ATOM     25  O   UNL     1      -2.296  14.916  23.436  0.00  0.00    +0.000 OA
ATOM     26  N   UNL     1      -3.458  13.126  22.495  0.00  0.00    +0.000 N 
BRANCH  24  28
ATOM     27  N   UNL     1      -5.036  16.075  22.152  0.00  0.00    +0.000 N 
ATOM     28  C   UNL     1      -3.831  15.505  21.699  0.00  0.00    +0.000 C 
ATOM     29  O   UNL     1      -3.308  15.792  20.624  0.00  0.00    +0.000 OA
BRANCH  27  31
ATOM     30  C   UNL     1      -6.774  16.655  20.412  0.00  0.00    +0.000 C 
ATOM     31  C   UNL     1      -5.655  17.123  21.330  0.00  0.00    +0.000 C 
ENDBRANCH  27  31
BRANCH  27  32
ATOM     32  C   UNL     1      -5.626  15.778  23.461  0.00  0.00    +0.000 C 
ATOM     33  C   UNL     1      -5.296  16.780  24.555  0.00  0.00    +0.000 C 
ENDBRANCH  27  32
ENDBRANCH  24  28
BRANCH  26  34
ATOM     34  C   UNL     1      -2.967  12.186  23.522  0.00  0.00    +0.000 C 
ATOM     35  C   UNL     1      -1.649  11.503  23.151  0.00  0.00    +0.000 C 
ENDBRANCH  26  34
ENDBRANCH   1  26
BRANCH   8  36
ATOM     36  O   UNL     1      -2.067  11.394  16.380  0.00  0.00    +0.000 OA
ATOM     37  H   UNL     1      -1.860  10.438  16.411  0.00  0.00    +0.000 HD
ENDBRANCH   8  36
TORSDOF 9
ENDMDL
MODEL 3
REMARK VINA RESULT:      -6.5      7.447     11.987
REMARK  Name = 
REMARK  12 active torsions:
REMARK  status: ('A' for Active; 'I' for Inactive)
REMARK    1  A    between atoms: C_1  and  C_2
REMARK    2  A    between atoms: C_2  and  N_3
REMARK    3  A    between atoms: N_3  and  C_4
REMARK    4  A    between atoms: C_4  and  C_5
REMARK    5  A    between atoms: C_6  and  C_8
REMARK    6  A    between atoms: N_10  and  C_11
REMARK    7  A    between atoms: N_10  and  C_13
REMARK    8  A    between atoms: C_11  and  C_12
REMARK    9  A    between atoms: C_20  and  O_21
REMARK   10  A    between atoms: C_22  and  C_23
REMARK   11  A    between atoms: N_25  and  C_26
REMARK   12  A    between atoms: C_26  and  C_27
REMARK                            x       y       z     vdW  Elec       q    Type
REMARK                         _______ _______ _______ _____ _____    ______ ____
ROOT
ATOM      1  C   UNL     1       8.389  14.935  20.730  0.00  0.00    +0.000 A 
ATOM      2  C   UNL     1       9.318  14.378  21.528  0.00  0.00    +0.000 A 
ATOM      3  C   UNL     1       8.962  13.755  22.771  0.00  0.00    +0.000 A 
ATOM      4  C   UNL     1       7.688  13.753  23.177  0.00  0.00    +0.000 A 
ATOM      5  N   UNL     1       6.666  14.261  22.385  0.00  0.00    +0.000 N 
ATOM      6  C   UNL     1       5.369  14.187  22.858  0.00  0.00    +0.000 A 
ATOM      7  O   UNL     1       5.033  13.802  23.981  0.00  0.00    +0.000 OA
ATOM      8  C   UNL     1       4.286  14.588  21.929  0.00  0.00    +0.000 A 
ATOM      9  C   UNL     1       4.657  15.034  20.716  0.00  0.00    +0.000 A 
ATOM     10  N   UNL     1       5.974  15.162  20.308  0.00  0.00    +0.000 NA
ATOM     11  C   UNL     1       6.917  14.800  21.125  0.00  0.00    +0.000 A 
ENDROOT
BRANCH   9  12
ATOM     12  C   UNL     1       3.571  15.392  19.718  0.00  0.00    +0.000 C 
ATOM     13  O   UNL     1       3.455  16.491  19.190  0.00  0.00    +0.000 OA
ATOM     14  N   UNL     1       2.721  14.342  19.444  0.00  0.00    +0.000 N 
ATOM     15  H   UNL     1       2.904  13.458  19.906  0.00  0.00    +0.000 HD
BRANCH  14  16
ATOM     16  C   UNL     1       1.598  14.468  18.546  0.00  0.00    +0.000 C 
BRANCH  16  17
ATOM     17  C   UNL     1       0.768  13.209  18.544  0.00  0.00    +0.000 A 
ATOM     18  C   UNL     1       1.359  11.960  18.792  0.00  0.00    +0.000 A 
ATOM     19  C   UNL     1       0.586  10.798  18.765  0.00  0.00    +0.000 A 
ATOM     20  C   UNL     1      -0.774  10.883  18.487  0.00  0.00    +0.000 A 
ATOM     21  F   UNL     1      -1.511   9.764  18.457  0.00  0.00    +0.000 F 
ATOM     22  C   UNL     1      -1.377  12.108  18.238  0.00  0.00    +0.000 A 
ATOM     23  C   UNL     1      -0.607  13.272  18.262  0.00  0.00    +0.000 A 
ENDBRANCH  16  17
ENDBRANCH  14  16
ENDBRANCH   9  12
BRANCH   1  26
ATOM     24  C   UNL     1       9.040  15.204  18.363  0.00  0.00    +0.000 C 
ATOM     25  O   UNL     1       9.496  15.870  17.438  0.00  0.00    +0.000 OA
ATOM     26  N   UNL     1       8.753  15.724  19.643  0.00  0.00    +0.000 N 
BRANCH  24  28
ATOM     27  N   UNL     1       9.697  12.749  18.211  0.00  0.00    +0.000 N 
ATOM     28  C   UNL     1       8.683  13.719  18.093  0.00  0.00    +0.000 C 
ATOM     29  O   UNL     1       7.518  13.449  17.810  0.00  0.00    +0.000 OA
BRANCH  27  31
ATOM     30  C   UNL     1       9.390  10.510  19.343  0.00  0.00    +0.000 C 
ATOM     31  C   UNL     1       9.320  11.336  18.067  0.00  0.00    +0.000 C 
ENDBRANCH  27  31
BRANCH  27  32
ATOM     32  C   UNL     1      11.072  13.065  18.607  0.00  0.00    +0.000 C 
ATOM     33  C   UNL     1      12.085  13.053  17.473  0.00  0.00    +0.000 C 
ENDBRANCH  27  32
ENDBRANCH  24  28
BRANCH  26  34
ATOM     34  C   UNL     1       8.847  17.184  19.837  0.00  0.00    +0.000 C 
ATOM     35  C   UNL     1      10.217  17.653  20.330  0.00  0.00    +0.000 C 
ENDBRANCH  26  34
ENDBRANCH   1  26
BRANCH   8  36
ATOM     36  O   UNL     1       2.990  14.423  22.368  0.00  0.00    +0.000 OA
ATOM     37  H   UNL     1       3.054  13.936  23.215  0.00  0.00    +0.000 HD
ENDBRANCH   8  36
TORSDOF 9
ENDMDL
MODEL 4
REMARK VINA RESULT:      -6.4      2.053      2.760
REMARK  Name = 
REMARK  12 active torsions:
REMARK  status: ('A' for Active; 'I' for Inactive)
REMARK    1  A    between atoms: C_1  and  C_2
REMARK    2  A    between atoms: C_2  and  N_3
REMARK    3  A    between atoms: N_3  and  C_4
REMARK    4  A    between atoms: C_4  and  C_5
REMARK    5  A    between atoms: C_6  and  C_8
REMARK    6  A    between atoms: N_10  and  C_11
REMARK    7  A    between atoms: N_10  and  C_13
REMARK    8  A    between atoms: C_11  and  C_12
REMARK    9  A    between atoms: C_20  and  O_21
REMARK   10  A    between atoms: C_22  and  C_23
REMARK   11  A    between atoms: N_25  and  C_26
REMARK   12  A    between atoms: C_26  and  C_27
REMARK                            x       y       z     vdW  Elec       q    Type
REMARK                         _______ _______ _______ _____ _____    ______ ____
ROOT
ATOM      1  C   UNL     1      -3.026  12.689  21.617  0.00  0.00    +0.000 A 
ATOM      2  C   UNL     1      -4.161  13.147  22.174  0.00  0.00    +0.000 A 
ATOM      3  C   UNL     1      -5.381  13.239  21.422  0.00  0.00    +0.000 A 
ATOM      4  C   UNL     1      -5.395  12.902  20.128  0.00  0.00    +0.000 A 
ATOM      5  N   UNL     1      -4.276  12.373  19.497  0.00  0.00    +0.000 N 
ATOM      6  C   UNL     1      -4.381  12.012  18.166  0.00  0.00    +0.000 A 
ATOM      7  O   UNL     1      -5.358  12.214  17.440  0.00  0.00    +0.000 OA
ATOM      8  C   UNL     1      -3.227  11.304  17.564  0.00  0.00    +0.000 A 
ATOM      9  C   UNL     1      -2.152  11.111  18.349  0.00  0.00    +0.000 A 
ATOM     10  N   UNL     1      -2.060  11.554  19.657  0.00  0.00    +0.000 NA
ATOM     11  C   UNL     1      -3.080  12.166  20.181  0.00  0.00    +0.000 A 
ENDROOT
BRANCH   9  12
ATOM     12  C   UNL     1      -0.978  10.333  17.783  0.00  0.00    +0.000 C 
ATOM     13  O   UNL     1      -1.077   9.467  16.922  0.00  0.00    +0.000 OA
ATOM     14  N   UNL     1       0.232  10.709  18.325  0.00  0.00    +0.000 N 
ATOM     15  H   UNL     1       0.227  11.452  19.014  0.00  0.00    +0.000 HD
BRANCH  14  16
ATOM     16  C   UNL     1       1.476  10.079  17.953  0.00  0.00    +0.000 C 
BRANCH  16  17
ATOM     17  C   UNL     1       1.706   8.825  18.759  0.00  0.00    +0.000 A 
ATOM     18  C   UNL     1       2.305   7.697  18.175  0.00  0.00    +0.000 A 
ATOM     19  C   UNL     1       2.492   6.534  18.923  0.00  0.00    +0.000 A 
ATOM     20  C   UNL     1       2.079   6.495  20.250  0.00  0.00    +0.000 A 
ATOM     21  F   UNL     1       2.255   5.374  20.963  0.00  0.00    +0.000 F 
ATOM     22  C   UNL     1       1.483   7.599  20.845  0.00  0.00    +0.000 A 
ATOM     23  C   UNL     1       1.292   8.764  20.100  0.00  0.00    +0.000 A 
ENDBRANCH  16  17
ENDBRANCH  14  16
ENDBRANCH   9  12
BRANCH   1  26
ATOM     24  C   UNL     1      -0.863  13.819  21.999  0.00  0.00    +0.000 C 
ATOM     25  O   UNL     1       0.271  13.850  22.470  0.00  0.00    +0.000 OA
ATOM     26  N   UNL     1      -1.804  12.805  22.275  0.00  0.00    +0.000 N 
BRANCH  24  28
ATOM     27  N   UNL     1      -1.904  16.126  21.729  0.00  0.00    +0.000 N 
ATOM     28  C   UNL     1      -1.321  15.004  21.109  0.00  0.00    +0.000 C 
ATOM     29  O   UNL     1      -1.130  14.923  19.898  0.00  0.00    +0.000 OA
BRANCH  27  31
ATOM     30  C   UNL     1      -1.661  18.616  21.371  0.00  0.00    +0.000 C 
ATOM     31  C   UNL     1      -2.226  17.288  20.889  0.00  0.00    +0.000 C 
ENDBRANCH  27  31
BRANCH  27  32
ATOM     32  C   UNL     1      -2.076  16.247  23.180  0.00  0.00    +0.000 C 
ATOM     33  C   UNL     1      -3.519  16.324  23.650  0.00  0.00    +0.000 C 
ENDBRANCH  27  32
ENDBRANCH  24  28
BRANCH  26  34
ATOM     34  C   UNL     1      -1.472  11.811  23.316  0.00  0.00    +0.000 C 
ATOM     35  C   UNL     1      -0.731  10.584  22.782  0.00  0.00    +0.000 C 
ENDBRANCH  26  34
ENDBRANCH   1  26
BRANCH   8  36
ATOM     36  O   UNL     1      -3.370  10.860  16.267  0.00  0.00    +0.000 OA
ATOM     37  H   UNL     1      -4.326  10.927  16.065  0.00  0.00    +0.000 HD
ENDBRANCH   8  36
TORSDOF 9
ENDMDL
MODEL 5
REMARK VINA RESULT:      -6.4      1.651      2.125
REMARK  Name = 
REMARK  12 active torsions:
REMARK  status: ('A' for Active; 'I' for Inactive)
REMARK    1  A    between atoms: C_1  and  C_2
REMARK    2  A    between atoms: C_2  and  N_3
REMARK    3  A    between atoms: N_3  and  C_4
REMARK    4  A    between atoms: C_4  and  C_5
REMARK    5  A    between atoms: C_6  and  C_8
REMARK    6  A    between atoms: N_10  and  C_11
REMARK    7  A    between atoms: N_10  and  C_13
REMARK    8  A    between atoms: C_11  and  C_12
REMARK    9  A    between atoms: C_20  and  O_21
REMARK   10  A    between atoms: C_22  and  C_23
REMARK   11  A    between atoms: N_25  and  C_26
REMARK   12  A    between atoms: C_26  and  C_27
REMARK                            x       y       z     vdW  Elec       q    Type
REMARK                         _______ _______ _______ _____ _____    ______ ____
ROOT
ATOM      1  C   UNL     1      -3.752  12.844  21.456  0.00  0.00    +0.000 A 
ATOM      2  C   UNL     1      -4.986  13.113  20.995  0.00  0.00    +0.000 A 
ATOM      3  C   UNL     1      -5.354  12.843  19.634  0.00  0.00    +0.000 A 
ATOM      4  C   UNL     1      -4.449  12.347  18.783  0.00  0.00    +0.000 A 
ATOM      5  N   UNL     1      -3.170  11.995  19.196  0.00  0.00    +0.000 N 
ATOM      6  C   UNL     1      -2.304  11.453  18.265  0.00  0.00    +0.000 A 
ATOM      7  O   UNL     1      -2.522  11.344  17.056  0.00  0.00    +0.000 OA
ATOM      8  C   UNL     1      -1.007  10.939  18.767  0.00  0.00    +0.000 A 
ATOM      9  C   UNL     1      -0.760  11.084  20.081  0.00  0.00    +0.000 A 
ATOM     10  N   UNL     1      -1.626  11.701  20.967  0.00  0.00    +0.000 NA
ATOM     11  C   UNL     1      -2.765  12.141  20.522  0.00  0.00    +0.000 A 
ENDROOT
BRANCH   9  12
ATOM     12  C   UNL     1       0.531  10.511  20.637  0.00  0.00    +0.000 C 
ATOM     13  O   UNL     1       1.399  11.177  21.188  0.00  0.00    +0.000 OA
ATOM     14  N   UNL     1       0.629   9.146  20.478  0.00  0.00    +0.000 N 
ATOM     15  H   UNL     1      -0.147   8.668  20.034  0.00  0.00    +0.000 HD
BRANCH  14  16
ATOM     16  C   UNL     1       1.787   8.398  20.906  0.00  0.00    +0.000 C 
BRANCH  16  17
ATOM     17  C   UNL     1       1.977   7.167  20.055  0.00  0.00    +0.000 A 
ATOM     18  C   UNL     1       1.698   5.890  20.569  0.00  0.00    +0.000 A 
ATOM     19  C   UNL     1       1.898   4.756  19.782  0.00  0.00    +0.000 A 
ATOM     20  C   UNL     1       2.380   4.895  18.485  0.00  0.00    +0.000 A 
ATOM     21  F   UNL     1       2.576   3.803  17.734  0.00  0.00    +0.000 F 
ATOM     22  C   UNL     1       2.663   6.149  17.959  0.00  0.00    +0.000 A 
ATOM     23  C   UNL     1       2.467   7.286  18.744  0.00  0.00    +0.000 A 
ENDBRANCH  16  17
ENDBRANCH  14  16
ENDBRANCH   9  12
BRANCH   1  26
ATOM     24  C   UNL     1      -2.785  14.586  22.914  0.00  0.00    +0.000 C 
ATOM     25  O   UNL     1      -2.283  14.952  23.974  0.00  0.00    +0.000 OA
ATOM     26  N   UNL     1      -3.332  13.303  22.700  0.00  0.00    +0.000 N 
BRANCH  24  28
ATOM     27  N   UNL     1      -3.927  16.578  21.813  0.00  0.00    +0.000 N 
ATOM     28  C   UNL     1      -2.897  15.618  21.761  0.00  0.00    +0.000 C 
ATOM     29  O   UNL     1      -2.062  15.570  20.861  0.00  0.00    +0.000 OA
BRANCH  27  31
ATOM     30  C   UNL     1      -4.871  17.344  19.598  0.00  0.00    +0.000 C 
ATOM     31  C   UNL     1      -3.951  17.620  20.778  0.00  0.00    +0.000 C 
ENDBRANCH  27  31
BRANCH  27  32
ATOM     32  C   UNL     1      -4.885  16.673  22.919  0.00  0.00    +0.000 C 
ATOM     33  C   UNL     1      -6.220  15.989  22.670  0.00  0.00    +0.000 C 
ENDBRANCH  27  32
ENDBRANCH  24  28
BRANCH  26  34
ATOM     34  C   UNL     1      -3.462  12.401  23.861  0.00  0.00    +0.000 C 
ATOM     35  C   UNL     1      -4.783  12.555  24.617  0.00  0.00    +0.000 C 
ENDBRANCH  26  34
ENDBRANCH   1  26
BRANCH   8  36
ATOM     36  O   UNL     1      -0.186  10.312  17.855  0.00  0.00    +0.000 OA
ATOM     37  H   UNL     1       0.462   9.803  18.384  0.00  0.00    +0.000 HD
ENDBRANCH   8  36
TORSDOF 9
ENDMDL
MODEL 6
REMARK VINA RESULT:      -6.3      2.691      4.191
REMARK  Name = 
REMARK  12 active torsions:
REMARK  status: ('A' for Active; 'I' for Inactive)
REMARK    1  A    between atoms: C_1  and  C_2
REMARK    2  A    between atoms: C_2  and  N_3
REMARK    3  A    between atoms: N_3  and  C_4
REMARK    4  A    between atoms: C_4  and  C_5
REMARK    5  A    between atoms: C_6  and  C_8
REMARK    6  A    between atoms: N_10  and  C_11
REMARK    7  A    between atoms: N_10  and  C_13
REMARK    8  A    between atoms: C_11  and  C_12
REMARK    9  A    between atoms: C_20  and  O_21
REMARK   10  A    between atoms: C_22  and  C_23
REMARK   11  A    between atoms: N_25  and  C_26
REMARK   12  A    between atoms: C_26  and  C_27
REMARK                            x       y       z     vdW  Elec       q    Type
REMARK                         _______ _______ _______ _____ _____    ______ ____
ROOT
ATOM      1  C   UNL     1      -2.348  12.475  21.123  0.00  0.00    +0.000 A 
ATOM      2  C   UNL     1      -3.618  12.918  21.138  0.00  0.00    +0.000 A 
ATOM      3  C   UNL     1      -4.503  12.693  20.030  0.00  0.00    +0.000 A 
ATOM      4  C   UNL     1      -4.059  12.066  18.936  0.00  0.00    +0.000 A 
ATOM      5  N   UNL     1      -2.778  11.535  18.866  0.00  0.00    +0.000 N 
ATOM      6  C   UNL     1      -2.405  10.865  17.715  0.00  0.00    +0.000 A 
ATOM      7  O   UNL     1      -3.075  10.781  16.682  0.00  0.00    +0.000 OA
ATOM      8  C   UNL     1      -1.096  10.172  17.729  0.00  0.00    +0.000 A 
ATOM      9  C   UNL     1      -0.355  10.289  18.845  0.00  0.00    +0.000 A 
ATOM     10  N   UNL     1      -0.734  11.032  19.950  0.00  0.00    +0.000 NA
ATOM     11  C   UNL     1      -1.888  11.629  19.934  0.00  0.00    +0.000 A 
ENDROOT
BRANCH   9  12
ATOM     12  C   UNL     1       0.962   9.539  18.916  0.00  0.00    +0.000 C 
ATOM     13  O   UNL     1       1.904   9.727  18.156  0.00  0.00    +0.000 OA
ATOM     14  N   UNL     1       1.008   8.622  19.944  0.00  0.00    +0.000 N 
ATOM     15  H   UNL     1       0.193   8.547  20.543  0.00  0.00    +0.000 HD
BRANCH  14  16
ATOM     16  C   UNL     1       2.154   7.775  20.177  0.00  0.00    +0.000 C 
BRANCH  16  17
ATOM     17  C   UNL     1       1.894   6.372  19.691  0.00  0.00    +0.000 A 
ATOM     18  C   UNL     1       1.387   5.394  20.561  0.00  0.00    +0.000 A 
ATOM     19  C   UNL     1       1.172   4.092  20.108  0.00  0.00    +0.000 A 
ATOM     20  C   UNL     1       1.466   3.766  18.788  0.00  0.00    +0.000 A 
ATOM     21  F   UNL     1       1.263   2.513  18.358  0.00  0.00    +0.000 F 
ATOM     22  C   UNL     1       1.969   4.718  17.912  0.00  0.00    +0.000 A 
ATOM     23  C   UNL     1       2.189   6.021  18.363  0.00  0.00    +0.000 A 
ENDBRANCH  16  17
ENDBRANCH  14  16
ENDBRANCH   9  12
BRANCH   1  26
ATOM     24  C   UNL     1      -0.523  13.939  21.911  0.00  0.00    +0.000 C 
ATOM     25  O   UNL     1       0.379  14.213  22.699  0.00  0.00    +0.000 OA
ATOM     26  N   UNL     1      -1.434  12.877  22.092  0.00  0.00    +0.000 N 
BRANCH  24  28
ATOM     27  N   UNL     1       0.143  14.722  19.581  0.00  0.00    +0.000 N 
ATOM     28  C   UNL     1      -0.726  14.861  20.680  0.00  0.00    +0.000 C 
ATOM     29  O   UNL     1      -1.660  15.660  20.707  0.00  0.00    +0.000 OA
BRANCH  27  31
ATOM     30  C   UNL     1       0.408  16.941  18.401  0.00  0.00    +0.000 C 
ATOM     31  C   UNL     1      -0.133  15.519  18.378  0.00  0.00    +0.000 C 
ENDBRANCH  27  31
BRANCH  27  32
ATOM     32  C   UNL     1       1.218  13.727  19.525  0.00  0.00    +0.000 C 
ATOM     33  C   UNL     1       1.999  13.700  18.221  0.00  0.00    +0.000 C 
ENDBRANCH  27  32
ENDBRANCH  24  28
BRANCH  26  34
ATOM     34  C   UNL     1      -1.412  12.154  23.378  0.00  0.00    +0.000 C 
ATOM     35  C   UNL     1      -1.147  10.653  23.237  0.00  0.00    +0.000 C 
ENDBRANCH  26  34
ENDBRANCH   1  26
BRANCH   8  36
ATOM     36  O   UNL     1      -0.768   9.425  16.617  0.00  0.00    +0.000 OA
ATOM     37  H   UNL     1      -1.522   9.522  15.999  0.00  0.00    +0.000 HD
ENDBRANCH   8  36
TORSDOF 9
ENDMDL
MODEL 7
REMARK VINA RESULT:      -6.3      1.726      3.776
REMARK  Name = 
REMARK  12 active torsions:
REMARK  status: ('A' for Active; 'I' for Inactive)
REMARK    1  A    between atoms: C_1  and  C_2
REMARK    2  A    between atoms: C_2  and  N_3
REMARK    3  A    between atoms: N_3  and  C_4
REMARK    4  A    between atoms: C_4  and  C_5
REMARK    5  A    between atoms: C_6  and  C_8
REMARK    6  A    between atoms: N_10  and  C_11
REMARK    7  A    between atoms: N_10  and  C_13
REMARK    8  A    between atoms: C_11  and  C_12
REMARK    9  A    between atoms: C_20  and  O_21
REMARK   10  A    between atoms: C_22  and  C_23
REMARK   11  A    between atoms: N_25  and  C_26
REMARK   12  A    between atoms: C_26  and  C_27
REMARK                            x       y       z     vdW  Elec       q    Type
REMARK                         _______ _______ _______ _____ _____    ______ ____
ROOT
ATOM      1  C   UNL     1      -3.920  13.132  21.009  0.00  0.00    +0.000 A 
ATOM      2  C   UNL     1      -5.227  12.948  21.268  0.00  0.00    +0.000 A 
ATOM      3  C   UNL     1      -6.070  12.203  20.375  0.00  0.00    +0.000 A 
ATOM      4  C   UNL     1      -5.568  11.707  19.239  0.00  0.00    +0.000 A 
ATOM      5  N   UNL     1      -4.218  11.812  18.929  0.00  0.00    +0.000 N 
ATOM      6  C   UNL     1      -3.767  11.239  17.753  0.00  0.00    +0.000 A 
ATOM      7  O   UNL     1      -4.477  10.725  16.885  0.00  0.00    +0.000 OA
ATOM      8  C   UNL     1      -2.303  11.225  17.526  0.00  0.00    +0.000 A 
ATOM      9  C   UNL     1      -1.534  11.811  18.461  0.00  0.00    +0.000 A 
ATOM     10  N   UNL     1      -2.032  12.439  19.589  0.00  0.00    +0.000 NA
ATOM     11  C   UNL     1      -3.317  12.440  19.787  0.00  0.00    +0.000 A 
ENDROOT
BRANCH   9  12
ATOM     12  C   UNL     1      -0.027  11.757  18.289  0.00  0.00    +0.000 C 
ATOM     13  O   UNL     1       0.703  12.741  18.296  0.00  0.00    +0.000 OA
ATOM     14  N   UNL     1       0.454  10.475  18.139  0.00  0.00    +0.000 N 
ATOM     15  H   UNL     1      -0.216   9.715  18.170  0.00  0.00    +0.000 HD
BRANCH  14  16
ATOM     16  C   UNL     1       1.855  10.192  17.930  0.00  0.00    +0.000 C 
BRANCH  16  17
ATOM     17  C   UNL     1       2.190   8.786  18.361  0.00  0.00    +0.000 A 
ATOM     18  C   UNL     1       1.766   8.298  19.608  0.00  0.00    +0.000 A 
ATOM     19  C   UNL     1       2.101   7.004  20.007  0.00  0.00    +0.000 A 
ATOM     20  C   UNL     1       2.860   6.199  19.164  0.00  0.00    +0.000 A 
ATOM     21  F   UNL     1       3.184   4.958  19.553  0.00  0.00    +0.000 F 
ATOM     22  C   UNL     1       3.289   6.663  17.928  0.00  0.00    +0.000 A 
ATOM     23  C   UNL     1       2.959   7.958  17.527  0.00  0.00    +0.000 A 
ENDBRANCH  16  17
ENDBRANCH  14  16
ENDBRANCH   9  12
BRANCH   1  26
ATOM     24  C   UNL     1      -2.406  13.660  22.887  0.00  0.00    +0.000 C 
ATOM     25  O   UNL     1      -1.846  14.461  23.630  0.00  0.00    +0.000 OA
ATOM     26  N   UNL     1      -3.159  14.029  21.753  0.00  0.00    +0.000 N 
BRANCH  24  28
ATOM     27  N   UNL     1      -1.038  11.521  22.698  0.00  0.00    +0.000 N 
ATOM     28  C   UNL     1      -2.212  12.146  23.161  0.00  0.00    +0.000 C 
ATOM     29  O   UNL     1      -3.085  11.559  23.797  0.00  0.00    +0.000 OA
BRANCH  27  31
ATOM     30  C   UNL     1      -0.750   9.141  21.898  0.00  0.00    +0.000 C 
ATOM     31  C   UNL     1      -0.813  10.117  23.064  0.00  0.00    +0.000 C 
ENDBRANCH  27  31
BRANCH  27  32
ATOM     32  C   UNL     1       0.030  12.236  21.992  0.00  0.00    +0.000 C 
ATOM     33  C   UNL     1       1.194  11.367  21.542  0.00  0.00    +0.000 C 
ENDBRANCH  27  32
ENDBRANCH  24  28
BRANCH  26  34
ATOM     34  C   UNL     1      -3.140  15.446  21.336  0.00  0.00    +0.000 C 
ATOM     35  C   UNL     1      -4.245  16.291  21.973  0.00  0.00    +0.000 C 
ENDBRANCH  26  34
ENDBRANCH   1  26
BRANCH   8  36
ATOM     36  O   UNL     1      -1.849  10.569  16.401  0.00  0.00    +0.000 OA
ATOM     37  H   UNL     1      -1.832  11.241  15.689  0.00  0.00    +0.000 HD
ENDBRANCH   8  36
TORSDOF 9
ENDMDL
MODEL 8
REMARK VINA RESULT:      -6.3      2.082      2.707
REMARK  Name = 
REMARK  12 active torsions:
REMARK  status: ('A' for Active; 'I' for Inactive)
REMARK    1  A    between atoms: C_1  and  C_2
REMARK    2  A    between atoms: C_2  and  N_3
REMARK    3  A    between atoms: N_3  and  C_4
REMARK    4  A    between atoms: C_4  and  C_5
REMARK    5  A    between atoms: C_6  and  C_8
REMARK    6  A    between atoms: N_10  and  C_11
REMARK    7  A    between atoms: N_10  and  C_13
REMARK    8  A    between atoms: C_11  and  C_12
REMARK    9  A    between atoms: C_20  and  O_21
REMARK   10  A    between atoms: C_22  and  C_23
REMARK   11  A    between atoms: N_25  and  C_26
REMARK   12  A    between atoms: C_26  and  C_27
REMARK                            x       y       z     vdW  Elec       q    Type
REMARK                         _______ _______ _______ _____ _____    ______ ____
ROOT
ATOM      1  C   UNL     1      -2.887  12.734  21.506  0.00  0.00    +0.000 A 
ATOM      2  C   UNL     1      -4.020  13.213  22.050  0.00  0.00    +0.000 A 
ATOM      3  C   UNL     1      -5.244  13.273  21.301  0.00  0.00    +0.000 A 
ATOM      4  C   UNL     1      -5.264  12.883  20.022  0.00  0.00    +0.000 A 
ATOM      5  N   UNL     1      -4.149  12.330  19.407  0.00  0.00    +0.000 N 
ATOM      6  C   UNL     1      -4.260  11.915  18.093  0.00  0.00    +0.000 A 
ATOM      7  O   UNL     1      -5.242  12.086  17.365  0.00  0.00    +0.000 OA
ATOM      8  C   UNL     1      -3.108  11.184  17.514  0.00  0.00    +0.000 A 
ATOM      9  C   UNL     1      -2.029  11.024  18.301  0.00  0.00    +0.000 A 
ATOM     10  N   UNL     1      -1.931  11.521  19.589  0.00  0.00    +0.000 NA
ATOM     11  C   UNL     1      -2.949  12.152  20.093  0.00  0.00    +0.000 A 
ENDROOT
BRANCH   9  12
ATOM     12  C   UNL     1      -0.858  10.225  17.761  0.00  0.00    +0.000 C 
ATOM     13  O   UNL     1      -0.957   9.338  16.921  0.00  0.00    +0.000 OA
ATOM     14  N   UNL     1       0.352  10.607  18.299  0.00  0.00    +0.000 N 
ATOM     15  H   UNL     1       0.348  11.367  18.969  0.00  0.00    +0.000 HD
BRANCH  14  16
ATOM     16  C   UNL     1       1.595   9.960  17.950  0.00  0.00    +0.000 C 
BRANCH  16  17
ATOM     17  C   UNL     1       1.773   8.683  18.731  0.00  0.00    +0.000 A 
ATOM     18  C   UNL     1       1.385   8.605  20.078  0.00  0.00    +0.000 A 
ATOM     19  C   UNL     1       1.576   7.426  20.798  0.00  0.00    +0.000 A 
ATOM     20  C   UNL     1       2.157   6.326  20.177  0.00  0.00    +0.000 A 
ATOM     21  F   UNL     1       2.344   5.197  20.874  0.00  0.00    +0.000 F 
ATOM     22  C   UNL     1       2.550   6.383  18.846  0.00  0.00    +0.000 A 
ATOM     23  C   UNL     1       2.363   7.562  18.123  0.00  0.00    +0.000 A 
ENDBRANCH  16  17
ENDBRANCH  14  16
ENDBRANCH   9  12
BRANCH   1  26
ATOM     24  C   UNL     1      -0.708  13.856  21.803  0.00  0.00    +0.000 C 
ATOM     25  O   UNL     1       0.428  13.904  22.268  0.00  0.00    +0.000 OA
ATOM     26  N   UNL     1      -1.662  12.878  22.152  0.00  0.00    +0.000 N 
BRANCH  24  28
ATOM     27  N   UNL     1      -1.821  16.103  21.362  0.00  0.00    +0.000 N 
ATOM     28  C   UNL     1      -1.151  14.983  20.834  0.00  0.00    +0.000 C 
ATOM     29  O   UNL     1      -0.874  14.860  19.643  0.00  0.00    +0.000 OA
BRANCH  27  31
ATOM     30  C   UNL     1      -3.610  17.547  20.312  0.00  0.00    +0.000 C 
ATOM     31  C   UNL     1      -2.131  17.214  20.452  0.00  0.00    +0.000 C 
ENDBRANCH  27  31
BRANCH  27  32
ATOM     32  C   UNL     1      -2.097  16.277  22.791  0.00  0.00    +0.000 C 
ATOM     33  C   UNL     1      -1.418  17.476  23.434  0.00  0.00    +0.000 C 
ENDBRANCH  27  32
ENDBRANCH  24  28
BRANCH  26  34
ATOM     34  C   UNL     1      -1.341  11.956  23.259  0.00  0.00    +0.000 C 
ATOM     35  C   UNL     1      -0.713  10.638  22.801  0.00  0.00    +0.000 C 
ENDBRANCH  26  34
ENDBRANCH   1  26
BRANCH   8  36
ATOM     36  O   UNL     1      -3.258  10.687  16.237  0.00  0.00    +0.000 OA
ATOM     37  H   UNL     1      -2.870   9.788  16.254  0.00  0.00    +0.000 HD
ENDBRANCH   8  36
TORSDOF 9
ENDMDL
MODEL 9
REMARK VINA RESULT:      -6.3      1.124      1.730
REMARK  Name = 
REMARK  12 active torsions:
REMARK  status: ('A' for Active; 'I' for Inactive)
REMARK    1  A    between atoms: C_1  and  C_2
REMARK    2  A    between atoms: C_2  and  N_3
REMARK    3  A    between atoms: N_3  and  C_4
REMARK    4  A    between atoms: C_4  and  C_5
REMARK    5  A    between atoms: C_6  and  C_8
REMARK    6  A    between atoms: N_10  and  C_11
REMARK    7  A    between atoms: N_10  and  C_13
REMARK    8  A    between atoms: C_11  and  C_12
REMARK    9  A    between atoms: C_20  and  O_21
REMARK   10  A    between atoms: C_22  and  C_23
REMARK   11  A    between atoms: N_25  and  C_26
REMARK   12  A    between atoms: C_26  and  C_27
REMARK                            x       y       z     vdW  Elec       q    Type
REMARK                         _______ _______ _______ _____ _____    ______ ____
ROOT
ATOM      1  C   UNL     1      -4.511  12.657  21.514  0.00  0.00    +0.000 A 
ATOM      2  C   UNL     1      -5.848  12.535  21.587  0.00  0.00    +0.000 A 
ATOM      3  C   UNL     1      -6.635  12.212  20.430  0.00  0.00    +0.000 A 
ATOM      4  C   UNL     1      -6.044  12.064  19.239  0.00  0.00    +0.000 A 
ATOM      5  N   UNL     1      -4.664  12.125  19.094  0.00  0.00    +0.000 N 
ATOM      6  C   UNL     1      -4.126  11.924  17.837  0.00  0.00    +0.000 A 
ATOM      7  O   UNL     1      -4.767  11.796  16.790  0.00  0.00    +0.000 OA
ATOM      8  C   UNL     1      -2.650  11.833  17.740  0.00  0.00    +0.000 A 
ATOM      9  C   UNL     1      -1.952  12.000  18.877  0.00  0.00    +0.000 A 
ATOM     10  N   UNL     1      -2.529  12.274  20.105  0.00  0.00    +0.000 NA
ATOM     11  C   UNL     1      -3.824  12.343  20.185  0.00  0.00    +0.000 A 
ENDROOT
BRANCH   9  12
ATOM     12  C   UNL     1      -0.442  11.850  18.823  0.00  0.00    +0.000 C 
ATOM     13  O   UNL     1       0.348  12.683  19.249  0.00  0.00    +0.000 OA
ATOM     14  N   UNL     1      -0.037  10.662  18.255  0.00  0.00    +0.000 N 
ATOM     15  H   UNL     1      -0.758  10.017  17.952  0.00  0.00    +0.000 HD
BRANCH  14  16
ATOM     16  C   UNL     1       1.355  10.324  18.075  0.00  0.00    +0.000 C 
BRANCH  16  17
ATOM     17  C   UNL     1       1.673   8.995  18.713  0.00  0.00    +0.000 A 
ATOM     18  C   UNL     1       1.290   8.726  20.037  0.00  0.00    +0.000 A 
ATOM     19  C   UNL     1       1.609   7.502  20.627  0.00  0.00    +0.000 A 
ATOM     20  C   UNL     1       2.313   6.550  19.898  0.00  0.00    +0.000 A 
ATOM     21  F   UNL     1       2.622   5.378  20.469  0.00  0.00    +0.000 F 
ATOM     22  C   UNL     1       2.702   6.798  18.588  0.00  0.00    +0.000 A 
ATOM     23  C   UNL     1       2.387   8.022  17.996  0.00  0.00    +0.000 A 
ENDBRANCH  16  17
ENDBRANCH  14  16
ENDBRANCH   9  12
BRANCH   1  26
ATOM     24  C   UNL     1      -3.647  14.562  22.826  0.00  0.00    +0.000 C 
ATOM     25  O   UNL     1      -2.892  15.038  23.671  0.00  0.00    +0.000 OA
ATOM     26  N   UNL     1      -3.778  13.180  22.575  0.00  0.00    +0.000 N 
BRANCH  24  28
ATOM     27  N   UNL     1      -4.056  16.181  20.905  0.00  0.00    +0.000 N 
ATOM     28  C   UNL     1      -4.571  15.528  22.040  0.00  0.00    +0.000 C 
ATOM     29  O   UNL     1      -5.729  15.661  22.431  0.00  0.00    +0.000 OA
BRANCH  27  31
ATOM     30  C   UNL     1      -5.869  16.228  19.145  0.00  0.00    +0.000 C 
ATOM     31  C   UNL     1      -4.975  17.000  20.103  0.00  0.00    +0.000 C 
ENDBRANCH  27  31
BRANCH  27  32
ATOM     32  C   UNL     1      -2.693  15.973  20.405  0.00  0.00    +0.000 C 
ATOM     33  C   UNL     1      -2.065  17.184  19.735  0.00  0.00    +0.000 C 
ENDBRANCH  27  32
ENDBRANCH  24  28
BRANCH  26  34
ATOM     34  C   UNL     1      -3.096  12.239  23.487  0.00  0.00    +0.000 C 
ATOM     35  C   UNL     1      -1.617  12.027  23.159  0.00  0.00    +0.000 C 
ENDBRANCH  26  34
ENDBRANCH   1  26
BRANCH   8  36
ATOM     36  O   UNL     1      -2.119  11.537  16.502  0.00  0.00    +0.000 OA
ATOM     37  H   UNL     1      -1.371  10.928  16.672  0.00  0.00    +0.000 HD
ENDBRANCH   8  36
TORSDOF 9
ENDMDL
