MODEL 1
REMARK VINA RESULT:      -7.7      0.000      0.000
REMARK  Name = 
REMARK  1 active torsions:
REMARK  status: ('A' for Active; 'I' for Inactive)
REMARK    1  A    between atoms: N_21  and  C_22
REMARK                            x       y       z     vdW  Elec       q    Type
REMARK                         _______ _______ _______ _____ _____    ______ ____
ROOT
ATOM      1  F   UNL     1       1.489   8.374  21.808  0.00  0.00    +0.000 F 
ATOM      2  C   UNL     1       0.766   9.477  22.043  0.00  0.00    +0.000 A 
ATOM      3  C   UNL     1      -0.225   9.458  23.015  0.00  0.00    +0.000 A 
ATOM      4  C   UNL     1      -1.122  10.524  23.121  0.00  0.00    +0.000 A 
ATOM      5  C   UNL     1      -1.004  11.613  22.253  0.00  0.00    +0.000 A 
ATOM      6  C   UNL     1       0.151  11.708  21.431  0.00  0.00    +0.000 A 
ATOM      7  C   UNL     1       0.988  10.605  21.269  0.00  0.00    +0.000 A 
ATOM      8  S   UNL     1       0.370  13.080  20.289  0.00  0.00    +0.000 S 
ATOM      9  C   UNL     1      -1.266  12.850  19.576  0.00  0.00    +0.000 C 
ATOM     10  O   UNL     1      -1.387  11.477  19.160  0.00  0.00    +0.000 OA
ATOM     11  C   UNL     1      -2.660  11.205  18.700  0.00  0.00    +0.000 A 
ATOM     12  C   UNL     1      -2.588  10.279  17.664  0.00  0.00    +0.000 A 
ATOM     13  C   UNL     1      -3.610  10.290  16.729  0.00  0.00    +0.000 A 
ATOM     14  C   UNL     1      -4.680  11.161  16.936  0.00  0.00    +0.000 A 
ATOM     15  C   UNL     1      -4.818  11.967  18.107  0.00  0.00    +0.000 A 
ATOM     16  C   UNL     1      -3.810  11.989  19.066  0.00  0.00    +0.000 A 
ATOM     17  C   UNL     1      -3.661  12.975  20.257  0.00  0.00    +0.000 A 
ATOM     18  C   UNL     1      -2.307  13.074  20.618  0.00  0.00    +0.000 A 
ATOM     19  C   UNL     1      -2.201  12.412  21.892  0.00  0.00    +0.000 A 
ATOM     20  N   UNL     1      -3.432  12.205  22.393  0.00  0.00    +0.000 NA
ATOM     21  N   UNL     1      -4.224  12.983  21.580  0.00  0.00    +0.000 N 
ENDROOT
BRANCH  21  22
ATOM     22  C   UNL     1      -4.994  14.020  22.264  0.00  0.00    +0.000 A 
ATOM     23  C   UNL     1      -4.581  15.355  22.293  0.00  0.00    +0.000 A 
ATOM     24  C   UNL     1      -5.257  16.291  23.108  0.00  0.00    +0.000 A 
ATOM     25  C   UNL     1      -6.364  15.915  23.889  0.00  0.00    +0.000 A 
ATOM     26  C   UNL     1      -6.796  14.593  23.855  0.00  0.00    +0.000 A 
ATOM     27  C   UNL     1      -6.111  13.657  23.061  0.00  0.00    +0.000 A 
ENDBRANCH  21  22
TORSDOF 1
ENDMDL
MODEL 2
REMARK VINA RESULT:      -7.6      2.091      2.783
REMARK  Name = 
REMARK  1 active torsions:
REMARK  status: ('A' for Active; 'I' for Inactive)
REMARK    1  A    between atoms: N_21  and  C_22
REMARK                            x       y       z     vdW  Elec       q    Type
REMARK                         _______ _______ _______ _____ _____    ______ ____
ROOT
ATOM      1  F   UNL     1       2.034   7.905  17.769  0.00  0.00    +0.000 F 
ATOM      2  C   UNL     1       1.719   8.885  18.626  0.00  0.00    +0.000 A 
ATOM      3  C   UNL     1       1.393   8.575  19.940  0.00  0.00    +0.000 A 
ATOM      4  C   UNL     1       0.859   9.556  20.779  0.00  0.00    +0.000 A 
ATOM      5  C   UNL     1       0.671  10.852  20.291  0.00  0.00    +0.000 A 
ATOM      6  C   UNL     1       1.224  11.193  19.028  0.00  0.00    +0.000 A 
ATOM      7  C   UNL     1       1.673  10.192  18.167  0.00  0.00    +0.000 A 
ATOM      8  S   UNL     1       1.021  12.841  18.337  0.00  0.00    +0.000 S 
ATOM      9  C   UNL     1      -0.759  12.816  18.598  0.00  0.00    +0.000 C 
ATOM     10  O   UNL     1      -1.288  11.624  17.989  0.00  0.00    +0.000 OA
ATOM     11  C   UNL     1      -2.638  11.488  18.245  0.00  0.00    +0.000 A 
ATOM     12  C   UNL     1      -3.260  10.907  17.146  0.00  0.00    +0.000 A 
ATOM     13  C   UNL     1      -4.604  11.183  16.956  0.00  0.00    +0.000 A 
ATOM     14  C   UNL     1      -5.260  11.946  17.922  0.00  0.00    +0.000 A 
ATOM     15  C   UNL     1      -4.641  12.373  19.136  0.00  0.00    +0.000 A 
ATOM     16  C   UNL     1      -3.291  12.122  19.360  0.00  0.00    +0.000 A 
ATOM     17  C   UNL     1      -2.393  12.716  20.479  0.00  0.00    +0.000 A 
ATOM     18  C   UNL     1      -1.053  12.717  20.057  0.00  0.00    +0.000 A 
ATOM     19  C   UNL     1      -0.400  11.711  20.854  0.00  0.00    +0.000 A 
ATOM     20  N   UNL     1      -1.202  11.357  21.873  0.00  0.00    +0.000 NA
ATOM     21  N   UNL     1      -2.173  12.333  21.847  0.00  0.00    +0.000 N 
ENDROOT
BRANCH  21  22
ATOM     22  C   UNL     1      -2.302  13.118  23.073  0.00  0.00    +0.000 A 
ATOM     23  C   UNL     1      -3.490  13.157  23.808  0.00  0.00    +0.000 A 
ATOM     24  C   UNL     1      -3.630  14.060  24.887  0.00  0.00    +0.000 A 
ATOM     25  C   UNL     1      -2.583  14.922  25.259  0.00  0.00    +0.000 A 
ATOM     26  C   UNL     1      -1.389  14.880  24.546  0.00  0.00    +0.000 A 
ATOM     27  C   UNL     1      -1.256  13.996  23.461  0.00  0.00    +0.000 A 
ENDBRANCH  21  22
TORSDOF 1
ENDMDL
MODEL 3
REMARK VINA RESULT:      -7.6      7.055      9.787
REMARK  Name = 
REMARK  1 active torsions:
REMARK  status: ('A' for Active; 'I' for Inactive)
REMARK    1  A    between atoms: N_21  and  C_22
REMARK                            x       y       z     vdW  Elec       q    Type
REMARK                         _______ _______ _______ _____ _____    ______ ____
ROOT
ATOM      1  F   UNL     1       8.822   3.934  17.857  0.00  0.00    +0.000 F 
ATOM      2  C   UNL     1       7.736   4.696  17.667  0.00  0.00    +0.000 A 
ATOM      3  C   UNL     1       7.670   5.959  18.240  0.00  0.00    +0.000 A 
ATOM      4  C   UNL     1       6.468   6.670  18.230  0.00  0.00    +0.000 A 
ATOM      5  C   UNL     1       5.340   6.108  17.625  0.00  0.00    +0.000 A 
ATOM      6  C   UNL     1       5.497   4.927  16.851  0.00  0.00    +0.000 A 
ATOM      7  C   UNL     1       6.673   4.183  16.941  0.00  0.00    +0.000 A 
ATOM      8  S   UNL     1       4.091   4.149  16.045  0.00  0.00    +0.000 S 
ATOM      9  C   UNL     1       3.123   4.147  17.563  0.00  0.00    +0.000 C 
ATOM     10  O   UNL     1       3.903   3.514  18.594  0.00  0.00    +0.000 OA
ATOM     11  C   UNL     1       3.260   3.575  19.815  0.00  0.00    +0.000 A 
ATOM     12  C   UNL     1       3.536   2.420  20.539  0.00  0.00    +0.000 A 
ATOM     13  C   UNL     1       2.603   2.024  21.484  0.00  0.00    +0.000 A 
ATOM     14  C   UNL     1       1.503   2.851  21.706  0.00  0.00    +0.000 A 
ATOM     15  C   UNL     1       1.342   4.125  21.081  0.00  0.00    +0.000 A 
ATOM     16  C   UNL     1       2.252   4.555  20.122  0.00  0.00    +0.000 A 
ATOM     17  C   UNL     1       2.112   5.769  19.163  0.00  0.00    +0.000 A 
ATOM     18  C   UNL     1       2.882   5.548  18.008  0.00  0.00    +0.000 A 
ATOM     19  C   UNL     1       3.982   6.473  18.099  0.00  0.00    +0.000 A 
ATOM     20  N   UNL     1       3.730   7.376  19.062  0.00  0.00    +0.000 NA
ATOM     21  N   UNL     1       2.395   7.169  19.329  0.00  0.00    +0.000 N 
ENDROOT
BRANCH  21  22
ATOM     22  C   UNL     1       1.530   8.330  19.129  0.00  0.00    +0.000 A 
ATOM     23  C   UNL     1       1.519   9.052  17.933  0.00  0.00    +0.000 A 
ATOM     24  C   UNL     1       0.801  10.266  17.841  0.00  0.00    +0.000 A 
ATOM     25  C   UNL     1       0.069  10.767  18.932  0.00  0.00    +0.000 A 
ATOM     26  C   UNL     1       0.057  10.048  20.123  0.00  0.00    +0.000 A 
ATOM     27  C   UNL     1       0.788   8.851  20.222  0.00  0.00    +0.000 A 
ENDBRANCH  21  22
TORSDOF 1
ENDMDL
MODEL 4
REMARK VINA RESULT:      -7.3      3.991      6.975
REMARK  Name = 
REMARK  1 active torsions:
REMARK  status: ('A' for Active; 'I' for Inactive)
REMARK    1  A    between atoms: N_21  and  C_22
REMARK                            x       y       z     vdW  Elec       q    Type
REMARK                         _______ _______ _______ _____ _____    ______ ____
ROOT
ATOM      1  F   UNL     1       0.151  17.067  19.505  0.00  0.00    +0.000 F 
ATOM      2  C   UNL     1       0.605  15.827  19.731  0.00  0.00    +0.000 A 
ATOM      3  C   UNL     1       1.595  15.296  18.915  0.00  0.00    +0.000 A 
ATOM      4  C   UNL     1       1.921  13.940  19.003  0.00  0.00    +0.000 A 
ATOM      5  C   UNL     1       1.257  13.130  19.928  0.00  0.00    +0.000 A 
ATOM      6  C   UNL     1       0.423  13.745  20.899  0.00  0.00    +0.000 A 
ATOM      7  C   UNL     1       0.036  15.077  20.748  0.00  0.00    +0.000 A 
ATOM      8  S   UNL     1      -0.464  12.766  22.120  0.00  0.00    +0.000 S 
ATOM      9  C   UNL     1      -1.146  11.674  20.862  0.00  0.00    +0.000 C 
ATOM     10  O   UNL     1      -1.795  12.484  19.864  0.00  0.00    +0.000 OA
ATOM     11  C   UNL     1      -2.248  11.714  18.813  0.00  0.00    +0.000 A 
ATOM     12  C   UNL     1      -3.434  12.252  18.325  0.00  0.00    +0.000 A 
ATOM     13  C   UNL     1      -4.314  11.387  17.695  0.00  0.00    +0.000 A 
ATOM     14  C   UNL     1      -3.915  10.062  17.514  0.00  0.00    +0.000 A 
ATOM     15  C   UNL     1      -2.615   9.582  17.859  0.00  0.00    +0.000 A 
ATOM     16  C   UNL     1      -1.706  10.418  18.500  0.00  0.00    +0.000 A 
ATOM     17  C   UNL     1      -0.365  10.016  19.172  0.00  0.00    +0.000 A 
ATOM     18  C   UNL     1      -0.042  10.949  20.172  0.00  0.00    +0.000 A 
ATOM     19  C   UNL     1       1.089  11.680  19.662  0.00  0.00    +0.000 A 
ATOM     20  N   UNL     1       1.591  11.040  18.591  0.00  0.00    +0.000 NA
ATOM     21  N   UNL     1       0.958   9.819  18.646  0.00  0.00    +0.000 N 
ENDROOT
BRANCH  21  22
ATOM     22  C   UNL     1       1.845   8.660  18.748  0.00  0.00    +0.000 A 
ATOM     23  C   UNL     1       2.687   8.275  17.702  0.00  0.00    +0.000 A 
ATOM     24  C   UNL     1       3.397   7.055  17.773  0.00  0.00    +0.000 A 
ATOM     25  C   UNL     1       3.292   6.212  18.894  0.00  0.00    +0.000 A 
ATOM     26  C   UNL     1       2.471   6.594  19.950  0.00  0.00    +0.000 A 
ATOM     27  C   UNL     1       1.748   7.797  19.871  0.00  0.00    +0.000 A 
ENDBRANCH  21  22
TORSDOF 1
ENDMDL
MODEL 5
REMARK VINA RESULT:      -7.2      3.449      7.082
REMARK  Name = 
REMARK  1 active torsions:
REMARK  status: ('A' for Active; 'I' for Inactive)
REMARK    1  A    between atoms: N_21  and  C_22
REMARK                            x       y       z     vdW  Elec       q    Type
REMARK                         _______ _______ _______ _____ _____    ______ ____
ROOT
ATOM      1  F   UNL     1      -3.424  14.888  23.276  0.00  0.00    +0.000 F 
ATOM      2  C   UNL     1      -3.021  13.751  22.694  0.00  0.00    +0.000 A 
ATOM      3  C   UNL     1      -2.287  12.825  23.423  0.00  0.00    +0.000 A 
ATOM      4  C   UNL     1      -1.682  11.745  22.775  0.00  0.00    +0.000 A 
ATOM      5  C   UNL     1      -1.835  11.596  21.393  0.00  0.00    +0.000 A 
ATOM      6  C   UNL     1      -2.774  12.421  20.718  0.00  0.00    +0.000 A 
ATOM      7  C   UNL     1      -3.302  13.545  21.352  0.00  0.00    +0.000 A 
ATOM      8  S   UNL     1      -3.023  12.287  18.943  0.00  0.00    +0.000 S 
ATOM      9  C   UNL     1      -1.260  12.415  18.607  0.00  0.00    +0.000 C 
ATOM     10  O   UNL     1      -0.762  13.599  19.256  0.00  0.00    +0.000 OA
ATOM     11  C   UNL     1       0.609  13.701  19.127  0.00  0.00    +0.000 A 
ATOM     12  C   UNL     1       0.964  15.041  19.016  0.00  0.00    +0.000 A 
ATOM     13  C   UNL     1       2.140  15.334  18.346  0.00  0.00    +0.000 A 
ATOM     14  C   UNL     1       2.929  14.270  17.908  0.00  0.00    +0.000 A 
ATOM     15  C   UNL     1       2.632  12.904  18.200  0.00  0.00    +0.000 A 
ATOM     16  C   UNL     1       1.458  12.568  18.865  0.00  0.00    +0.000 A 
ATOM     17  C   UNL     1       0.846  11.152  19.044  0.00  0.00    +0.000 A 
ATOM     18  C   UNL     1      -0.545  11.259  19.220  0.00  0.00    +0.000 A 
ATOM     19  C   UNL     1      -0.784  10.915  20.597  0.00  0.00    +0.000 A 
ATOM     20  N   UNL     1       0.321  10.355  21.118  0.00  0.00    +0.000 NA
ATOM     21  N   UNL     1       1.089  10.108  20.002  0.00  0.00    +0.000 N 
ENDROOT
BRANCH  21  22
ATOM     22  C   UNL     1       1.452   8.708  19.791  0.00  0.00    +0.000 A 
ATOM     23  C   UNL     1       1.352   7.753  20.806  0.00  0.00    +0.000 A 
ATOM     24  C   UNL     1       1.874   6.454  20.614  0.00  0.00    +0.000 A 
ATOM     25  C   UNL     1       2.486   6.083  19.404  0.00  0.00    +0.000 A 
ATOM     26  C   UNL     1       2.576   7.020  18.379  0.00  0.00    +0.000 A 
ATOM     27  C   UNL     1       2.075   8.318  18.576  0.00  0.00    +0.000 A 
ENDBRANCH  21  22
TORSDOF 1
ENDMDL
MODEL 6
REMARK VINA RESULT:      -7.1      1.351      1.621
REMARK  Name = 
REMARK  1 active torsions:
REMARK  status: ('A' for Active; 'I' for Inactive)
REMARK    1  A    between atoms: N_21  and  C_22
REMARK                            x       y       z     vdW  Elec       q    Type
REMARK                         _______ _______ _______ _____ _____    ______ ____
ROOT
ATOM      1  F   UNL     1       1.518   7.789  19.865  0.00  0.00    +0.000 F 
ATOM      2  C   UNL     1       1.079   8.917  20.437  0.00  0.00    +0.000 A 
ATOM      3  C   UNL     1       0.484   8.870  21.691  0.00  0.00    +0.000 A 
ATOM      4  C   UNL     1      -0.166   9.996  22.200  0.00  0.00    +0.000 A 
ATOM      5  C   UNL     1      -0.198  11.174  21.447  0.00  0.00    +0.000 A 
ATOM      6  C   UNL     1       0.611  11.260  20.282  0.00  0.00    +0.000 A 
ATOM      7  C   UNL     1       1.181  10.110  19.738  0.00  0.00    +0.000 A 
ATOM      8  S   UNL     1       0.620  12.742  19.264  0.00  0.00    +0.000 S 
ATOM      9  C   UNL     1      -1.176  12.773  19.155  0.00  0.00    +0.000 C 
ATOM     10  O   UNL     1      -1.622  11.486  18.689  0.00  0.00    +0.000 OA
ATOM     11  C   UNL     1      -3.000  11.406  18.684  0.00  0.00    +0.000 A 
ATOM     12  C   UNL     1      -3.413  10.623  17.612  0.00  0.00    +0.000 A 
ATOM     13  C   UNL     1      -4.679  10.859  17.102  0.00  0.00    +0.000 A 
ATOM     14  C   UNL     1      -5.483  11.797  17.750  0.00  0.00    +0.000 A 
ATOM     15  C   UNL     1      -5.102  12.451  18.961  0.00  0.00    +0.000 A 
ATOM     16  C   UNL     1      -3.836  12.246  19.501  0.00  0.00    +0.000 A 
ATOM     17  C   UNL     1      -3.157  13.045  20.646  0.00  0.00    +0.000 A 
ATOM     18  C   UNL     1      -1.760  12.960  20.514  0.00  0.00    +0.000 A 
ATOM     19  C   UNL     1      -1.323  12.128  21.604  0.00  0.00    +0.000 A 
ATOM     20  N   UNL     1      -2.327  11.981  22.486  0.00  0.00    +0.000 NA
ATOM     21  N   UNL     1      -3.231  12.935  22.077  0.00  0.00    +0.000 N 
ENDROOT
BRANCH  21  22
ATOM     22  C   UNL     1      -3.570  13.944  23.079  0.00  0.00    +0.000 A 
ATOM     23  C   UNL     1      -4.709  14.746  22.969  0.00  0.00    +0.000 A 
ATOM     24  C   UNL     1      -4.910  15.823  23.861  0.00  0.00    +0.000 A 
ATOM     25  C   UNL     1      -3.989  16.104  24.886  0.00  0.00    +0.000 A 
ATOM     26  C   UNL     1      -2.860  15.302  25.017  0.00  0.00    +0.000 A 
ATOM     27  C   UNL     1      -2.650  14.243  24.117  0.00  0.00    +0.000 A 
ENDBRANCH  21  22
TORSDOF 1
ENDMDL
MODEL 7
REMARK VINA RESULT:      -7.1      1.117      1.236
REMARK  Name = 
REMARK  1 active torsions:
REMARK  status: ('A' for Active; 'I' for Inactive)
REMARK    1  A    between atoms: N_21  and  C_22
REMARK                            x       y       z     vdW  Elec       q    Type
REMARK                         _______ _______ _______ _____ _____    ______ ____
ROOT
ATOM      1  F   UNL     1       1.121   7.660  20.797  0.00  0.00    +0.000 F 
ATOM      2  C   UNL     1       0.718   8.871  21.202  0.00  0.00    +0.000 A 
ATOM      3  C   UNL     1       0.059   9.008  22.417  0.00  0.00    +0.000 A 
ATOM      4  C   UNL     1      -0.552  10.220  22.749  0.00  0.00    +0.000 A 
ATOM      5  C   UNL     1      -0.479  11.296  21.859  0.00  0.00    +0.000 A 
ATOM      6  C   UNL     1       0.392  11.198  20.741  0.00  0.00    +0.000 A 
ATOM      7  C   UNL     1       0.923   9.962  20.372  0.00  0.00    +0.000 A 
ATOM      8  S   UNL     1       0.537  12.541  19.554  0.00  0.00    +0.000 S 
ATOM      9  C   UNL     1      -1.247  12.647  19.340  0.00  0.00    +0.000 C 
ATOM     10  O   UNL     1      -1.740  11.337  19.006  0.00  0.00    +0.000 OA
ATOM     11  C   UNL     1      -3.119  11.326  18.933  0.00  0.00    +0.000 A 
ATOM     12  C   UNL     1      -3.521  10.439  17.940  0.00  0.00    +0.000 A 
ATOM     13  C   UNL     1      -4.744  10.674  17.334  0.00  0.00    +0.000 A 
ATOM     14  C   UNL     1      -5.525  11.724  17.817  0.00  0.00    +0.000 A 
ATOM     15  C   UNL     1      -5.169  12.502  18.961  0.00  0.00    +0.000 A 
ATOM     16  C   UNL     1      -3.947  12.301  19.593  0.00  0.00    +0.000 A 
ATOM     17  C   UNL     1      -3.282  13.200  20.670  0.00  0.00    +0.000 A 
ATOM     18  C   UNL     1      -1.887  13.030  20.630  0.00  0.00    +0.000 A 
ATOM     19  C   UNL     1      -1.554  12.317  21.836  0.00  0.00    +0.000 A 
ATOM     20  N   UNL     1      -2.608  12.331  22.670  0.00  0.00    +0.000 NA
ATOM     21  N   UNL     1      -3.434  13.271  22.098  0.00  0.00    +0.000 N 
ENDROOT
BRANCH  21  22
ATOM     22  C   UNL     1      -3.766  14.412  22.950  0.00  0.00    +0.000 A 
ATOM     23  C   UNL     1      -2.838  14.981  23.824  0.00  0.00    +0.000 A 
ATOM     24  C   UNL     1      -3.246  15.966  24.752  0.00  0.00    +0.000 A 
ATOM     25  C   UNL     1      -4.579  16.410  24.809  0.00  0.00    +0.000 A 
ATOM     26  C   UNL     1      -5.509  15.864  23.931  0.00  0.00    +0.000 A 
ATOM     27  C   UNL     1      -5.108  14.870  23.021  0.00  0.00    +0.000 A 
ENDBRANCH  21  22
TORSDOF 1
ENDMDL
MODEL 8
REMARK VINA RESULT:      -6.9      4.273      7.309
REMARK  Name = 
REMARK  1 active torsions:
REMARK  status: ('A' for Active; 'I' for Inactive)
REMARK    1  A    between atoms: N_21  and  C_22
REMARK                            x       y       z     vdW  Elec       q    Type
REMARK                         _______ _______ _______ _____ _____    ______ ____
ROOT
ATOM      1  F   UNL     1       0.932  16.736  18.934  0.00  0.00    +0.000 F 
ATOM      2  C   UNL     1       1.306  15.475  19.187  0.00  0.00    +0.000 A 
ATOM      3  C   UNL     1       2.230  14.850  18.360  0.00  0.00    +0.000 A 
ATOM      4  C   UNL     1       2.465  13.478  18.483  0.00  0.00    +0.000 A 
ATOM      5  C   UNL     1       1.776  12.745  19.454  0.00  0.00    +0.000 A 
ATOM      6  C   UNL     1       1.017  13.448  20.428  0.00  0.00    +0.000 A 
ATOM      7  C   UNL     1       0.719  14.797  20.244  0.00  0.00    +0.000 A 
ATOM      8  S   UNL     1       0.104  12.571  21.706  0.00  0.00    +0.000 S 
ATOM      9  C   UNL     1      -0.691  11.491  20.505  0.00  0.00    +0.000 C 
ATOM     10  O   UNL     1      -1.313  12.314  19.501  0.00  0.00    +0.000 OA
ATOM     11  C   UNL     1      -1.852  11.545  18.489  0.00  0.00    +0.000 A 
ATOM     12  C   UNL     1      -3.013  12.150  18.018  0.00  0.00    +0.000 A 
ATOM     13  C   UNL     1      -3.970  11.330  17.443  0.00  0.00    +0.000 A 
ATOM     14  C   UNL     1      -3.670   9.975  17.295  0.00  0.00    +0.000 A 
ATOM     15  C   UNL     1      -2.395   9.416  17.617  0.00  0.00    +0.000 A 
ATOM     16  C   UNL     1      -1.411  10.205  18.203  0.00  0.00    +0.000 A 
ATOM     17  C   UNL     1      -0.080   9.731  18.848  0.00  0.00    +0.000 A 
ATOM     18  C   UNL     1       0.338  10.669  19.807  0.00  0.00    +0.000 A 
ATOM     19  C   UNL     1       1.500  11.303  19.241  0.00  0.00    +0.000 A 
ATOM     20  N   UNL     1       1.922  10.597  18.177  0.00  0.00    +0.000 NA
ATOM     21  N   UNL     1       1.209   9.425  18.290  0.00  0.00    +0.000 N 
ENDROOT
BRANCH  21  22
ATOM     22  C   UNL     1       2.015   8.212  18.404  0.00  0.00    +0.000 A 
ATOM     23  C   UNL     1       1.994   7.410  19.549  0.00  0.00    +0.000 A 
ATOM     24  C   UNL     1       2.914   6.346  19.689  0.00  0.00    +0.000 A 
ATOM     25  C   UNL     1       3.853   6.055  18.684  0.00  0.00    +0.000 A 
ATOM     26  C   UNL     1       3.872   6.834  17.532  0.00  0.00    +0.000 A 
ATOM     27  C   UNL     1       2.972   7.905  17.401  0.00  0.00    +0.000 A 
ENDBRANCH  21  22
TORSDOF 1
ENDMDL
MODEL 9
REMARK VINA RESULT:      -6.9      9.597     11.896
REMARK  Name = 
REMARK  1 active torsions:
REMARK  status: ('A' for Active; 'I' for Inactive)
REMARK    1  A    between atoms: N_21  and  C_22
REMARK                            x       y       z     vdW  Elec       q    Type
REMARK                         _______ _______ _______ _____ _____    ______ ____
ROOT
ATOM      1  F   UNL     1      11.755  12.565  16.715  0.00  0.00    +0.000 F 
ATOM      2  C   UNL     1      11.460  12.619  18.020  0.00  0.00    +0.000 A 
ATOM      3  C   UNL     1      11.060  11.467  18.685  0.00  0.00    +0.000 A 
ATOM      4  C   UNL     1      10.547  11.551  19.982  0.00  0.00    +0.000 A 
ATOM      5  C   UNL     1      10.455  12.797  20.608  0.00  0.00    +0.000 A 
ATOM      6  C   UNL     1      11.081  13.916  19.997  0.00  0.00    +0.000 A 
ATOM      7  C   UNL     1      11.509  13.841  18.672  0.00  0.00    +0.000 A 
ATOM      8  S   UNL     1      11.003  15.549  20.744  0.00  0.00    +0.000 S 
ATOM      9  C   UNL     1       9.215  15.466  20.925  0.00  0.00    +0.000 C 
ATOM     10  O   UNL     1       8.645  15.147  19.642  0.00  0.00    +0.000 OA
ATOM     11  C   UNL     1       7.280  14.963  19.733  0.00  0.00    +0.000 A 
ATOM     12  C   UNL     1       6.674  15.423  18.569  0.00  0.00    +0.000 A 
ATOM     13  C   UNL     1       5.357  15.844  18.660  0.00  0.00    +0.000 A 
ATOM     14  C   UNL     1       4.705  15.696  19.884  0.00  0.00    +0.000 A 
ATOM     15  C   UNL     1       5.294  15.047  21.013  0.00  0.00    +0.000 A 
ATOM     16  C   UNL     1       6.616  14.618  20.963  0.00  0.00    +0.000 A 
ATOM     17  C   UNL     1       7.497  14.133  22.146  0.00  0.00    +0.000 A 
ATOM     18  C   UNL     1       8.852  14.349  21.843  0.00  0.00    +0.000 A 
ATOM     19  C   UNL     1       9.411  13.039  21.635  0.00  0.00    +0.000 A 
ATOM     20  N   UNL     1       8.547  12.108  22.074  0.00  0.00    +0.000 NA
ATOM     21  N   UNL     1       7.636  12.854  22.787  0.00  0.00    +0.000 N 
ENDROOT
BRANCH  21  22
ATOM     22  C   UNL     1       7.498  12.492  24.197  0.00  0.00    +0.000 A 
ATOM     23  C   UNL     1       6.624  11.490  24.625  0.00  0.00    +0.000 A 
ATOM     24  C   UNL     1       6.392  11.289  26.004  0.00  0.00    +0.000 A 
ATOM     25  C   UNL     1       7.041  12.071  26.976  0.00  0.00    +0.000 A 
ATOM     26  C   UNL     1       7.927  13.061  26.563  0.00  0.00    +0.000 A 
ATOM     27  C   UNL     1       8.143  13.274  25.191  0.00  0.00    +0.000 A 
ENDBRANCH  21  22
TORSDOF 1
ENDMDL
