MODEL 1
REMARK VINA RESULT:      -7.9      0.000      0.000
REMARK  Name = 
REMARK  11 active torsions:
REMARK  status: ('A' for Active; 'I' for Inactive)
REMARK    1  A    between atoms: C_1  and  O_2
REMARK    2  A    between atoms: O_2  and  C_3
REMARK    3  A    between atoms: C_6  and  O_7
REMARK    4  A    between atoms: O_7  and  C_8
REMARK    5  A    between atoms: C_9  and  N_10
REMARK    6  A    between atoms: N_10  and  C_11
REMARK    7  A    between atoms: N_10  and  S_21
REMARK    8  A    between atoms: C_11  and  C_12
REMARK    9  A    between atoms: N_14  and  C_15
REMARK   10  A    between atoms: C_15  and  C_16
REMARK   11  A    between atoms: S_21  and  C_24
REMARK                            x       y       z     vdW  Elec       q    Type
REMARK                         _______ _______ _______ _____ _____    ______ ____
ROOT
ATOM      1  N   UNL     1       3.633   5.451  17.581  0.00  0.00    +0.000 N 
ENDROOT
BRANCH   1   6
ATOM      2  C   UNL     1       6.211   4.877  14.955  0.00  0.00    +0.000 A 
ATOM      3  C   UNL     1       7.330   4.539  15.709  0.00  0.00    +0.000 A 
ATOM      4  C   UNL     1       7.296   4.637  17.099  0.00  0.00    +0.000 A 
ATOM      5  C   UNL     1       6.125   5.028  17.758  0.00  0.00    +0.000 A 
ATOM      6  C   UNL     1       4.965   5.309  17.003  0.00  0.00    +0.000 A 
ATOM      7  C   UNL     1       5.026   5.236  15.599  0.00  0.00    +0.000 A 
BRANCH   2   9
ATOM      8  C   UNL     1       5.772   3.562  13.063  0.00  0.00    +0.000 C 
ATOM      9  O   UNL     1       6.352   4.747  13.600  0.00  0.00    +0.000 OA
ENDBRANCH   2   9
BRANCH   5  10
ATOM     10  O   UNL     1       6.029   5.135  19.118  0.00  0.00    +0.000 OA
ATOM     11  C   UNL     1       7.205   5.499  19.832  0.00  0.00    +0.000 C 
ENDBRANCH   5  10
ENDBRANCH   1   6
BRANCH   1  12
ATOM     12  S   UNL     1       2.700   3.983  17.533  0.00  0.00    +0.000 S 
ATOM     13  O   UNL     1       1.369   4.326  17.064  0.00  0.00    +0.000 OA
ATOM     14  O   UNL     1       3.463   2.962  16.851  0.00  0.00    +0.000 OA
BRANCH  12  15
ATOM     15  C   UNL     1       2.534   3.473  19.238  0.00  0.00    +0.000 A 
ATOM     16  C   UNL     1       3.597   2.831  19.884  0.00  0.00    +0.000 A 
ATOM     17  C   UNL     1       3.434   2.382  21.197  0.00  0.00    +0.000 A 
ATOM     18  C   UNL     1       2.231   2.600  21.870  0.00  0.00    +0.000 A 
ATOM     19  C   UNL     1       1.199   3.305  21.248  0.00  0.00    +0.000 A 
ATOM     20  C   UNL     1       1.353   3.755  19.935  0.00  0.00    +0.000 A 
ENDBRANCH  12  15
ENDBRANCH   1  12
BRANCH   1  21
ATOM     21  C   UNL     1       3.464   6.206  18.853  0.00  0.00    +0.000 C 
BRANCH  21  22
ATOM     22  C   UNL     1       2.574   7.434  18.809  0.00  0.00    +0.000 C 
ATOM     23  O   UNL     1       2.484   8.127  17.796  0.00  0.00    +0.000 OA
ATOM     24  N   UNL     1       1.999   7.804  20.006  0.00  0.00    +0.000 N 
ATOM     25  H   UNL     1       1.903   7.085  20.716  0.00  0.00    +0.000 HD
BRANCH  24  26
ATOM     26  C   UNL     1       1.118   8.963  20.094  0.00  0.00    +0.000 C 
BRANCH  26  27
ATOM     27  C   UNL     1       0.931   9.471  21.527  0.00  0.00    +0.000 C 
ATOM     28  C   UNL     1      -0.298   8.916  22.241  0.00  0.00    +0.000 C 
ATOM     29  C   UNL     1      -0.744  10.080  23.089  0.00  0.00    +0.000 C 
ATOM     30  C   UNL     1      -0.387  11.263  22.221  0.00  0.00    +0.000 C 
ATOM     31  O   UNL     1       0.810  10.909  21.520  0.00  0.00    +0.000 OA
ENDBRANCH  26  27
ENDBRANCH  24  26
ENDBRANCH  21  22
ENDBRANCH   1  21
TORSDOF 9
ENDMDL
MODEL 2
REMARK VINA RESULT:      -7.8      1.706      3.223
REMARK  Name = 
REMARK  11 active torsions:
REMARK  status: ('A' for Active; 'I' for Inactive)
REMARK    1  A    between atoms: C_1  and  O_2
REMARK    2  A    between atoms: O_2  and  C_3
REMARK    3  A    between atoms: C_6  and  O_7
REMARK    4  A    between atoms: O_7  and  C_8
REMARK    5  A    between atoms: C_9  and  N_10
REMARK    6  A    between atoms: N_10  and  C_11
REMARK    7  A    between atoms: N_10  and  S_21
REMARK    8  A    between atoms: C_11  and  C_12
REMARK    9  A    between atoms: N_14  and  C_15
REMARK   10  A    between atoms: C_15  and  C_16
REMARK   11  A    between atoms: S_21  and  C_24
REMARK                            x       y       z     vdW  Elec       q    Type
REMARK                         _______ _______ _______ _____ _____    ______ ____
ROOT
ATOM      1  N   UNL     1       3.545   5.381  17.662  0.00  0.00    +0.000 N 
ENDROOT
BRANCH   1   6
ATOM      2  C   UNL     1       6.899   5.598  19.266  0.00  0.00    +0.000 A 
ATOM      3  C   UNL     1       7.703   6.020  18.212  0.00  0.00    +0.000 A 
ATOM      4  C   UNL     1       7.184   6.098  16.920  0.00  0.00    +0.000 A 
ATOM      5  C   UNL     1       5.838   5.803  16.674  0.00  0.00    +0.000 A 
ATOM      6  C   UNL     1       4.999   5.438  17.749  0.00  0.00    +0.000 A 
ATOM      7  C   UNL     1       5.548   5.333  19.041  0.00  0.00    +0.000 A 
BRANCH   2   9
ATOM      8  C   UNL     1       8.830   5.026  20.467  0.00  0.00    +0.000 C 
ATOM      9  O   UNL     1       7.507   5.554  20.490  0.00  0.00    +0.000 OA
ENDBRANCH   2   9
BRANCH   5  10
ATOM     10  O   UNL     1       5.271   5.870  15.430  0.00  0.00    +0.000 OA
ATOM     11  C   UNL     1       5.483   4.769  14.553  0.00  0.00    +0.000 C 
ENDBRANCH   5  10
ENDBRANCH   1   6
BRANCH   1  12
ATOM     12  S   UNL     1       2.924   3.759  17.539  0.00  0.00    +0.000 S 
ATOM     13  O   UNL     1       1.695   3.818  16.769  0.00  0.00    +0.000 OA
ATOM     14  O   UNL     1       3.992   2.877  17.127  0.00  0.00    +0.000 OA
BRANCH  12  15
ATOM     15  C   UNL     1       2.469   3.300  19.206  0.00  0.00    +0.000 A 
ATOM     16  C   UNL     1       1.143   3.436  19.633  0.00  0.00    +0.000 A 
ATOM     17  C   UNL     1       0.810   3.132  20.955  0.00  0.00    +0.000 A 
ATOM     18  C   UNL     1       1.788   2.668  21.836  0.00  0.00    +0.000 A 
ATOM     19  C   UNL     1       3.094   2.464  21.388  0.00  0.00    +0.000 A 
ATOM     20  C   UNL     1       3.435   2.767  20.068  0.00  0.00    +0.000 A 
ENDBRANCH  12  15
ENDBRANCH   1  12
BRANCH   1  21
ATOM     21  C   UNL     1       2.723   6.252  18.549  0.00  0.00    +0.000 C 
BRANCH  21  22
ATOM     22  C   UNL     1       2.473   7.671  18.074  0.00  0.00    +0.000 C 
ATOM     23  O   UNL     1       3.066   8.137  17.101  0.00  0.00    +0.000 OA
ATOM     24  N   UNL     1       1.665   8.443  18.882  0.00  0.00    +0.000 N 
ATOM     25  H   UNL     1       1.028   7.954  19.502  0.00  0.00    +0.000 HD
BRANCH  24  26
ATOM     26  C   UNL     1       1.346   9.822  18.533  0.00  0.00    +0.000 C 
BRANCH  26  27
ATOM     27  C   UNL     1      -0.036  10.264  19.025  0.00  0.00    +0.000 C 
ATOM     28  C   UNL     1      -1.142  10.174  17.977  0.00  0.00    +0.000 C 
ATOM     29  C   UNL     1      -2.011  11.360  18.309  0.00  0.00    +0.000 C 
ATOM     30  C   UNL     1      -1.001  12.372  18.795  0.00  0.00    +0.000 C 
ATOM     31  O   UNL     1       0.023  11.635  19.471  0.00  0.00    +0.000 OA
ENDBRANCH  26  27
ENDBRANCH  24  26
ENDBRANCH  21  22
ENDBRANCH   1  21
TORSDOF 9
ENDMDL
MODEL 3
REMARK VINA RESULT:      -7.8      1.389      1.895
REMARK  Name = 
REMARK  11 active torsions:
REMARK  status: ('A' for Active; 'I' for Inactive)
REMARK    1  A    between atoms: C_1  and  O_2
REMARK    2  A    between atoms: O_2  and  C_3
REMARK    3  A    between atoms: C_6  and  O_7
REMARK    4  A    between atoms: O_7  and  C_8
REMARK    5  A    between atoms: C_9  and  N_10
REMARK    6  A    between atoms: N_10  and  C_11
REMARK    7  A    between atoms: N_10  and  S_21
REMARK    8  A    between atoms: C_11  and  C_12
REMARK    9  A    between atoms: N_14  and  C_15
REMARK   10  A    between atoms: C_15  and  C_16
REMARK   11  A    between atoms: S_21  and  C_24
REMARK                            x       y       z     vdW  Elec       q    Type
REMARK                         _______ _______ _______ _____ _____    ______ ____
ROOT
ATOM      1  N   UNL     1       4.434   4.949  17.602  0.00  0.00    +0.000 N 
ENDROOT
BRANCH   1   6
ATOM      2  C   UNL     1       5.625   4.315  14.131  0.00  0.00    +0.000 A 
ATOM      3  C   UNL     1       6.979   4.622  14.224  0.00  0.00    +0.000 A 
ATOM      4  C   UNL     1       7.494   5.184  15.391  0.00  0.00    +0.000 A 
ATOM      5  C   UNL     1       6.670   5.401  16.501  0.00  0.00    +0.000 A 
ATOM      6  C   UNL     1       5.309   5.030  16.438  0.00  0.00    +0.000 A 
ATOM      7  C   UNL     1       4.799   4.494  15.241  0.00  0.00    +0.000 A 
BRANCH   2   9
ATOM      8  C   UNL     1       6.291   3.287  12.132  0.00  0.00    +0.000 C 
ATOM      9  O   UNL     1       5.224   3.771  12.942  0.00  0.00    +0.000 OA
ENDBRANCH   2   9
BRANCH   5  10
ATOM     10  O   UNL     1       7.120   5.941  17.675  0.00  0.00    +0.000 OA
ATOM     11  C   UNL     1       7.611   7.276  17.637  0.00  0.00    +0.000 C 
ENDBRANCH   5  10
ENDBRANCH   1   6
BRANCH   1  12
ATOM     12  S   UNL     1       4.580   3.448  18.471  0.00  0.00    +0.000 S 
ATOM     13  O   UNL     1       4.669   2.381  17.490  0.00  0.00    +0.000 OA
ATOM     14  O   UNL     1       5.604   3.587  19.481  0.00  0.00    +0.000 OA
BRANCH  12  15
ATOM     15  C   UNL     1       3.020   3.241  19.321  0.00  0.00    +0.000 A 
ATOM     16  C   UNL     1       1.843   3.050  18.587  0.00  0.00    +0.000 A 
ATOM     17  C   UNL     1       0.622   2.950  19.258  0.00  0.00    +0.000 A 
ATOM     18  C   UNL     1       0.580   3.011  20.652  0.00  0.00    +0.000 A 
ATOM     19  C   UNL     1       1.763   3.128  21.383  0.00  0.00    +0.000 A 
ATOM     20  C   UNL     1       2.988   3.231  20.720  0.00  0.00    +0.000 A 
ENDBRANCH  12  15
ENDBRANCH   1  12
BRANCH   1  21
ATOM     21  C   UNL     1       4.298   6.130  18.499  0.00  0.00    +0.000 C 
BRANCH  21  22
ATOM     22  C   UNL     1       2.888   6.548  18.874  0.00  0.00    +0.000 C 
ATOM     23  O   UNL     1       2.059   6.853  18.017  0.00  0.00    +0.000 OA
ATOM     24  N   UNL     1       2.645   6.707  20.222  0.00  0.00    +0.000 N 
ATOM     25  H   UNL     1       3.258   6.216  20.864  0.00  0.00    +0.000 HD
BRANCH  24  26
ATOM     26  C   UNL     1       1.329   7.101  20.709  0.00  0.00    +0.000 C 
BRANCH  26  27
ATOM     27  C   UNL     1       1.247   8.581  21.096  0.00  0.00    +0.000 C 
ATOM     28  C   UNL     1       0.087   8.932  22.023  0.00  0.00    +0.000 C 
ATOM     29  C   UNL     1      -0.309  10.309  21.554  0.00  0.00    +0.000 C 
ATOM     30  C   UNL     1      -0.039  10.232  20.070  0.00  0.00    +0.000 C 
ATOM     31  O   UNL     1       1.105   9.386  19.906  0.00  0.00    +0.000 OA
ENDBRANCH  26  27
ENDBRANCH  24  26
ENDBRANCH  21  22
ENDBRANCH   1  21
TORSDOF 9
ENDMDL
MODEL 4
REMARK VINA RESULT:      -7.7      1.261      2.989
REMARK  Name = 
REMARK  11 active torsions:
REMARK  status: ('A' for Active; 'I' for Inactive)
REMARK    1  A    between atoms: C_1  and  O_2
REMARK    2  A    between atoms: O_2  and  C_3
REMARK    3  A    between atoms: C_6  and  O_7
REMARK    4  A    between atoms: O_7  and  C_8
REMARK    5  A    between atoms: C_9  and  N_10
REMARK    6  A    between atoms: N_10  and  C_11
REMARK    7  A    between atoms: N_10  and  S_21
REMARK    8  A    between atoms: C_11  and  C_12
REMARK    9  A    between atoms: N_14  and  C_15
REMARK   10  A    between atoms: C_15  and  C_16
REMARK   11  A    between atoms: S_21  and  C_24
REMARK                            x       y       z     vdW  Elec       q    Type
REMARK                         _______ _______ _______ _____ _____    ______ ____
ROOT
ATOM      1  N   UNL     1       3.577   5.306  17.666  0.00  0.00    +0.000 N 
ENDROOT
BRANCH   1   6
ATOM      2  C   UNL     1       6.932   5.600  19.255  0.00  0.00    +0.000 A 
ATOM      3  C   UNL     1       7.718   6.054  18.201  0.00  0.00    +0.000 A 
ATOM      4  C   UNL     1       7.191   6.130  16.913  0.00  0.00    +0.000 A 
ATOM      5  C   UNL     1       5.853   5.800  16.670  0.00  0.00    +0.000 A 
ATOM      6  C   UNL     1       5.030   5.403  17.746  0.00  0.00    +0.000 A 
ATOM      7  C   UNL     1       5.587   5.301  19.034  0.00  0.00    +0.000 A 
BRANCH   2   9
ATOM      8  C   UNL     1       8.868   5.029  20.447  0.00  0.00    +0.000 C 
ATOM      9  O   UNL     1       7.548   5.562  20.476  0.00  0.00    +0.000 OA
ENDBRANCH   2   9
BRANCH   5  10
ATOM     10  O   UNL     1       5.278   5.863  15.430  0.00  0.00    +0.000 OA
ATOM     11  C   UNL     1       5.499   4.767  14.549  0.00  0.00    +0.000 C 
ENDBRANCH   5  10
ENDBRANCH   1   6
BRANCH   1  12
ATOM     12  S   UNL     1       3.000   3.669  17.536  0.00  0.00    +0.000 S 
ATOM     13  O   UNL     1       1.810   3.689  16.703  0.00  0.00    +0.000 OA
ATOM     14  O   UNL     1       4.107   2.806  17.191  0.00  0.00    +0.000 OA
BRANCH  12  15
ATOM     15  C   UNL     1       2.472   3.222  19.184  0.00  0.00    +0.000 A 
ATOM     16  C   UNL     1       1.116   3.288  19.527  0.00  0.00    +0.000 A 
ATOM     17  C   UNL     1       0.721   2.995  20.835  0.00  0.00    +0.000 A 
ATOM     18  C   UNL     1       1.669   2.611  21.785  0.00  0.00    +0.000 A 
ATOM     19  C   UNL     1       3.010   2.475  21.421  0.00  0.00    +0.000 A 
ATOM     20  C   UNL     1       3.412   2.767  20.116  0.00  0.00    +0.000 A 
ENDBRANCH  12  15
ENDBRANCH   1  12
BRANCH   1  21
ATOM     21  C   UNL     1       2.736   6.149  18.562  0.00  0.00    +0.000 C 
BRANCH  21  22
ATOM     22  C   UNL     1       2.557   7.603  18.166  0.00  0.00    +0.000 C 
ATOM     23  O   UNL     1       3.290   8.137  17.334  0.00  0.00    +0.000 OA
ATOM     24  N   UNL     1       1.634   8.317  18.899  0.00  0.00    +0.000 N 
ATOM     25  H   UNL     1       0.910   7.787  19.375  0.00  0.00    +0.000 HD
BRANCH  24  26
ATOM     26  C   UNL     1       1.367   9.721  18.613  0.00  0.00    +0.000 C 
BRANCH  26  27
ATOM     27  C   UNL     1       0.282  10.324  19.511  0.00  0.00    +0.000 C 
ATOM     28  C   UNL     1       0.611  11.708  20.062  0.00  0.00    +0.000 C 
ATOM     29  C   UNL     1      -0.011  11.677  21.435  0.00  0.00    +0.000 C 
ATOM     30  C   UNL     1       0.174  10.233  21.838  0.00  0.00    +0.000 C 
ATOM     31  O   UNL     1       0.050   9.456  20.641  0.00  0.00    +0.000 OA
ENDBRANCH  26  27
ENDBRANCH  24  26
ENDBRANCH  21  22
ENDBRANCH   1  21
TORSDOF 9
ENDMDL
MODEL 5
REMARK VINA RESULT:      -7.6      1.298      2.832
REMARK  Name = 
REMARK  11 active torsions:
REMARK  status: ('A' for Active; 'I' for Inactive)
REMARK    1  A    between atoms: C_1  and  O_2
REMARK    2  A    between atoms: O_2  and  C_3
REMARK    3  A    between atoms: C_6  and  O_7
REMARK    4  A    between atoms: O_7  and  C_8
REMARK    5  A    between atoms: C_9  and  N_10
REMARK    6  A    between atoms: N_10  and  C_11
REMARK    7  A    between atoms: N_10  and  S_21
REMARK    8  A    between atoms: C_11  and  C_12
REMARK    9  A    between atoms: N_14  and  C_15
REMARK   10  A    between atoms: C_15  and  C_16
REMARK   11  A    between atoms: S_21  and  C_24
REMARK                            x       y       z     vdW  Elec       q    Type
REMARK                         _______ _______ _______ _____ _____    ______ ____
ROOT
ATOM      1  N   UNL     1       3.543   5.373  17.648  0.00  0.00    +0.000 N 
ENDROOT
BRANCH   1   6
ATOM      2  C   UNL     1       6.904   5.587  19.236  0.00  0.00    +0.000 A 
ATOM      3  C   UNL     1       7.709   5.979  18.171  0.00  0.00    +0.000 A 
ATOM      4  C   UNL     1       7.187   6.035  16.880  0.00  0.00    +0.000 A 
ATOM      5  C   UNL     1       5.838   5.750  16.644  0.00  0.00    +0.000 A 
ATOM      6  C   UNL     1       4.998   5.416  17.729  0.00  0.00    +0.000 A 
ATOM      7  C   UNL     1       5.549   5.332  19.021  0.00  0.00    +0.000 A 
BRANCH   2   9
ATOM      8  C   UNL     1       8.848   5.057  20.436  0.00  0.00    +0.000 C 
ATOM      9  O   UNL     1       7.516   5.563  20.459  0.00  0.00    +0.000 OA
ENDBRANCH   2   9
BRANCH   5  10
ATOM     10  O   UNL     1       5.267   5.797  15.401  0.00  0.00    +0.000 OA
ATOM     11  C   UNL     1       5.494   4.691  14.533  0.00  0.00    +0.000 C 
ENDBRANCH   5  10
ENDBRANCH   1   6
BRANCH   1  12
ATOM     12  S   UNL     1       2.905   3.756  17.551  0.00  0.00    +0.000 S 
ATOM     13  O   UNL     1       1.666   3.818  16.796  0.00  0.00    +0.000 OA
ATOM     14  O   UNL     1       3.959   2.859  17.134  0.00  0.00    +0.000 OA
BRANCH  12  15
ATOM     15  C   UNL     1       2.468   3.319  19.229  0.00  0.00    +0.000 A 
ATOM     16  C   UNL     1       3.449   2.843  20.107  0.00  0.00    +0.000 A 
ATOM     17  C   UNL     1       3.084   2.447  21.397  0.00  0.00    +0.000 A 
ATOM     18  C   UNL     1       1.757   2.555  21.815  0.00  0.00    +0.000 A 
ATOM     19  C   UNL     1       0.796   3.099  20.962  0.00  0.00    +0.000 A 
ATOM     20  C   UNL     1       1.152   3.495  19.671  0.00  0.00    +0.000 A 
ENDBRANCH  12  15
ENDBRANCH   1  12
BRANCH   1  21
ATOM     21  C   UNL     1       2.733   6.265  18.524  0.00  0.00    +0.000 C 
BRANCH  21  22
ATOM     22  C   UNL     1       2.492   7.678  18.026  0.00  0.00    +0.000 C 
ATOM     23  O   UNL     1       3.092   8.127  17.050  0.00  0.00    +0.000 OA
ATOM     24  N   UNL     1       1.683   8.465  18.818  0.00  0.00    +0.000 N 
ATOM     25  H   UNL     1       1.040   7.988  19.442  0.00  0.00    +0.000 HD
BRANCH  24  26
ATOM     26  C   UNL     1       1.371   9.840  18.446  0.00  0.00    +0.000 C 
BRANCH  26  27
ATOM     27  C   UNL     1       0.989  10.717  19.643  0.00  0.00    +0.000 C 
ATOM     28  C   UNL     1       0.234   9.986  20.749  0.00  0.00    +0.000 C 
ATOM     29  C   UNL     1      -0.720  11.039  21.252  0.00  0.00    +0.000 C 
ATOM     30  C   UNL     1      -1.039  11.810  19.993  0.00  0.00    +0.000 C 
ATOM     31  O   UNL     1       0.153  11.806  19.199  0.00  0.00    +0.000 OA
ENDBRANCH  26  27
ENDBRANCH  24  26
ENDBRANCH  21  22
ENDBRANCH   1  21
TORSDOF 9
ENDMDL
MODEL 6
REMARK VINA RESULT:      -7.6      1.411      1.876
REMARK  Name = 
REMARK  11 active torsions:
REMARK  status: ('A' for Active; 'I' for Inactive)
REMARK    1  A    between atoms: C_1  and  O_2
REMARK    2  A    between atoms: O_2  and  C_3
REMARK    3  A    between atoms: C_6  and  O_7
REMARK    4  A    between atoms: O_7  and  C_8
REMARK    5  A    between atoms: C_9  and  N_10
REMARK    6  A    between atoms: N_10  and  C_11
REMARK    7  A    between atoms: N_10  and  S_21
REMARK    8  A    between atoms: C_11  and  C_12
REMARK    9  A    between atoms: N_14  and  C_15
REMARK   10  A    between atoms: C_15  and  C_16
REMARK   11  A    between atoms: S_21  and  C_24
REMARK                            x       y       z     vdW  Elec       q    Type
REMARK                         _______ _______ _______ _____ _____    ______ ____
ROOT
ATOM      1  N   UNL     1       4.318   5.750  17.549  0.00  0.00    +0.000 N 
ENDROOT
BRANCH   1   6
ATOM      2  C   UNL     1       5.723   4.314  14.414  0.00  0.00    +0.000 A 
ATOM      3  C   UNL     1       7.070   4.651  14.513  0.00  0.00    +0.000 A 
ATOM      4  C   UNL     1       7.512   5.484  15.539  0.00  0.00    +0.000 A 
ATOM      5  C   UNL     1       6.620   5.951  16.512  0.00  0.00    +0.000 A 
ATOM      6  C   UNL     1       5.265   5.560  16.456  0.00  0.00    +0.000 A 
ATOM      7  C   UNL     1       4.830   4.745  15.395  0.00  0.00    +0.000 A 
BRANCH   2   9
ATOM      8  C   UNL     1       6.360   3.472  12.320  0.00  0.00    +0.000 C 
ATOM      9  O   UNL     1       5.396   3.495  13.369  0.00  0.00    +0.000 OA
ENDBRANCH   2   9
BRANCH   5  10
ATOM     10  O   UNL     1       6.997   6.763  17.546  0.00  0.00    +0.000 OA
ATOM     11  C   UNL     1       7.900   6.226  18.506  0.00  0.00    +0.000 C 
ENDBRANCH   5  10
ENDBRANCH   1   6
BRANCH   1  12
ATOM     12  S   UNL     1       4.592   4.680  18.894  0.00  0.00    +0.000 S 
ATOM     13  O   UNL     1       5.457   3.609  18.431  0.00  0.00    +0.000 OA
ATOM     14  O   UNL     1       4.969   5.462  20.049  0.00  0.00    +0.000 OA
BRANCH  12  15
ATOM     15  C   UNL     1       3.001   3.945  19.245  0.00  0.00    +0.000 A 
ATOM     16  C   UNL     1       2.516   3.916  20.558  0.00  0.00    +0.000 A 
ATOM     17  C   UNL     1       1.300   3.285  20.830  0.00  0.00    +0.000 A 
ATOM     18  C   UNL     1       0.559   2.714  19.794  0.00  0.00    +0.000 A 
ATOM     19  C   UNL     1       1.009   2.809  18.476  0.00  0.00    +0.000 A 
ATOM     20  C   UNL     1       2.225   3.436  18.197  0.00  0.00    +0.000 A 
ENDBRANCH  12  15
ENDBRANCH   1  12
BRANCH   1  21
ATOM     21  C   UNL     1       3.955   7.132  17.971  0.00  0.00    +0.000 C 
BRANCH  21  22
ATOM     22  C   UNL     1       2.582   7.322  18.589  0.00  0.00    +0.000 C 
ATOM     23  O   UNL     1       1.587   7.523  17.893  0.00  0.00    +0.000 OA
ATOM     24  N   UNL     1       2.548   7.405  19.965  0.00  0.00    +0.000 N 
ATOM     25  H   UNL     1       3.324   6.994  20.473  0.00  0.00    +0.000 HD
BRANCH  24  26
ATOM     26  C   UNL     1       1.289   7.582  20.678  0.00  0.00    +0.000 C 
BRANCH  26  27
ATOM     27  C   UNL     1       1.143   8.971  21.308  0.00  0.00    +0.000 C 
ATOM     28  C   UNL     1       0.126   9.050  22.442  0.00  0.00    +0.000 C 
ATOM     29  C   UNL     1      -0.461  10.428  22.267  0.00  0.00    +0.000 C 
ATOM     30  C   UNL     1      -0.434  10.600  20.767  0.00  0.00    +0.000 C 
ATOM     31  O   UNL     1       0.736   9.921  20.299  0.00  0.00    +0.000 OA
ENDBRANCH  26  27
ENDBRANCH  24  26
ENDBRANCH  21  22
ENDBRANCH   1  21
TORSDOF 9
ENDMDL
MODEL 7
REMARK VINA RESULT:      -7.6      0.847      1.028
REMARK  Name = 
REMARK  11 active torsions:
REMARK  status: ('A' for Active; 'I' for Inactive)
REMARK    1  A    between atoms: C_1  and  O_2
REMARK    2  A    between atoms: O_2  and  C_3
REMARK    3  A    between atoms: C_6  and  O_7
REMARK    4  A    between atoms: O_7  and  C_8
REMARK    5  A    between atoms: C_9  and  N_10
REMARK    6  A    between atoms: N_10  and  C_11
REMARK    7  A    between atoms: N_10  and  S_21
REMARK    8  A    between atoms: C_11  and  C_12
REMARK    9  A    between atoms: N_14  and  C_15
REMARK   10  A    between atoms: C_15  and  C_16
REMARK   11  A    between atoms: S_21  and  C_24
REMARK                            x       y       z     vdW  Elec       q    Type
REMARK                         _______ _______ _______ _____ _____    ______ ____
ROOT
ATOM      1  N   UNL     1       3.786   4.937  17.451  0.00  0.00    +0.000 N 
ENDROOT
BRANCH   1   6
ATOM      2  C   UNL     1       6.414   4.824  14.815  0.00  0.00    +0.000 A 
ATOM      3  C   UNL     1       7.572   4.634  15.561  0.00  0.00    +0.000 A 
ATOM      4  C   UNL     1       7.528   4.688  16.954  0.00  0.00    +0.000 A 
ATOM      5  C   UNL     1       6.313   4.882  17.621  0.00  0.00    +0.000 A 
ATOM      6  C   UNL     1       5.122   5.010  16.872  0.00  0.00    +0.000 A 
ATOM      7  C   UNL     1       5.191   4.986  15.466  0.00  0.00    +0.000 A 
BRANCH   2   9
ATOM      8  C   UNL     1       6.075   3.554  12.873  0.00  0.00    +0.000 C 
ATOM      9  O   UNL     1       6.570   4.755  13.457  0.00  0.00    +0.000 OA
ENDBRANCH   2   9
BRANCH   5  10
ATOM     10  O   UNL     1       6.205   4.936  18.983  0.00  0.00    +0.000 OA
ATOM     11  C   UNL     1       7.276   5.538  19.702  0.00  0.00    +0.000 C 
ENDBRANCH   5  10
ENDBRANCH   1   6
BRANCH   1  12
ATOM     12  S   UNL     1       3.160   3.315  17.541  0.00  0.00    +0.000 S 
ATOM     13  O   UNL     1       2.023   3.234  16.641  0.00  0.00    +0.000 OA
ATOM     14  O   UNL     1       4.254   2.381  17.406  0.00  0.00    +0.000 OA
BRANCH  12  15
ATOM     15  C   UNL     1       2.520   3.148  19.202  0.00  0.00    +0.000 A 
ATOM     16  C   UNL     1       3.366   2.743  20.241  0.00  0.00    +0.000 A 
ATOM     17  C   UNL     1       2.841   2.557  21.523  0.00  0.00    +0.000 A 
ATOM     18  C   UNL     1       1.490   2.802  21.770  0.00  0.00    +0.000 A 
ATOM     19  C   UNL     1       0.665   3.276  20.749  0.00  0.00    +0.000 A 
ATOM     20  C   UNL     1       1.181   3.463  19.464  0.00  0.00    +0.000 A 
ENDBRANCH  12  15
ENDBRANCH   1  12
BRANCH   1  21
ATOM     21  C   UNL     1       3.464   5.752  18.655  0.00  0.00    +0.000 C 
BRANCH  21  22
ATOM     22  C   UNL     1       2.971   7.167  18.414  0.00  0.00    +0.000 C 
ATOM     23  O   UNL     1       3.488   7.892  17.564  0.00  0.00    +0.000 OA
ATOM     24  N   UNL     1       2.021   7.632  19.298  0.00  0.00    +0.000 N 
ATOM     25  H   UNL     1       1.470   6.938  19.794  0.00  0.00    +0.000 HD
BRANCH  24  26
ATOM     26  C   UNL     1       1.464   8.973  19.170  0.00  0.00    +0.000 C 
BRANCH  26  27
ATOM     27  C   UNL     1       0.413   9.295  20.238  0.00  0.00    +0.000 C 
ATOM     28  C   UNL     1       0.446  10.732  20.747  0.00  0.00    +0.000 C 
ATOM     29  C   UNL     1       0.078  10.578  22.201  0.00  0.00    +0.000 C 
ATOM     30  C   UNL     1       0.701   9.247  22.550  0.00  0.00    +0.000 C 
ATOM     31  O   UNL     1       0.601   8.430  21.378  0.00  0.00    +0.000 OA
ENDBRANCH  26  27
ENDBRANCH  24  26
ENDBRANCH  21  22
ENDBRANCH   1  21
TORSDOF 9
ENDMDL
MODEL 8
REMARK VINA RESULT:      -7.5      1.764      3.157
REMARK  Name = 
REMARK  11 active torsions:
REMARK  status: ('A' for Active; 'I' for Inactive)
REMARK    1  A    between atoms: C_1  and  O_2
REMARK    2  A    between atoms: O_2  and  C_3
REMARK    3  A    between atoms: C_6  and  O_7
REMARK    4  A    between atoms: O_7  and  C_8
REMARK    5  A    between atoms: C_9  and  N_10
REMARK    6  A    between atoms: N_10  and  C_11
REMARK    7  A    between atoms: N_10  and  S_21
REMARK    8  A    between atoms: C_11  and  C_12
REMARK    9  A    between atoms: N_14  and  C_15
REMARK   10  A    between atoms: C_15  and  C_16
REMARK   11  A    between atoms: S_21  and  C_24
REMARK                            x       y       z     vdW  Elec       q    Type
REMARK                         _______ _______ _______ _____ _____    ______ ____
ROOT
ATOM      1  N   UNL     1       3.321   5.546  17.674  0.00  0.00    +0.000 N 
ENDROOT
BRANCH   1   6
ATOM      2  C   UNL     1       6.717   5.261  19.177  0.00  0.00    +0.000 A 
ATOM      3  C   UNL     1       7.543   5.380  18.064  0.00  0.00    +0.000 A 
ATOM      4  C   UNL     1       6.995   5.407  16.782  0.00  0.00    +0.000 A 
ATOM      5  C   UNL     1       5.608   5.367  16.599  0.00  0.00    +0.000 A 
ATOM      6  C   UNL     1       4.760   5.313  17.727  0.00  0.00    +0.000 A 
ATOM      7  C   UNL     1       5.332   5.254  19.011  0.00  0.00    +0.000 A 
BRANCH   2   9
ATOM      8  C   UNL     1       8.695   5.727  20.347  0.00  0.00    +0.000 C 
ATOM      9  O   UNL     1       7.357   5.241  20.386  0.00  0.00    +0.000 OA
ENDBRANCH   2   9
BRANCH   5  10
ATOM     10  O   UNL     1       5.013   5.399  15.367  0.00  0.00    +0.000 OA
ATOM     11  C   UNL     1       5.558   4.561  14.354  0.00  0.00    +0.000 C 
ENDBRANCH   5  10
ENDBRANCH   1   6
BRANCH   1  12
ATOM     12  S   UNL     1       2.390   4.080  17.555  0.00  0.00    +0.000 S 
ATOM     13  O   UNL     1       1.043   4.448  17.157  0.00  0.00    +0.000 OA
ATOM     14  O   UNL     1       3.132   3.113  16.779  0.00  0.00    +0.000 OA
BRANCH  12  15
ATOM     15  C   UNL     1       2.283   3.452  19.226  0.00  0.00    +0.000 A 
ATOM     16  C   UNL     1       3.410   2.887  19.835  0.00  0.00    +0.000 A 
ATOM     17  C   UNL     1       3.300   2.344  21.118  0.00  0.00    +0.000 A 
ATOM     18  C   UNL     1       2.082   2.392  21.798  0.00  0.00    +0.000 A 
ATOM     19  C   UNL     1       0.980   3.022  21.217  0.00  0.00    +0.000 A 
ATOM     20  C   UNL     1       1.081   3.565  19.934  0.00  0.00    +0.000 A 
ENDBRANCH  12  15
ENDBRANCH   1  12
BRANCH   1  21
ATOM     21  C   UNL     1       2.708   6.552  18.585  0.00  0.00    +0.000 C 
BRANCH  21  22
ATOM     22  C   UNL     1       2.476   7.940  18.016  0.00  0.00    +0.000 C 
ATOM     23  O   UNL     1       3.021   8.307  16.975  0.00  0.00    +0.000 OA
ATOM     24  N   UNL     1       1.749   8.801  18.810  0.00  0.00    +0.000 N 
ATOM     25  H   UNL     1       1.136   8.386  19.504  0.00  0.00    +0.000 HD
BRANCH  24  26
ATOM     26  C   UNL     1       1.454  10.161  18.373  0.00  0.00    +0.000 C 
BRANCH  26  27
ATOM     27  C   UNL     1       0.075  10.653  18.824  0.00  0.00    +0.000 C 
ATOM     28  C   UNL     1      -1.045  10.413  17.816  0.00  0.00    +0.000 C 
ATOM     29  C   UNL     1      -1.922  11.626  17.999  0.00  0.00    +0.000 C 
ATOM     30  C   UNL     1      -0.916  12.703  18.327  0.00  0.00    +0.000 C 
ATOM     31  O   UNL     1       0.126  12.073  19.079  0.00  0.00    +0.000 OA
ENDBRANCH  26  27
ENDBRANCH  24  26
ENDBRANCH  21  22
ENDBRANCH   1  21
TORSDOF 9
ENDMDL
MODEL 9
REMARK VINA RESULT:      -7.4      1.219      1.523
REMARK  Name = 
REMARK  11 active torsions:
REMARK  status: ('A' for Active; 'I' for Inactive)
REMARK    1  A    between atoms: C_1  and  O_2
REMARK    2  A    between atoms: O_2  and  C_3
REMARK    3  A    between atoms: C_6  and  O_7
REMARK    4  A    between atoms: O_7  and  C_8
REMARK    5  A    between atoms: C_9  and  N_10
REMARK    6  A    between atoms: N_10  and  C_11
REMARK    7  A    between atoms: N_10  and  S_21
REMARK    8  A    between atoms: C_11  and  C_12
REMARK    9  A    between atoms: N_14  and  C_15
REMARK   10  A    between atoms: C_15  and  C_16
REMARK   11  A    between atoms: S_21  and  C_24
REMARK                            x       y       z     vdW  Elec       q    Type
REMARK                         _______ _______ _______ _____ _____    ______ ____
ROOT
ATOM      1  N   UNL     1       4.308   4.873  17.946  0.00  0.00    +0.000 N 
ENDROOT
BRANCH   1   6
ATOM      2  C   UNL     1       5.646   4.448  14.497  0.00  0.00    +0.000 A 
ATOM      3  C   UNL     1       6.947   4.924  14.624  0.00  0.00    +0.000 A 
ATOM      4  C   UNL     1       7.360   5.530  15.809  0.00  0.00    +0.000 A 
ATOM      5  C   UNL     1       6.492   5.623  16.903  0.00  0.00    +0.000 A 
ATOM      6  C   UNL     1       5.191   5.082  16.804  0.00  0.00    +0.000 A 
ATOM      7  C   UNL     1       4.780   4.503  15.589  0.00  0.00    +0.000 A 
BRANCH   2   9
ATOM      8  C   UNL     1       6.482   3.496  12.523  0.00  0.00    +0.000 C 
ATOM      9  O   UNL     1       5.344   3.874  13.292  0.00  0.00    +0.000 OA
ENDBRANCH   2   9
BRANCH   5  10
ATOM     10  O   UNL     1       6.843   6.199  18.093  0.00  0.00    +0.000 OA
ATOM     11  C   UNL     1       7.874   5.570  18.847  0.00  0.00    +0.000 C 
ENDBRANCH   5  10
ENDBRANCH   1   6
BRANCH   1  12
ATOM     12  S   UNL     1       4.397   3.262  18.600  0.00  0.00    +0.000 S 
ATOM     13  O   UNL     1       4.183   2.333  17.505  0.00  0.00    +0.000 OA
ATOM     14  O   UNL     1       5.584   3.151  19.418  0.00  0.00    +0.000 OA
BRANCH  12  15
ATOM     15  C   UNL     1       2.986   3.115  19.687  0.00  0.00    +0.000 A 
ATOM     16  C   UNL     1       3.176   2.894  21.057  0.00  0.00    +0.000 A 
ATOM     17  C   UNL     1       2.066   2.720  21.887  0.00  0.00    +0.000 A 
ATOM     18  C   UNL     1       0.776   2.796  21.359  0.00  0.00    +0.000 A 
ATOM     19  C   UNL     1       0.589   3.089  20.007  0.00  0.00    +0.000 A 
ATOM     20  C   UNL     1       1.693   3.263  19.170  0.00  0.00    +0.000 A 
ENDBRANCH  12  15
ENDBRANCH   1  12
BRANCH   1  21
ATOM     21  C   UNL     1       4.210   5.923  18.998  0.00  0.00    +0.000 C 
BRANCH  21  22
ATOM     22  C   UNL     1       2.852   6.570  19.196  0.00  0.00    +0.000 C 
ATOM     23  O   UNL     1       2.239   7.078  18.258  0.00  0.00    +0.000 OA
ATOM     24  N   UNL     1       2.425   6.684  20.502  0.00  0.00    +0.000 N 
ATOM     25  H   UNL     1       2.831   6.048  21.180  0.00  0.00    +0.000 HD
BRANCH  24  26
ATOM     26  C   UNL     1       1.135   7.283  20.824  0.00  0.00    +0.000 C 
BRANCH  26  27
ATOM     27  C   UNL     1       1.245   8.741  21.282  0.00  0.00    +0.000 C 
ATOM     28  C   UNL     1       0.332   9.110  22.447  0.00  0.00    +0.000 C 
ATOM     29  C   UNL     1      -0.051  10.534  22.132  0.00  0.00    +0.000 C 
ATOM     30  C   UNL     1      -0.102  10.526  20.622  0.00  0.00    +0.000 C 
ATOM     31  O   UNL     1       0.917   9.620  20.184  0.00  0.00    +0.000 OA
ENDBRANCH  26  27
ENDBRANCH  24  26
ENDBRANCH  21  22
ENDBRANCH   1  21
TORSDOF 9
ENDMDL
