MODEL 1
REMARK VINA RESULT:      -6.7      0.000      0.000
REMARK  Name = 
REMARK  8 active torsions:
REMARK  status: ('A' for Active; 'I' for Inactive)
REMARK    1  A    between atoms: C_1  and  C_2
REMARK    2  A    between atoms: C_3  and  C_4
REMARK    3  A    between atoms: C_4  and  N_5
REMARK    4  A    between atoms: N_5  and  C_6
REMARK    5  A    between atoms: N_5  and  C_7
REMARK    6  A    between atoms: N_14  and  C_15
REMARK    7  A    between atoms: C_15  and  C_16
REMARK    8  A    between atoms: C_16  and  O_18
REMARK                            x       y       z     vdW  Elec       q    Type
REMARK                         _______ _______ _______ _____ _____    ______ ____
ROOT
ATOM      1  C   UNL     1       4.435   2.609  19.820  0.00  0.00    +0.000 C 
ATOM      2  C   UNL     1       3.947   3.946  19.371  0.00  0.00    +0.000 A 
ATOM      3  C   UNL     1       4.179   4.610  18.170  0.00  0.00    +0.000 A 
ATOM      4  C   UNL     1       3.559   5.896  18.279  0.00  0.00    +0.000 A 
ATOM      5  C   UNL     1       3.511   7.020  17.425  0.00  0.00    +0.000 A 
ATOM      6  C   UNL     1       2.786   8.151  17.800  0.00  0.00    +0.000 A 
ATOM      7  C   UNL     1       2.100   8.168  19.011  0.00  0.00    +0.000 A 
ATOM      8  C   UNL     1       2.130   7.068  19.878  0.00  0.00    +0.000 A 
ATOM      9  C   UNL     1       2.875   5.940  19.494  0.00  0.00    +0.000 A 
ATOM     10  N   UNL     1       3.090   4.726  20.124  0.00  0.00    +0.000 N 
ENDROOT
BRANCH   3  11
ATOM     11  C   UNL     1       4.950   4.133  16.965  0.00  0.00    +0.000 C 
BRANCH  11  12
ATOM     12  N   UNL     1       6.191   4.903  16.750  0.00  0.00    +0.000 NA
ATOM     13  C   UNL     1       7.190   4.676  17.800  0.00  0.00    +0.000 C 
ATOM     14  C   UNL     1       6.773   4.518  15.458  0.00  0.00    +0.000 C 
ENDBRANCH  11  12
ENDBRANCH   3  11
BRANCH  10  15
ATOM     15  C   UNL     1       2.446   4.312  21.370  0.00  0.00    +0.000 C 
BRANCH  15  16
ATOM     16  C   UNL     1       1.392   3.237  21.252  0.00  0.00    +0.000 C 
ATOM     17  O   UNL     1       1.349   2.294  22.038  0.00  0.00    +0.000 OA
BRANCH  16  18
ATOM     18  O   UNL     1       0.515   3.330  20.233  0.00  0.00    +0.000 OA
ATOM     19  H   UNL     1      -0.372   2.957  20.395  0.00  0.00    +0.000 HD
ENDBRANCH  16  18
ENDBRANCH  15  16
ENDBRANCH  10  15
TORSDOF 5
ENDMDL
MODEL 2
REMARK VINA RESULT:      -6.3      1.182      1.360
REMARK  Name = 
REMARK  8 active torsions:
REMARK  status: ('A' for Active; 'I' for Inactive)
REMARK    1  A    between atoms: C_1  and  C_2
REMARK    2  A    between atoms: C_3  and  C_4
REMARK    3  A    between atoms: C_4  and  N_5
REMARK    4  A    between atoms: N_5  and  C_6
REMARK    5  A    between atoms: N_5  and  C_7
REMARK    6  A    between atoms: N_14  and  C_15
REMARK    7  A    between atoms: C_15  and  C_16
REMARK    8  A    between atoms: C_16  and  O_18
REMARK                            x       y       z     vdW  Elec       q    Type
REMARK                         _______ _______ _______ _____ _____    ______ ____
ROOT
ATOM      1  C   UNL     1       3.903   1.671  17.989  0.00  0.00    +0.000 C 
ATOM      2  C   UNL     1       3.621   3.135  18.063  0.00  0.00    +0.000 A 
ATOM      3  C   UNL     1       4.092   4.163  17.253  0.00  0.00    +0.000 A 
ATOM      4  C   UNL     1       3.594   5.387  17.803  0.00  0.00    +0.000 A 
ATOM      5  C   UNL     1       3.784   6.746  17.466  0.00  0.00    +0.000 A 
ATOM      6  C   UNL     1       3.127   7.743  18.187  0.00  0.00    +0.000 A 
ATOM      7  C   UNL     1       2.276   7.400  19.233  0.00  0.00    +0.000 A 
ATOM      8  C   UNL     1       2.068   6.061  19.591  0.00  0.00    +0.000 A 
ATOM      9  C   UNL     1       2.746   5.066  18.864  0.00  0.00    +0.000 A 
ATOM     10  N   UNL     1       2.744   3.686  18.977  0.00  0.00    +0.000 N 
ENDROOT
BRANCH   3  11
ATOM     11  C   UNL     1       4.981   4.073  16.038  0.00  0.00    +0.000 C 
BRANCH  11  12
ATOM     12  N   UNL     1       6.196   4.900  16.167  0.00  0.00    +0.000 NA
ATOM     13  C   UNL     1       7.062   4.472  17.271  0.00  0.00    +0.000 C 
ATOM     14  C   UNL     1       6.959   4.824  14.915  0.00  0.00    +0.000 C 
ENDBRANCH  11  12
ENDBRANCH   3  11
BRANCH  10  15
ATOM     15  C   UNL     1       1.887   2.930  19.889  0.00  0.00    +0.000 C 
BRANCH  15  16
ATOM     16  C   UNL     1       2.429   2.701  21.280  0.00  0.00    +0.000 C 
ATOM     17  O   UNL     1       3.580   2.315  21.463  0.00  0.00    +0.000 OA
BRANCH  16  18
ATOM     18  O   UNL     1       1.593   2.904  22.318  0.00  0.00    +0.000 OA
ATOM     19  H   UNL     1       0.848   2.280  22.398  0.00  0.00    +0.000 HD
ENDBRANCH  16  18
ENDBRANCH  15  16
ENDBRANCH  10  15
TORSDOF 5
ENDMDL
MODEL 3
REMARK VINA RESULT:      -6.2      2.146      4.372
REMARK  Name = 
REMARK  8 active torsions:
REMARK  status: ('A' for Active; 'I' for Inactive)
REMARK    1  A    between atoms: C_1  and  C_2
REMARK    2  A    between atoms: C_3  and  C_4
REMARK    3  A    between atoms: C_4  and  N_5
REMARK    4  A    between atoms: N_5  and  C_6
REMARK    5  A    between atoms: N_5  and  C_7
REMARK    6  A    between atoms: N_14  and  C_15
REMARK    7  A    between atoms: C_15  and  C_16
REMARK    8  A    between atoms: C_16  and  O_18
REMARK                            x       y       z     vdW  Elec       q    Type
REMARK                         _______ _______ _______ _____ _____    ______ ____
ROOT
ATOM      1  C   UNL     1       1.379   4.648  20.332  0.00  0.00    +0.000 C 
ATOM      2  C   UNL     1       2.379   4.960  19.269  0.00  0.00    +0.000 A 
ATOM      3  C   UNL     1       2.939   6.184  18.920  0.00  0.00    +0.000 A 
ATOM      4  C   UNL     1       3.772   5.951  17.779  0.00  0.00    +0.000 A 
ATOM      5  C   UNL     1       4.535   6.803  16.950  0.00  0.00    +0.000 A 
ATOM      6  C   UNL     1       5.286   6.269  15.903  0.00  0.00    +0.000 A 
ATOM      7  C   UNL     1       5.294   4.895  15.682  0.00  0.00    +0.000 A 
ATOM      8  C   UNL     1       4.548   4.025  16.488  0.00  0.00    +0.000 A 
ATOM      9  C   UNL     1       3.785   4.578  17.532  0.00  0.00    +0.000 A 
ATOM     10  N   UNL     1       2.963   3.989  18.478  0.00  0.00    +0.000 N 
ENDROOT
BRANCH   3  11
ATOM     11  C   UNL     1       2.726   7.533  19.560  0.00  0.00    +0.000 C 
BRANCH  11  12
ATOM     12  N   UNL     1       1.534   8.224  19.033  0.00  0.00    +0.000 NA
ATOM     13  C   UNL     1       0.872   9.064  20.038  0.00  0.00    +0.000 C 
ATOM     14  C   UNL     1       1.934   9.072  17.903  0.00  0.00    +0.000 C 
ENDBRANCH  11  12
ENDBRANCH   3  11
BRANCH  10  15
ATOM     15  C   UNL     1       2.796   2.546  18.648  0.00  0.00    +0.000 C 
BRANCH  15  16
ATOM     16  C   UNL     1       3.999   1.791  19.163  0.00  0.00    +0.000 C 
ATOM     17  O   UNL     1       4.685   2.230  20.083  0.00  0.00    +0.000 OA
BRANCH  16  18
ATOM     18  O   UNL     1       4.315   0.630  18.557  0.00  0.00    +0.000 OA
ATOM     19  H   UNL     1       4.762   0.704  17.693  0.00  0.00    +0.000 HD
ENDBRANCH  16  18
ENDBRANCH  15  16
ENDBRANCH  10  15
TORSDOF 5
ENDMDL
MODEL 4
REMARK VINA RESULT:      -6.2      3.043      5.533
REMARK  Name = 
REMARK  8 active torsions:
REMARK  status: ('A' for Active; 'I' for Inactive)
REMARK    1  A    between atoms: C_1  and  C_2
REMARK    2  A    between atoms: C_3  and  C_4
REMARK    3  A    between atoms: C_4  and  N_5
REMARK    4  A    between atoms: N_5  and  C_6
REMARK    5  A    between atoms: N_5  and  C_7
REMARK    6  A    between atoms: N_14  and  C_15
REMARK    7  A    between atoms: C_15  and  C_16
REMARK    8  A    between atoms: C_16  and  O_18
REMARK                            x       y       z     vdW  Elec       q    Type
REMARK                         _______ _______ _______ _____ _____    ______ ____
ROOT
ATOM      1  C   UNL     1       4.823   7.112  16.909  0.00  0.00    +0.000 C 
ATOM      2  C   UNL     1       4.019   5.925  17.323  0.00  0.00    +0.000 A 
ATOM      3  C   UNL     1       2.730   5.875  17.845  0.00  0.00    +0.000 A 
ATOM      4  C   UNL     1       2.461   4.503  18.155  0.00  0.00    +0.000 A 
ATOM      5  C   UNL     1       1.366   3.847  18.761  0.00  0.00    +0.000 A 
ATOM      6  C   UNL     1       1.378   2.460  18.908  0.00  0.00    +0.000 A 
ATOM      7  C   UNL     1       2.463   1.721  18.450  0.00  0.00    +0.000 A 
ATOM      8  C   UNL     1       3.564   2.344  17.846  0.00  0.00    +0.000 A 
ATOM      9  C   UNL     1       3.545   3.743  17.715  0.00  0.00    +0.000 A 
ATOM     10  N   UNL     1       4.464   4.625  17.172  0.00  0.00    +0.000 N 
ENDROOT
BRANCH   3  11
ATOM     11  C   UNL     1       1.768   7.010  18.088  0.00  0.00    +0.000 C 
BRANCH  11  12
ATOM     12  N   UNL     1       2.188   7.874  19.207  0.00  0.00    +0.000 NA
ATOM     13  C   UNL     1       1.550   9.195  19.177  0.00  0.00    +0.000 C 
ATOM     14  C   UNL     1       1.844   7.215  20.474  0.00  0.00    +0.000 C 
ENDBRANCH  11  12
ENDBRANCH   3  11
BRANCH  10  15
ATOM     15  C   UNL     1       5.690   4.226  16.484  0.00  0.00    +0.000 C 
BRANCH  15  16
ATOM     16  C   UNL     1       6.967   4.321  17.286  0.00  0.00    +0.000 C 
ATOM     17  O   UNL     1       8.055   4.482  16.740  0.00  0.00    +0.000 OA
BRANCH  16  18
ATOM     18  O   UNL     1       6.876   4.192  18.624  0.00  0.00    +0.000 OA
ATOM     19  H   UNL     1       6.276   3.495  18.948  0.00  0.00    +0.000 HD
ENDBRANCH  16  18
ENDBRANCH  15  16
ENDBRANCH  10  15
TORSDOF 5
ENDMDL
MODEL 5
REMARK VINA RESULT:      -6.2      2.933      5.365
REMARK  Name = 
REMARK  8 active torsions:
REMARK  status: ('A' for Active; 'I' for Inactive)
REMARK    1  A    between atoms: C_1  and  C_2
REMARK    2  A    between atoms: C_3  and  C_4
REMARK    3  A    between atoms: C_4  and  N_5
REMARK    4  A    between atoms: N_5  and  C_6
REMARK    5  A    between atoms: N_5  and  C_7
REMARK    6  A    between atoms: N_14  and  C_15
REMARK    7  A    between atoms: C_15  and  C_16
REMARK    8  A    between atoms: C_16  and  O_18
REMARK                            x       y       z     vdW  Elec       q    Type
REMARK                         _______ _______ _______ _____ _____    ______ ____
ROOT
ATOM      1  C   UNL     1       4.701   6.837  16.569  0.00  0.00    +0.000 C 
ATOM      2  C   UNL     1       4.045   5.980  17.601  0.00  0.00    +0.000 A 
ATOM      3  C   UNL     1       2.836   6.170  18.262  0.00  0.00    +0.000 A 
ATOM      4  C   UNL     1       2.712   5.109  19.215  0.00  0.00    +0.000 A 
ATOM      5  C   UNL     1       1.751   4.807  20.205  0.00  0.00    +0.000 A 
ATOM      6  C   UNL     1       1.888   3.658  20.984  0.00  0.00    +0.000 A 
ATOM      7  C   UNL     1       2.965   2.801  20.778  0.00  0.00    +0.000 A 
ATOM      8  C   UNL     1       3.934   3.074  19.803  0.00  0.00    +0.000 A 
ATOM      9  C   UNL     1       3.791   4.242  19.034  0.00  0.00    +0.000 A 
ATOM     10  N   UNL     1       4.568   4.771  18.017  0.00  0.00    +0.000 N 
ENDROOT
BRANCH   3  11
ATOM     11  C   UNL     1       1.825   7.273  18.077  0.00  0.00    +0.000 C 
BRANCH  11  12
ATOM     12  N   UNL     1       2.183   8.496  18.821  0.00  0.00    +0.000 NA
ATOM     13  C   UNL     1       1.953   9.721  18.048  0.00  0.00    +0.000 C 
ATOM     14  C   UNL     1       1.381   8.558  20.050  0.00  0.00    +0.000 C 
ENDBRANCH  11  12
ENDBRANCH   3  11
BRANCH  10  15
ATOM     15  C   UNL     1       5.731   4.106  17.431  0.00  0.00    +0.000 C 
BRANCH  15  16
ATOM     16  C   UNL     1       7.082   4.562  17.928  0.00  0.00    +0.000 C 
ATOM     17  O   UNL     1       8.088   4.464  17.230  0.00  0.00    +0.000 OA
BRANCH  16  18
ATOM     18  O   UNL     1       7.154   5.054  19.181  0.00  0.00    +0.000 OA
ATOM     19  H   UNL     1       6.328   5.424  19.545  0.00  0.00    +0.000 HD
ENDBRANCH  16  18
ENDBRANCH  15  16
ENDBRANCH  10  15
TORSDOF 5
ENDMDL
MODEL 6
REMARK VINA RESULT:      -6.1      1.310      1.718
REMARK  Name = 
REMARK  8 active torsions:
REMARK  status: ('A' for Active; 'I' for Inactive)
REMARK    1  A    between atoms: C_1  and  C_2
REMARK    2  A    between atoms: C_3  and  C_4
REMARK    3  A    between atoms: C_4  and  N_5
REMARK    4  A    between atoms: N_5  and  C_6
REMARK    5  A    between atoms: N_5  and  C_7
REMARK    6  A    between atoms: N_14  and  C_15
REMARK    7  A    between atoms: C_15  and  C_16
REMARK    8  A    between atoms: C_16  and  O_18
REMARK                            x       y       z     vdW  Elec       q    Type
REMARK                         _______ _______ _______ _____ _____    ______ ____
ROOT
ATOM      1  C   UNL     1       3.520   1.822  17.970  0.00  0.00    +0.000 C 
ATOM      2  C   UNL     1       3.148   3.223  18.325  0.00  0.00    +0.000 A 
ATOM      3  C   UNL     1       3.489   4.411  17.687  0.00  0.00    +0.000 A 
ATOM      4  C   UNL     1       2.953   5.477  18.479  0.00  0.00    +0.000 A 
ATOM      5  C   UNL     1       3.027   6.884  18.382  0.00  0.00    +0.000 A 
ATOM      6  C   UNL     1       2.361   7.684  19.310  0.00  0.00    +0.000 A 
ATOM      7  C   UNL     1       1.614   7.097  20.326  0.00  0.00    +0.000 A 
ATOM      8  C   UNL     1       1.523   5.704  20.448  0.00  0.00    +0.000 A 
ATOM      9  C   UNL     1       2.209   4.909  19.514  0.00  0.00    +0.000 A 
ATOM     10  N   UNL     1       2.307   3.535  19.376  0.00  0.00    +0.000 N 
ENDROOT
BRANCH   3  11
ATOM     11  C   UNL     1       4.289   4.606  16.424  0.00  0.00    +0.000 C 
BRANCH  11  12
ATOM     12  N   UNL     1       5.723   4.313  16.615  0.00  0.00    +0.000 NA
ATOM     13  C   UNL     1       6.403   3.956  15.366  0.00  0.00    +0.000 C 
ATOM     14  C   UNL     1       6.380   5.496  17.185  0.00  0.00    +0.000 C 
ENDBRANCH  11  12
ENDBRANCH   3  11
BRANCH  10  15
ATOM     15  C   UNL     1       1.571   2.566  20.186  0.00  0.00    +0.000 C 
BRANCH  15  16
ATOM     16  C   UNL     1       1.984   2.455  21.635  0.00  0.00    +0.000 C 
ATOM     17  O   UNL     1       1.167   2.575  22.544  0.00  0.00    +0.000 OA
BRANCH  16  18
ATOM     18  O   UNL     1       3.289   2.251  21.899  0.00  0.00    +0.000 OA
ATOM     19  H   UNL     1       3.858   2.058  21.130  0.00  0.00    +0.000 HD
ENDBRANCH  16  18
ENDBRANCH  15  16
ENDBRANCH  10  15
TORSDOF 5
ENDMDL
MODEL 7
REMARK VINA RESULT:      -6.1      3.280      5.667
REMARK  Name = 
REMARK  8 active torsions:
REMARK  status: ('A' for Active; 'I' for Inactive)
REMARK    1  A    between atoms: C_1  and  C_2
REMARK    2  A    between atoms: C_3  and  C_4
REMARK    3  A    between atoms: C_4  and  N_5
REMARK    4  A    between atoms: N_5  and  C_6
REMARK    5  A    between atoms: N_5  and  C_7
REMARK    6  A    between atoms: N_14  and  C_15
REMARK    7  A    between atoms: C_15  and  C_16
REMARK    8  A    between atoms: C_16  and  O_18
REMARK                            x       y       z     vdW  Elec       q    Type
REMARK                         _______ _______ _______ _____ _____    ______ ____
ROOT
ATOM      1  C   UNL     1       5.376   7.306  17.353  0.00  0.00    +0.000 C 
ATOM      2  C   UNL     1       4.486   6.122  17.533  0.00  0.00    +0.000 A 
ATOM      3  C   UNL     1       3.106   6.077  17.708  0.00  0.00    +0.000 A 
ATOM      4  C   UNL     1       2.759   4.705  17.923  0.00  0.00    +0.000 A 
ATOM      5  C   UNL     1       1.543   4.051  18.221  0.00  0.00    +0.000 A 
ATOM      6  C   UNL     1       1.509   2.663  18.350  0.00  0.00    +0.000 A 
ATOM      7  C   UNL     1       2.672   1.919  18.175  0.00  0.00    +0.000 A 
ATOM      8  C   UNL     1       3.893   2.539  17.879  0.00  0.00    +0.000 A 
ATOM      9  C   UNL     1       3.916   3.940  17.764  0.00  0.00    +0.000 A 
ATOM     10  N   UNL     1       4.948   4.821  17.485  0.00  0.00    +0.000 N 
ENDROOT
BRANCH   3  11
ATOM     11  C   UNL     1       2.120   7.217  17.712  0.00  0.00    +0.000 C 
BRANCH  11  12
ATOM     12  N   UNL     1       2.328   8.138  18.847  0.00  0.00    +0.000 NA
ATOM     13  C   UNL     1       1.513   9.354  18.749  0.00  0.00    +0.000 C 
ATOM     14  C   UNL     1       1.985   7.442  20.094  0.00  0.00    +0.000 C 
ENDBRANCH  11  12
ENDBRANCH   3  11
BRANCH  10  15
ATOM     15  C   UNL     1       6.307   4.418  17.127  0.00  0.00    +0.000 C 
BRANCH  15  16
ATOM     16  C   UNL     1       6.638   4.422  15.654  0.00  0.00    +0.000 C 
ATOM     17  O   UNL     1       6.139   3.607  14.883  0.00  0.00    +0.000 OA
BRANCH  16  18
ATOM     18  O   UNL     1       7.528   5.335  15.216  0.00  0.00    +0.000 OA
ATOM     19  H   UNL     1       7.855   5.213  14.304  0.00  0.00    +0.000 HD
ENDBRANCH  16  18
ENDBRANCH  15  16
ENDBRANCH  10  15
TORSDOF 5
ENDMDL
MODEL 8
REMARK VINA RESULT:      -6.1      3.468      5.725
REMARK  Name = 
REMARK  8 active torsions:
REMARK  status: ('A' for Active; 'I' for Inactive)
REMARK    1  A    between atoms: C_1  and  C_2
REMARK    2  A    between atoms: C_3  and  C_4
REMARK    3  A    between atoms: C_4  and  N_5
REMARK    4  A    between atoms: N_5  and  C_6
REMARK    5  A    between atoms: N_5  and  C_7
REMARK    6  A    between atoms: N_14  and  C_15
REMARK    7  A    between atoms: C_15  and  C_16
REMARK    8  A    between atoms: C_16  and  O_18
REMARK                            x       y       z     vdW  Elec       q    Type
REMARK                         _______ _______ _______ _____ _____    ______ ____
ROOT
ATOM      1  C   UNL     1       6.559   7.332  17.267  0.00  0.00    +0.000 C 
ATOM      2  C   UNL     1       5.396   6.399  17.343  0.00  0.00    +0.000 A 
ATOM      3  C   UNL     1       4.060   6.679  17.609  0.00  0.00    +0.000 A 
ATOM      4  C   UNL     1       3.373   5.424  17.653  0.00  0.00    +0.000 A 
ATOM      5  C   UNL     1       2.039   5.062  17.943  0.00  0.00    +0.000 A 
ATOM      6  C   UNL     1       1.648   3.725  17.877  0.00  0.00    +0.000 A 
ATOM      7  C   UNL     1       2.568   2.747  17.515  0.00  0.00    +0.000 A 
ATOM      8  C   UNL     1       3.899   3.075  17.223  0.00  0.00    +0.000 A 
ATOM      9  C   UNL     1       4.284   4.425  17.305  0.00  0.00    +0.000 A 
ATOM     10  N   UNL     1       5.500   5.047  17.079  0.00  0.00    +0.000 N 
ENDROOT
BRANCH   3  11
ATOM     11  C   UNL     1       3.407   8.018  17.844  0.00  0.00    +0.000 C 
BRANCH  11  12
ATOM     12  N   UNL     1       2.042   7.890  18.391  0.00  0.00    +0.000 NA
ATOM     13  C   UNL     1       2.009   7.943  19.856  0.00  0.00    +0.000 C 
ATOM     14  C   UNL     1       1.213   8.981  17.863  0.00  0.00    +0.000 C 
ENDBRANCH  11  12
ENDBRANCH   3  11
BRANCH  10  15
ATOM     15  C   UNL     1       6.694   4.373  16.571  0.00  0.00    +0.000 C 
BRANCH  15  16
ATOM     16  C   UNL     1       6.926   4.458  15.081  0.00  0.00    +0.000 C 
ATOM     17  O   UNL     1       7.602   5.357  14.588  0.00  0.00    +0.000 OA
BRANCH  16  18
ATOM     18  O   UNL     1       6.338   3.528  14.302  0.00  0.00    +0.000 OA
ATOM     19  H   UNL     1       6.107   2.687  14.739  0.00  0.00    +0.000 HD
ENDBRANCH  16  18
ENDBRANCH  15  16
ENDBRANCH  10  15
TORSDOF 5
ENDMDL
MODEL 9
REMARK VINA RESULT:      -6.0      2.757      4.865
REMARK  Name = 
REMARK  8 active torsions:
REMARK  status: ('A' for Active; 'I' for Inactive)
REMARK    1  A    between atoms: C_1  and  C_2
REMARK    2  A    between atoms: C_3  and  C_4
REMARK    3  A    between atoms: C_4  and  N_5
REMARK    4  A    between atoms: N_5  and  C_6
REMARK    5  A    between atoms: N_5  and  C_7
REMARK    6  A    between atoms: N_14  and  C_15
REMARK    7  A    between atoms: C_15  and  C_16
REMARK    8  A    between atoms: C_16  and  O_18
REMARK                            x       y       z     vdW  Elec       q    Type
REMARK                         _______ _______ _______ _____ _____    ______ ____
ROOT
ATOM      1  C   UNL     1       4.502   2.583  19.415  0.00  0.00    +0.000 C 
ATOM      2  C   UNL     1       4.044   3.983  19.176  0.00  0.00    +0.000 A 
ATOM      3  C   UNL     1       3.207   4.779  19.950  0.00  0.00    +0.000 A 
ATOM      4  C   UNL     1       3.015   6.003  19.232  0.00  0.00    +0.000 A 
ATOM      5  C   UNL     1       2.228   7.151  19.472  0.00  0.00    +0.000 A 
ATOM      6  C   UNL     1       2.270   8.225  18.583  0.00  0.00    +0.000 A 
ATOM      7  C   UNL     1       3.094   8.171  17.464  0.00  0.00    +0.000 A 
ATOM      8  C   UNL     1       3.886   7.045  17.199  0.00  0.00    +0.000 A 
ATOM      9  C   UNL     1       3.825   5.965  18.096  0.00  0.00    +0.000 A 
ATOM     10  N   UNL     1       4.475   4.742  18.104  0.00  0.00    +0.000 N 
ENDROOT
BRANCH   3  11
ATOM     11  C   UNL     1       2.570   4.461  21.279  0.00  0.00    +0.000 C 
BRANCH  11  12
ATOM     12  N   UNL     1       1.310   3.706  21.133  0.00  0.00    +0.000 NA
ATOM     13  C   UNL     1       0.917   3.519  19.732  0.00  0.00    +0.000 C 
ATOM     14  C   UNL     1       1.471   2.386  21.756  0.00  0.00    +0.000 C 
ENDBRANCH  11  12
ENDBRANCH   3  11
BRANCH  10  15
ATOM     15  C   UNL     1       5.514   4.349  17.153  0.00  0.00    +0.000 C 
BRANCH  15  16
ATOM     16  C   UNL     1       6.907   4.861  17.435  0.00  0.00    +0.000 C 
ATOM     17  O   UNL     1       7.414   5.747  16.753  0.00  0.00    +0.000 OA
BRANCH  16  18
ATOM     18  O   UNL     1       7.590   4.288  18.446  0.00  0.00    +0.000 OA
ATOM     19  H   UNL     1       7.946   3.397  18.273  0.00  0.00    +0.000 HD
ENDBRANCH  16  18
ENDBRANCH  15  16
ENDBRANCH  10  15
TORSDOF 5
ENDMDL
