MODEL 1
REMARK VINA RESULT:      -7.8      0.000      0.000
REMARK  Name = 
REMARK  5 active torsions:
REMARK  status: ('A' for Active; 'I' for Inactive)
REMARK    1  A    between atoms: C_2  and  C_4
REMARK    2  A    between atoms: N_7  and  C_8
REMARK    3  A    between atoms: C_11  and  S_12
REMARK    4  A    between atoms: S_12  and  N_13
REMARK    5  A    between atoms: C_18  and  C_19
REMARK                            x       y       z     vdW  Elec       q    Type
REMARK                         _______ _______ _______ _____ _____    ______ ____
ROOT
ATOM      1  C   UNL     1       3.542   2.874  19.711  0.00  0.00    +0.000 A 
ATOM      2  N   UNL     1       2.320   2.870  20.342  0.00  0.00    +0.000 NA
ATOM      3  N   UNL     1       1.897   4.120  20.435  0.00  0.00    +0.000 NA
ATOM      4  N   UNL     1       2.751   4.914  19.745  0.00  0.00    +0.000 N 
ATOM      5  C   UNL     1       3.858   4.172  19.329  0.00  0.00    +0.000 A 
ENDROOT
BRANCH   4   6
ATOM      6  C   UNL     1       2.462   6.293  19.561  0.00  0.00    +0.000 A 
ATOM      7  C   UNL     1       2.628   6.870  18.293  0.00  0.00    +0.000 A 
ATOM      8  C   UNL     1       2.165   8.173  18.060  0.00  0.00    +0.000 A 
ATOM      9  C   UNL     1       1.562   8.889  19.099  0.00  0.00    +0.000 A 
ATOM     10  C   UNL     1       1.488   8.355  20.387  0.00  0.00    +0.000 A 
ATOM     11  C   UNL     1       1.952   7.061  20.616  0.00  0.00    +0.000 A 
BRANCH   9  12
ATOM     12  S   UNL     1       0.893  10.499  18.794  0.00  0.00    +0.000 S 
ATOM     13  O   UNL     1      -0.329  10.369  18.034  0.00  0.00    +0.000 OA
ATOM     14  O   UNL     1       0.989  11.292  19.993  0.00  0.00    +0.000 OA
BRANCH  12  15
ATOM     15  N   UNL     1       2.028  11.132  17.725  0.00  0.00    +0.000 NA
ATOM     16  H   UNL     1       2.455  11.970  18.126  0.00  0.00    +0.000 HD
ATOM     17  H   UNL     1       2.702  10.411  17.470  0.00  0.00    +0.000 HD
ENDBRANCH  12  15
ENDBRANCH   9  12
ENDBRANCH   4   6
BRANCH   1  19
ATOM     18  N   UNL     1       4.017   0.891  18.487  0.00  0.00    +0.000 N 
ATOM     19  C   UNL     1       4.331   1.660  19.573  0.00  0.00    +0.000 C 
ATOM     20  O   UNL     1       5.221   1.312  20.342  0.00  0.00    +0.000 OA
ATOM     21  H   UNL     1       4.562   0.058  18.324  0.00  0.00    +0.000 HD
ATOM     22  H   UNL     1       3.296   1.166  17.834  0.00  0.00    +0.000 HD
ENDBRANCH   1  19
BRANCH   5  23
ATOM     23  C   UNL     1       5.045   4.708  18.714  0.00  0.00    +0.000 A 
ATOM     24  C   UNL     1       6.073   5.400  19.333  0.00  0.00    +0.000 A 
ATOM     25  C   UNL     1       7.053   5.870  18.412  0.00  0.00    +0.000 A 
ATOM     26  C   UNL     1       6.789   5.455  17.129  0.00  0.00    +0.000 A 
ATOM     27  S   UNL     1       5.315   4.599  17.024  0.00  0.00    +0.000 S 
ENDBRANCH   5  23
TORSDOF 5
ENDMDL
MODEL 2
REMARK VINA RESULT:      -7.8      2.920      4.023
REMARK  Name = 
REMARK  5 active torsions:
REMARK  status: ('A' for Active; 'I' for Inactive)
REMARK    1  A    between atoms: C_2  and  C_4
REMARK    2  A    between atoms: N_7  and  C_8
REMARK    3  A    between atoms: C_11  and  S_12
REMARK    4  A    between atoms: S_12  and  N_13
REMARK    5  A    between atoms: C_18  and  C_19
REMARK                            x       y       z     vdW  Elec       q    Type
REMARK                         _______ _______ _______ _____ _____    ______ ____
ROOT
ATOM      1  C   UNL     1       5.623   5.357  16.615  0.00  0.00    +0.000 A 
ATOM      2  N   UNL     1       5.889   6.686  16.381  0.00  0.00    +0.000 NA
ATOM      3  N   UNL     1       4.913   7.404  16.912  0.00  0.00    +0.000 NA
ATOM      4  N   UNL     1       4.102   6.573  17.612  0.00  0.00    +0.000 N 
ATOM      5  C   UNL     1       4.474   5.246  17.388  0.00  0.00    +0.000 A 
ENDROOT
BRANCH   4   6
ATOM      6  C   UNL     1       3.044   7.098  18.403  0.00  0.00    +0.000 A 
ATOM      7  C   UNL     1       2.715   6.476  19.616  0.00  0.00    +0.000 A 
ATOM      8  C   UNL     1       1.808   7.095  20.488  0.00  0.00    +0.000 A 
ATOM      9  C   UNL     1       1.227   8.316  20.128  0.00  0.00    +0.000 A 
ATOM     10  C   UNL     1       1.475   8.885  18.878  0.00  0.00    +0.000 A 
ATOM     11  C   UNL     1       2.374   8.265  18.013  0.00  0.00    +0.000 A 
BRANCH   9  12
ATOM     12  S   UNL     1       0.151   9.151  21.258  0.00  0.00    +0.000 S 
ATOM     13  O   UNL     1      -0.295  10.389  20.661  0.00  0.00    +0.000 OA
ATOM     14  O   UNL     1      -0.753   8.198  21.851  0.00  0.00    +0.000 OA
BRANCH  12  15
ATOM     15  N   UNL     1       1.225   9.594  22.474  0.00  0.00    +0.000 NA
ATOM     16  H   UNL     1       0.713   9.992  23.264  0.00  0.00    +0.000 HD
ATOM     17  H   UNL     1       1.810   8.797  22.727  0.00  0.00    +0.000 HD
ENDBRANCH  12  15
ENDBRANCH   9  12
ENDBRANCH   4   6
BRANCH   1  19
ATOM     18  N   UNL     1       7.713   4.223  16.554  0.00  0.00    +0.000 N 
ATOM     19  C   UNL     1       6.447   4.305  16.041  0.00  0.00    +0.000 C 
ATOM     20  O   UNL     1       6.081   3.526  15.168  0.00  0.00    +0.000 OA
ATOM     21  H   UNL     1       8.312   3.484  16.217  0.00  0.00    +0.000 HD
ATOM     22  H   UNL     1       8.031   4.846  17.283  0.00  0.00    +0.000 HD
ENDBRANCH   1  19
BRANCH   5  23
ATOM     23  C   UNL     1       3.747   4.084  17.830  0.00  0.00    +0.000 A 
ATOM     24  C   UNL     1       2.557   3.593  17.321  0.00  0.00    +0.000 A 
ATOM     25  C   UNL     1       2.064   2.476  18.054  0.00  0.00    +0.000 A 
ATOM     26  C   UNL     1       2.931   2.095  19.050  0.00  0.00    +0.000 A 
ATOM     27  S   UNL     1       4.273   3.145  19.166  0.00  0.00    +0.000 S 
ENDBRANCH   5  23
TORSDOF 5
ENDMDL
MODEL 3
REMARK VINA RESULT:      -7.7      2.851      3.950
REMARK  Name = 
REMARK  5 active torsions:
REMARK  status: ('A' for Active; 'I' for Inactive)
REMARK    1  A    between atoms: C_2  and  C_4
REMARK    2  A    between atoms: N_7  and  C_8
REMARK    3  A    between atoms: C_11  and  S_12
REMARK    4  A    between atoms: S_12  and  N_13
REMARK    5  A    between atoms: C_18  and  C_19
REMARK                            x       y       z     vdW  Elec       q    Type
REMARK                         _______ _______ _______ _____ _____    ______ ____
ROOT
ATOM      1  C   UNL     1       5.580   5.347  16.536  0.00  0.00    +0.000 A 
ATOM      2  N   UNL     1       5.868   6.660  16.245  0.00  0.00    +0.000 NA
ATOM      3  N   UNL     1       4.915   7.419  16.760  0.00  0.00    +0.000 NA
ATOM      4  N   UNL     1       4.099   6.633  17.505  0.00  0.00    +0.000 N 
ATOM      5  C   UNL     1       4.441   5.291  17.330  0.00  0.00    +0.000 A 
ENDROOT
BRANCH   4   6
ATOM      6  C   UNL     1       3.064   7.211  18.289  0.00  0.00    +0.000 A 
ATOM      7  C   UNL     1       2.758   6.660  19.542  0.00  0.00    +0.000 A 
ATOM      8  C   UNL     1       1.876   7.335  20.398  0.00  0.00    +0.000 A 
ATOM      9  C   UNL     1       1.297   8.540  19.984  0.00  0.00    +0.000 A 
ATOM     10  C   UNL     1       1.519   9.035  18.699  0.00  0.00    +0.000 A 
ATOM     11  C   UNL     1       2.394   8.360  17.850  0.00  0.00    +0.000 A 
BRANCH   9  12
ATOM     12  S   UNL     1       0.253   9.446  21.090  0.00  0.00    +0.000 S 
ATOM     13  O   UNL     1      -0.644   8.530  21.754  0.00  0.00    +0.000 OA
ATOM     14  O   UNL     1       1.041  10.423  21.799  0.00  0.00    +0.000 OA
BRANCH  12  15
ATOM     15  N   UNL     1      -0.701  10.314  20.009  0.00  0.00    +0.000 NA
ATOM     16  H   UNL     1      -0.930  11.229  20.402  0.00  0.00    +0.000 HD
ATOM     17  H   UNL     1      -0.238  10.363  19.102  0.00  0.00    +0.000 HD
ENDBRANCH  12  15
ENDBRANCH   9  12
ENDBRANCH   4   6
BRANCH   1  19
ATOM     18  N   UNL     1       7.642   4.162  16.498  0.00  0.00    +0.000 N 
ATOM     19  C   UNL     1       6.374   4.256  15.994  0.00  0.00    +0.000 C 
ATOM     20  O   UNL     1       5.981   3.455  15.152  0.00  0.00    +0.000 OA
ATOM     21  H   UNL     1       8.220   3.398  16.183  0.00  0.00    +0.000 HD
ATOM     22  H   UNL     1       7.981   4.804  17.202  0.00  0.00    +0.000 HD
ENDBRANCH   1  19
BRANCH   5  23
ATOM     23  C   UNL     1       3.697   4.163  17.828  0.00  0.00    +0.000 A 
ATOM     24  C   UNL     1       2.471   3.701  17.383  0.00  0.00    +0.000 A 
ATOM     25  C   UNL     1       1.975   2.616  18.160  0.00  0.00    +0.000 A 
ATOM     26  C   UNL     1       2.872   2.227  19.126  0.00  0.00    +0.000 A 
ATOM     27  S   UNL     1       4.251   3.235  19.161  0.00  0.00    +0.000 S 
ENDBRANCH   5  23
TORSDOF 5
ENDMDL
MODEL 4
REMARK VINA RESULT:      -7.6      1.023      1.195
REMARK  Name = 
REMARK  5 active torsions:
REMARK  status: ('A' for Active; 'I' for Inactive)
REMARK    1  A    between atoms: C_2  and  C_4
REMARK    2  A    between atoms: N_7  and  C_8
REMARK    3  A    between atoms: C_11  and  S_12
REMARK    4  A    between atoms: S_12  and  N_13
REMARK    5  A    between atoms: C_18  and  C_19
REMARK                            x       y       z     vdW  Elec       q    Type
REMARK                         _______ _______ _______ _____ _____    ______ ____
ROOT
ATOM      1  C   UNL     1       3.292   3.184  19.613  0.00  0.00    +0.000 A 
ATOM      2  N   UNL     1       2.228   3.219  20.483  0.00  0.00    +0.000 NA
ATOM      3  N   UNL     1       1.866   4.481  20.646  0.00  0.00    +0.000 NA
ATOM      4  N   UNL     1       2.578   5.245  19.783  0.00  0.00    +0.000 N 
ATOM      5  C   UNL     1       3.556   4.470  19.156  0.00  0.00    +0.000 A 
ENDROOT
BRANCH   4   6
ATOM      6  C   UNL     1       2.293   6.631  19.645  0.00  0.00    +0.000 A 
ATOM      7  C   UNL     1       2.488   7.256  18.405  0.00  0.00    +0.000 A 
ATOM      8  C   UNL     1       2.030   8.567  18.210  0.00  0.00    +0.000 A 
ATOM      9  C   UNL     1       1.403   9.243  19.262  0.00  0.00    +0.000 A 
ATOM     10  C   UNL     1       1.300   8.660  20.526  0.00  0.00    +0.000 A 
ATOM     11  C   UNL     1       1.758   7.358  20.717  0.00  0.00    +0.000 A 
BRANCH   9  12
ATOM     12  S   UNL     1       0.741  10.864  19.003  0.00  0.00    +0.000 S 
ATOM     13  O   UNL     1      -0.486  10.760  18.247  0.00  0.00    +0.000 OA
ATOM     14  O   UNL     1       0.847  11.624  20.222  0.00  0.00    +0.000 OA
BRANCH  12  15
ATOM     15  N   UNL     1       1.873  11.519  17.945  0.00  0.00    +0.000 NA
ATOM     16  H   UNL     1       2.454  12.202  18.435  0.00  0.00    +0.000 HD
ATOM     17  H   UNL     1       2.406  10.771  17.503  0.00  0.00    +0.000 HD
ENDBRANCH  12  15
ENDBRANCH   9  12
ENDBRANCH   4   6
BRANCH   1  19
ATOM     18  N   UNL     1       5.099   1.723  20.118  0.00  0.00    +0.000 N 
ATOM     19  C   UNL     1       4.004   1.948  19.331  0.00  0.00    +0.000 C 
ATOM     20  O   UNL     1       3.684   1.137  18.468  0.00  0.00    +0.000 OA
ATOM     21  H   UNL     1       5.606   0.860  19.989  0.00  0.00    +0.000 HD
ATOM     22  H   UNL     1       5.373   2.372  20.843  0.00  0.00    +0.000 HD
ENDBRANCH   1  19
BRANCH   5  23
ATOM     23  C   UNL     1       4.603   4.968  18.302  0.00  0.00    +0.000 A 
ATOM     24  C   UNL     1       4.580   5.082  16.923  0.00  0.00    +0.000 A 
ATOM     25  C   UNL     1       5.821   5.529  16.386  0.00  0.00    +0.000 A 
ATOM     26  C   UNL     1       6.730   5.820  17.375  0.00  0.00    +0.000 A 
ATOM     27  S   UNL     1       6.124   5.453  18.930  0.00  0.00    +0.000 S 
ENDBRANCH   5  23
TORSDOF 5
ENDMDL
MODEL 5
REMARK VINA RESULT:      -7.6      2.926      3.890
REMARK  Name = 
REMARK  5 active torsions:
REMARK  status: ('A' for Active; 'I' for Inactive)
REMARK    1  A    between atoms: C_2  and  C_4
REMARK    2  A    between atoms: N_7  and  C_8
REMARK    3  A    between atoms: C_11  and  S_12
REMARK    4  A    between atoms: S_12  and  N_13
REMARK    5  A    between atoms: C_18  and  C_19
REMARK                            x       y       z     vdW  Elec       q    Type
REMARK                         _______ _______ _______ _____ _____    ______ ____
ROOT
ATOM      1  C   UNL     1       5.616   5.401  16.423  0.00  0.00    +0.000 A 
ATOM      2  N   UNL     1       5.625   6.694  15.954  0.00  0.00    +0.000 NA
ATOM      3  N   UNL     1       4.630   7.351  16.527  0.00  0.00    +0.000 NA
ATOM      4  N   UNL     1       4.073   6.548  17.467  0.00  0.00    +0.000 N 
ATOM      5  C   UNL     1       4.621   5.267  17.384  0.00  0.00    +0.000 A 
ENDROOT
BRANCH   4   6
ATOM      6  C   UNL     1       3.066   7.050  18.336  0.00  0.00    +0.000 A 
ATOM      7  C   UNL     1       2.785   6.372  19.531  0.00  0.00    +0.000 A 
ATOM      8  C   UNL     1       1.936   6.961  20.478  0.00  0.00    +0.000 A 
ATOM      9  C   UNL     1       1.362   8.208  20.210  0.00  0.00    +0.000 A 
ATOM     10  C   UNL     1       1.558   8.836  18.979  0.00  0.00    +0.000 A 
ATOM     11  C   UNL     1       2.401   8.246  18.040  0.00  0.00    +0.000 A 
BRANCH   9  12
ATOM     12  S   UNL     1       0.359   9.003  21.434  0.00  0.00    +0.000 S 
ATOM     13  O   UNL     1      -0.714   8.115  21.817  0.00  0.00    +0.000 OA
ATOM     14  O   UNL     1       1.208   9.665  22.392  0.00  0.00    +0.000 OA
BRANCH  12  15
ATOM     15  N   UNL     1      -0.362  10.225  20.530  0.00  0.00    +0.000 NA
ATOM     16  H   UNL     1       0.315  10.621  19.875  0.00  0.00    +0.000 HD
ATOM     17  H   UNL     1      -1.206   9.869  20.079  0.00  0.00    +0.000 HD
ENDBRANCH  12  15
ENDBRANCH   9  12
ENDBRANCH   4   6
BRANCH   1  19
ATOM     18  N   UNL     1       7.743   4.338  16.475  0.00  0.00    +0.000 N 
ATOM     19  C   UNL     1       6.511   4.390  15.883  0.00  0.00    +0.000 C 
ATOM     20  O   UNL     1       6.228   3.619  14.972  0.00  0.00    +0.000 OA
ATOM     21  H   UNL     1       8.388   3.627  16.163  0.00  0.00    +0.000 HD
ATOM     22  H   UNL     1       7.991   4.955  17.236  0.00  0.00    +0.000 HD
ENDBRANCH   1  19
BRANCH   5  23
ATOM     23  C   UNL     1       4.163   4.109  18.107  0.00  0.00    +0.000 A 
ATOM     24  C   UNL     1       4.719   3.557  19.249  0.00  0.00    +0.000 A 
ATOM     25  C   UNL     1       4.069   2.356  19.653  0.00  0.00    +0.000 A 
ATOM     26  C   UNL     1       2.986   2.069  18.857  0.00  0.00    +0.000 A 
ATOM     27  S   UNL     1       2.824   3.181  17.571  0.00  0.00    +0.000 S 
ENDBRANCH   5  23
TORSDOF 5
ENDMDL
MODEL 6
REMARK VINA RESULT:      -7.5      2.779      3.843
REMARK  Name = 
REMARK  5 active torsions:
REMARK  status: ('A' for Active; 'I' for Inactive)
REMARK    1  A    between atoms: C_2  and  C_4
REMARK    2  A    between atoms: N_7  and  C_8
REMARK    3  A    between atoms: C_11  and  S_12
REMARK    4  A    between atoms: S_12  and  N_13
REMARK    5  A    between atoms: C_18  and  C_19
REMARK                            x       y       z     vdW  Elec       q    Type
REMARK                         _______ _______ _______ _____ _____    ______ ____
ROOT
ATOM      1  C   UNL     1       5.794   5.373  16.689  0.00  0.00    +0.000 A 
ATOM      2  N   UNL     1       5.934   6.687  16.305  0.00  0.00    +0.000 NA
ATOM      3  N   UNL     1       4.917   7.374  16.797  0.00  0.00    +0.000 NA
ATOM      4  N   UNL     1       4.206   6.559  17.614  0.00  0.00    +0.000 N 
ATOM      5  C   UNL     1       4.685   5.252  17.517  0.00  0.00    +0.000 A 
ENDROOT
BRANCH   4   6
ATOM      6  C   UNL     1       3.132   7.077  18.389  0.00  0.00    +0.000 A 
ATOM      7  C   UNL     1       2.794   6.457  19.601  0.00  0.00    +0.000 A 
ATOM      8  C   UNL     1       1.870   7.071  20.458  0.00  0.00    +0.000 A 
ATOM      9  C   UNL     1       1.281   8.284  20.085  0.00  0.00    +0.000 A 
ATOM     10  C   UNL     1       1.538   8.849  18.835  0.00  0.00    +0.000 A 
ATOM     11  C   UNL     1       2.455   8.235  17.984  0.00  0.00    +0.000 A 
BRANCH   9  12
ATOM     12  S   UNL     1       0.181   9.113  21.196  0.00  0.00    +0.000 S 
ATOM     13  O   UNL     1      -0.273  10.342  20.586  0.00  0.00    +0.000 OA
ATOM     14  O   UNL     1      -0.718   8.153  21.786  0.00  0.00    +0.000 OA
BRANCH  12  15
ATOM     15  N   UNL     1       1.236   9.578  22.422  0.00  0.00    +0.000 NA
ATOM     16  H   UNL     1       1.923   8.841  22.589  0.00  0.00    +0.000 HD
ATOM     17  H   UNL     1       1.652  10.482  22.196  0.00  0.00    +0.000 HD
ENDBRANCH  12  15
ENDBRANCH   9  12
ENDBRANCH   4   6
BRANCH   1  19
ATOM     18  N   UNL     1       6.069   3.312  15.536  0.00  0.00    +0.000 N 
ATOM     19  C   UNL     1       6.688   4.337  16.196  0.00  0.00    +0.000 C 
ATOM     20  O   UNL     1       7.907   4.340  16.332  0.00  0.00    +0.000 OA
ATOM     21  H   UNL     1       6.649   2.587  15.140  0.00  0.00    +0.000 HD
ATOM     22  H   UNL     1       5.068   3.296  15.401  0.00  0.00    +0.000 HD
ENDBRANCH   1  19
BRANCH   5  23
ATOM     23  C   UNL     1       4.078   4.088  18.109  0.00  0.00    +0.000 A 
ATOM     24  C   UNL     1       4.524   3.374  19.208  0.00  0.00    +0.000 A 
ATOM     25  C   UNL     1       3.734   2.219  19.473  0.00  0.00    +0.000 A 
ATOM     26  C   UNL     1       2.661   2.127  18.618  0.00  0.00    +0.000 A 
ATOM     27  S   UNL     1       2.672   3.366  17.442  0.00  0.00    +0.000 S 
ENDBRANCH   5  23
TORSDOF 5
ENDMDL
MODEL 7
REMARK VINA RESULT:      -7.5      2.748      3.974
REMARK  Name = 
REMARK  5 active torsions:
REMARK  status: ('A' for Active; 'I' for Inactive)
REMARK    1  A    between atoms: C_2  and  C_4
REMARK    2  A    between atoms: N_7  and  C_8
REMARK    3  A    between atoms: C_11  and  S_12
REMARK    4  A    between atoms: S_12  and  N_13
REMARK    5  A    between atoms: C_18  and  C_19
REMARK                            x       y       z     vdW  Elec       q    Type
REMARK                         _______ _______ _______ _____ _____    ______ ____
ROOT
ATOM      1  C   UNL     1       5.771   5.394  16.690  0.00  0.00    +0.000 A 
ATOM      2  N   UNL     1       6.057   6.707  16.397  0.00  0.00    +0.000 NA
ATOM      3  N   UNL     1       5.073   7.460  16.859  0.00  0.00    +0.000 NA
ATOM      4  N   UNL     1       4.232   6.674  17.575  0.00  0.00    +0.000 N 
ATOM      5  C   UNL     1       4.597   5.333  17.432  0.00  0.00    +0.000 A 
ENDROOT
BRANCH   4   6
ATOM      6  C   UNL     1       3.156   7.248  18.304  0.00  0.00    +0.000 A 
ATOM      7  C   UNL     1       2.815   6.723  19.560  0.00  0.00    +0.000 A 
ATOM      8  C   UNL     1       1.888   7.400  20.364  0.00  0.00    +0.000 A 
ATOM      9  C   UNL     1       1.298   8.580  19.896  0.00  0.00    +0.000 A 
ATOM     10  C   UNL     1       1.559   9.047  18.607  0.00  0.00    +0.000 A 
ATOM     11  C   UNL     1       2.479   8.370  17.810  0.00  0.00    +0.000 A 
BRANCH   9  12
ATOM     12  S   UNL     1       0.194   9.492  20.938  0.00  0.00    +0.000 S 
ATOM     13  O   UNL     1       0.956  10.151  21.973  0.00  0.00    +0.000 OA
ATOM     14  O   UNL     1      -0.776  10.177  20.122  0.00  0.00    +0.000 OA
BRANCH  12  15
ATOM     15  N   UNL     1      -0.638   8.249  21.708  0.00  0.00    +0.000 NA
ATOM     16  H   UNL     1      -0.134   7.959  22.548  0.00  0.00    +0.000 HD
ATOM     17  H   UNL     1      -1.600   8.537  21.888  0.00  0.00    +0.000 HD
ENDBRANCH  12  15
ENDBRANCH   9  12
ENDBRANCH   4   6
BRANCH   1  19
ATOM     18  N   UNL     1       5.921   3.316  15.544  0.00  0.00    +0.000 N 
ATOM     19  C   UNL     1       6.601   4.306  16.198  0.00  0.00    +0.000 C 
ATOM     20  O   UNL     1       7.818   4.239  16.330  0.00  0.00    +0.000 OA
ATOM     21  H   UNL     1       6.455   2.557  15.148  0.00  0.00    +0.000 HD
ATOM     22  H   UNL     1       4.919   3.358  15.413  0.00  0.00    +0.000 HD
ENDBRANCH   1  19
BRANCH   5  23
ATOM     23  C   UNL     1       3.845   4.203  17.910  0.00  0.00    +0.000 A 
ATOM     24  C   UNL     1       2.647   3.719  17.412  0.00  0.00    +0.000 A 
ATOM     25  C   UNL     1       2.127   2.638  18.180  0.00  0.00    +0.000 A 
ATOM     26  C   UNL     1       2.982   2.274  19.193  0.00  0.00    +0.000 A 
ATOM     27  S   UNL     1       4.345   3.300  19.279  0.00  0.00    +0.000 S 
ENDBRANCH   5  23
TORSDOF 5
ENDMDL
MODEL 8
REMARK VINA RESULT:      -7.5      1.089      1.237
REMARK  Name = 
REMARK  5 active torsions:
REMARK  status: ('A' for Active; 'I' for Inactive)
REMARK    1  A    between atoms: C_2  and  C_4
REMARK    2  A    between atoms: N_7  and  C_8
REMARK    3  A    between atoms: C_11  and  S_12
REMARK    4  A    between atoms: S_12  and  N_13
REMARK    5  A    between atoms: C_18  and  C_19
REMARK                            x       y       z     vdW  Elec       q    Type
REMARK                         _______ _______ _______ _____ _____    ______ ____
ROOT
ATOM      1  C   UNL     1       3.247   3.155  19.444  0.00  0.00    +0.000 A 
ATOM      2  N   UNL     1       2.025   3.167  20.073  0.00  0.00    +0.000 NA
ATOM      3  N   UNL     1       1.649   4.425  20.229  0.00  0.00    +0.000 NA
ATOM      4  N   UNL     1       2.535   5.219  19.580  0.00  0.00    +0.000 N 
ATOM      5  C   UNL     1       3.614   4.458  19.127  0.00  0.00    +0.000 A 
ENDROOT
BRANCH   4   6
ATOM      6  C   UNL     1       2.299   6.616  19.465  0.00  0.00    +0.000 A 
ATOM      7  C   UNL     1       2.486   7.249  18.227  0.00  0.00    +0.000 A 
ATOM      8  C   UNL     1       2.074   8.578  18.059  0.00  0.00    +0.000 A 
ATOM      9  C   UNL     1       1.500   9.265  19.135  0.00  0.00    +0.000 A 
ATOM     10  C   UNL     1       1.408   8.671  20.395  0.00  0.00    +0.000 A 
ATOM     11  C   UNL     1       1.821   7.351  20.558  0.00  0.00    +0.000 A 
BRANCH   9  12
ATOM     12  S   UNL     1       0.894  10.913  18.912  0.00  0.00    +0.000 S 
ATOM     13  O   UNL     1       1.947  11.735  18.361  0.00  0.00    +0.000 OA
ATOM     14  O   UNL     1      -0.433  10.864  18.355  0.00  0.00    +0.000 OA
BRANCH  12  15
ATOM     15  N   UNL     1       0.712  11.418  20.506  0.00  0.00    +0.000 NA
ATOM     16  H   UNL     1       0.281  12.344  20.532  0.00  0.00    +0.000 HD
ATOM     17  H   UNL     1       0.197  10.714  21.036  0.00  0.00    +0.000 HD
ENDBRANCH  12  15
ENDBRANCH   9  12
ENDBRANCH   4   6
BRANCH   1  19
ATOM     18  N   UNL     1       5.040   1.738  20.102  0.00  0.00    +0.000 N 
ATOM     19  C   UNL     1       3.990   1.920  19.245  0.00  0.00    +0.000 C 
ATOM     20  O   UNL     1       3.731   1.077  18.394  0.00  0.00    +0.000 OA
ATOM     21  H   UNL     1       5.563   0.878  20.032  0.00  0.00    +0.000 HD
ATOM     22  H   UNL     1       5.262   2.414  20.820  0.00  0.00    +0.000 HD
ENDBRANCH   1  19
BRANCH   5  23
ATOM     23  C   UNL     1       4.822   4.978  18.540  0.00  0.00    +0.000 A 
ATOM     24  C   UNL     1       5.931   5.477  19.202  0.00  0.00    +0.000 A 
ATOM     25  C   UNL     1       6.916   5.996  18.314  0.00  0.00    +0.000 A 
ATOM     26  C   UNL     1       6.567   5.806  16.998  0.00  0.00    +0.000 A 
ATOM     27  S   UNL     1       5.017   5.106  16.841  0.00  0.00    +0.000 S 
ENDBRANCH   5  23
TORSDOF 5
ENDMDL
MODEL 9
REMARK VINA RESULT:      -7.5      2.818      3.940
REMARK  Name = 
REMARK  5 active torsions:
REMARK  status: ('A' for Active; 'I' for Inactive)
REMARK    1  A    between atoms: C_2  and  C_4
REMARK    2  A    between atoms: N_7  and  C_8
REMARK    3  A    between atoms: C_11  and  S_12
REMARK    4  A    between atoms: S_12  and  N_13
REMARK    5  A    between atoms: C_18  and  C_19
REMARK                            x       y       z     vdW  Elec       q    Type
REMARK                         _______ _______ _______ _____ _____    ______ ____
ROOT
ATOM      1  C   UNL     1       5.587   5.392  16.540  0.00  0.00    +0.000 A 
ATOM      2  N   UNL     1       5.730   6.676  16.069  0.00  0.00    +0.000 NA
ATOM      3  N   UNL     1       4.749   7.412  16.564  0.00  0.00    +0.000 NA
ATOM      4  N   UNL     1       4.064   6.664  17.462  0.00  0.00    +0.000 N 
ATOM      5  C   UNL     1       4.517   5.343  17.424  0.00  0.00    +0.000 A 
ENDROOT
BRANCH   4   6
ATOM      6  C   UNL     1       3.037   7.248  18.251  0.00  0.00    +0.000 A 
ATOM      7  C   UNL     1       2.741   6.706  19.511  0.00  0.00    +0.000 A 
ATOM      8  C   UNL     1       1.869   7.389  20.371  0.00  0.00    +0.000 A 
ATOM      9  C   UNL     1       1.288   8.591  19.954  0.00  0.00    +0.000 A 
ATOM     10  C   UNL     1       1.500   9.078  18.663  0.00  0.00    +0.000 A 
ATOM     11  C   UNL     1       2.365   8.396  17.811  0.00  0.00    +0.000 A 
BRANCH   9  12
ATOM     12  S   UNL     1       0.256   9.507  21.063  0.00  0.00    +0.000 S 
ATOM     13  O   UNL     1       1.075  10.089  22.101  0.00  0.00    +0.000 OA
ATOM     14  O   UNL     1      -0.704  10.268  20.304  0.00  0.00    +0.000 OA
BRANCH  12  15
ATOM     15  N   UNL     1      -0.611   8.272  21.806  0.00  0.00    +0.000 NA
ATOM     16  H   UNL     1      -1.282   7.871  21.148  0.00  0.00    +0.000 HD
ATOM     17  H   UNL     1       0.033   7.587  22.202  0.00  0.00    +0.000 HD
ENDBRANCH  12  15
ENDBRANCH   9  12
ENDBRANCH   4   6
BRANCH   1  19
ATOM     18  N   UNL     1       7.747   4.401  16.461  0.00  0.00    +0.000 N 
ATOM     19  C   UNL     1       6.440   4.311  16.072  0.00  0.00    +0.000 C 
ATOM     20  O   UNL     1       6.062   3.370  15.383  0.00  0.00    +0.000 OA
ATOM     21  H   UNL     1       8.372   3.655  16.195  0.00  0.00    +0.000 HD
ATOM     22  H   UNL     1       8.077   5.162  17.039  0.00  0.00    +0.000 HD
ENDBRANCH   1  19
BRANCH   5  23
ATOM     23  C   UNL     1       3.919   4.230  18.115  0.00  0.00    +0.000 A 
ATOM     24  C   UNL     1       4.400   3.583  19.241  0.00  0.00    +0.000 A 
ATOM     25  C   UNL     1       3.607   2.459  19.611  0.00  0.00    +0.000 A 
ATOM     26  C   UNL     1       2.499   2.329  18.808  0.00  0.00    +0.000 A 
ATOM     27  S   UNL     1       2.478   3.488  17.553  0.00  0.00    +0.000 S 
ENDBRANCH   5  23
TORSDOF 5
ENDMDL
