MODEL 1
REMARK VINA RESULT:      -8.4      0.000      0.000
REMARK  Name = 
REMARK  5 active torsions:
REMARK  status: ('A' for Active; 'I' for Inactive)
REMARK    1  A    between atoms: C_4  and  C_5
REMARK    2  A    between atoms: C_7  and  N_8
REMARK    3  A    between atoms: N_8  and  C_9
REMARK    4  A    between atoms: C_9  and  C_10
REMARK    5  A    between atoms: C_10  and  N_11
REMARK                            x       y       z     vdW  Elec       q    Type
REMARK                         _______ _______ _______ _____ _____    ______ ____
ROOT
ATOM      1  C   UNL     1       4.151   6.368  18.034  0.00  0.00    +0.000 A 
ATOM      2  C   UNL     1       4.018   5.893  19.333  0.00  0.00    +0.000 A 
ATOM      3  C   UNL     1       2.926   6.255  20.087  0.00  0.00    +0.000 A 
ATOM      4  C   UNL     1       2.253   7.422  19.708  0.00  0.00    +0.000 A 
ATOM      5  C   UNL     1       1.427   8.113  20.615  0.00  0.00    +0.000 A 
ATOM      6  C   UNL     1       0.754   9.269  20.231  0.00  0.00    +0.000 A 
ATOM      7  C   UNL     1       0.828   9.672  18.912  0.00  0.00    +0.000 A 
ATOM      8  C   UNL     1       1.651   8.983  18.005  0.00  0.00    +0.000 A 
ATOM      9  C   UNL     1       2.436   7.897  18.391  0.00  0.00    +0.000 A 
ATOM     10  N   UNL     1       3.334   7.326  17.546  0.00  0.00    +0.000 NA
ENDROOT
BRANCH   1  14
ATOM     11  C   UNL     1       7.006   4.404  15.472  0.00  0.00    +0.000 A 
ATOM     12  C   UNL     1       5.899   5.035  14.920  0.00  0.00    +0.000 A 
ATOM     13  C   UNL     1       5.029   5.741  15.752  0.00  0.00    +0.000 A 
ATOM     14  C   UNL     1       5.204   5.786  17.157  0.00  0.00    +0.000 A 
ATOM     15  C   UNL     1       6.362   5.201  17.676  0.00  0.00    +0.000 A 
ATOM     16  C   UNL     1       7.250   4.514  16.840  0.00  0.00    +0.000 A 
ENDBRANCH   1  14
BRANCH   3  17
ATOM     17  N   UNL     1       2.359   5.409  21.056  0.00  0.00    +0.000 N 
ATOM     18  H   UNL     1       1.867   6.035  21.702  0.00  0.00    +0.000 HD
BRANCH  17  19
ATOM     19  C   UNL     1       1.433   4.342  20.655  0.00  0.00    +0.000 C 
BRANCH  19  20
ATOM     20  C   UNL     1       2.234   3.040  20.561  0.00  0.00    +0.000 C 
BRANCH  20  21
ATOM     21  N   UNL     1       1.786   2.080  19.536  0.00  0.00    +0.000 NA
ATOM     22  C   UNL     1       2.961   1.615  18.756  0.00  0.00    +0.000 C 
ATOM     23  C   UNL     1       3.535   2.668  17.786  0.00  0.00    +0.000 C 
ATOM     24  O   UNL     1       2.528   3.212  16.920  0.00  0.00    +0.000 OA
ATOM     25  C   UNL     1       1.434   3.747  17.673  0.00  0.00    +0.000 C 
ATOM     26  C   UNL     1       0.821   2.664  18.575  0.00  0.00    +0.000 C 
ENDBRANCH  20  21
ENDBRANCH  19  20
ENDBRANCH  17  19
ENDBRANCH   3  17
TORSDOF 5
ENDMDL
MODEL 2
REMARK VINA RESULT:      -8.1      0.868      1.186
REMARK  Name = 
REMARK  5 active torsions:
REMARK  status: ('A' for Active; 'I' for Inactive)
REMARK    1  A    between atoms: C_4  and  C_5
REMARK    2  A    between atoms: C_7  and  N_8
REMARK    3  A    between atoms: N_8  and  C_9
REMARK    4  A    between atoms: C_9  and  C_10
REMARK    5  A    between atoms: C_10  and  N_11
REMARK                            x       y       z     vdW  Elec       q    Type
REMARK                         _______ _______ _______ _____ _____    ______ ____
ROOT
ATOM      1  C   UNL     1       4.131   6.493  17.981  0.00  0.00    +0.000 A 
ATOM      2  C   UNL     1       3.897   5.988  19.252  0.00  0.00    +0.000 A 
ATOM      3  C   UNL     1       2.776   6.377  19.949  0.00  0.00    +0.000 A 
ATOM      4  C   UNL     1       2.180   7.584  19.567  0.00  0.00    +0.000 A 
ATOM      5  C   UNL     1       1.330   8.286  20.445  0.00  0.00    +0.000 A 
ATOM      6  C   UNL     1       0.734   9.482  20.057  0.00  0.00    +0.000 A 
ATOM      7  C   UNL     1       0.908   9.920  18.758  0.00  0.00    +0.000 A 
ATOM      8  C   UNL     1       1.756   9.221  17.882  0.00  0.00    +0.000 A 
ATOM      9  C   UNL     1       2.466   8.088  18.281  0.00  0.00    +0.000 A 
ATOM     10  N   UNL     1       3.389   7.502  17.474  0.00  0.00    +0.000 NA
ENDROOT
BRANCH   1  14
ATOM     11  C   UNL     1       7.058   4.471  15.549  0.00  0.00    +0.000 A 
ATOM     12  C   UNL     1       5.989   5.122  14.948  0.00  0.00    +0.000 A 
ATOM     13  C   UNL     1       5.096   5.846  15.740  0.00  0.00    +0.000 A 
ATOM     14  C   UNL     1       5.211   5.890  17.151  0.00  0.00    +0.000 A 
ATOM     15  C   UNL     1       6.333   5.284  17.721  0.00  0.00    +0.000 A 
ATOM     16  C   UNL     1       7.243   4.579  16.926  0.00  0.00    +0.000 A 
ENDBRANCH   1  14
BRANCH   3  17
ATOM     17  N   UNL     1       2.113   5.530  20.855  0.00  0.00    +0.000 N 
ATOM     18  H   UNL     1       1.766   6.149  21.594  0.00  0.00    +0.000 HD
BRANCH  17  19
ATOM     19  C   UNL     1       0.999   4.688  20.399  0.00  0.00    +0.000 C 
BRANCH  19  20
ATOM     20  C   UNL     1       1.380   4.108  19.034  0.00  0.00    +0.000 C 
BRANCH  20  21
ATOM     21  N   UNL     1       1.480   2.639  18.964  0.00  0.00    +0.000 NA
ATOM     22  C   UNL     1       2.126   2.133  20.202  0.00  0.00    +0.000 C 
ATOM     23  C   UNL     1       3.639   2.418  20.288  0.00  0.00    +0.000 C 
ATOM     24  O   UNL     1       4.342   1.966  19.121  0.00  0.00    +0.000 OA
ATOM     25  C   UNL     1       3.779   2.526  17.930  0.00  0.00    +0.000 C 
ATOM     26  C   UNL     1       2.290   2.166  17.817  0.00  0.00    +0.000 C 
ENDBRANCH  20  21
ENDBRANCH  19  20
ENDBRANCH  17  19
ENDBRANCH   3  17
TORSDOF 5
ENDMDL
MODEL 3
REMARK VINA RESULT:      -7.9      1.457      5.078
REMARK  Name = 
REMARK  5 active torsions:
REMARK  status: ('A' for Active; 'I' for Inactive)
REMARK    1  A    between atoms: C_4  and  C_5
REMARK    2  A    between atoms: C_7  and  N_8
REMARK    3  A    between atoms: N_8  and  C_9
REMARK    4  A    between atoms: C_9  and  C_10
REMARK    5  A    between atoms: C_10  and  N_11
REMARK                            x       y       z     vdW  Elec       q    Type
REMARK                         _______ _______ _______ _____ _____    ______ ____
ROOT
ATOM      1  C   UNL     1       3.430   6.526  18.059  0.00  0.00    +0.000 A 
ATOM      2  C   UNL     1       3.594   5.298  18.687  0.00  0.00    +0.000 A 
ATOM      3  C   UNL     1       4.609   4.456  18.292  0.00  0.00    +0.000 A 
ATOM      4  C   UNL     1       5.125   4.647  17.006  0.00  0.00    +0.000 A 
ATOM      5  C   UNL     1       5.826   3.620  16.344  0.00  0.00    +0.000 A 
ATOM      6  C   UNL     1       6.345   3.816  15.068  0.00  0.00    +0.000 A 
ATOM      7  C   UNL     1       6.249   5.072  14.499  0.00  0.00    +0.000 A 
ATOM      8  C   UNL     1       5.550   6.098  15.158  0.00  0.00    +0.000 A 
ATOM      9  C   UNL     1       4.911   5.894  16.381  0.00  0.00    +0.000 A 
ATOM     10  N   UNL     1       4.121   6.846  16.943  0.00  0.00    +0.000 NA
ENDROOT
BRANCH   1  14
ATOM     11  C   UNL     1       0.970   9.605  19.800  0.00  0.00    +0.000 A 
ATOM     12  C   UNL     1       1.306   9.666  18.454  0.00  0.00    +0.000 A 
ATOM     13  C   UNL     1       2.030   8.619  17.883  0.00  0.00    +0.000 A 
ATOM     14  C   UNL     1       2.488   7.518  18.647  0.00  0.00    +0.000 A 
ATOM     15  C   UNL     1       2.076   7.450  19.980  0.00  0.00    +0.000 A 
ATOM     16  C   UNL     1       1.329   8.487  20.550  0.00  0.00    +0.000 A 
ENDBRANCH   1  14
BRANCH   3  17
ATOM     17  N   UNL     1       5.261   3.585  19.182  0.00  0.00    +0.000 N 
ATOM     18  H   UNL     1       5.730   4.197  19.858  0.00  0.00    +0.000 HD
BRANCH  17  19
ATOM     19  C   UNL     1       4.493   2.579  19.928  0.00  0.00    +0.000 C 
BRANCH  19  20
ATOM     20  C   UNL     1       3.350   2.103  19.027  0.00  0.00    +0.000 C 
BRANCH  20  21
ATOM     21  N   UNL     1       2.107   1.710  19.715  0.00  0.00    +0.000 NA
ATOM     22  C   UNL     1       0.941   2.170  18.919  0.00  0.00    +0.000 C 
ATOM     23  C   UNL     1       0.704   3.694  18.966  0.00  0.00    +0.000 C 
ATOM     24  O   UNL     1       0.635   4.190  20.311  0.00  0.00    +0.000 OA
ATOM     25  C   UNL     1       1.802   3.827  21.055  0.00  0.00    +0.000 C 
ATOM     26  C   UNL     1       1.980   2.300  21.068  0.00  0.00    +0.000 C 
ENDBRANCH  20  21
ENDBRANCH  19  20
ENDBRANCH  17  19
ENDBRANCH   3  17
TORSDOF 5
ENDMDL
MODEL 4
REMARK VINA RESULT:      -7.7      1.795      5.854
REMARK  Name = 
REMARK  5 active torsions:
REMARK  status: ('A' for Active; 'I' for Inactive)
REMARK    1  A    between atoms: C_4  and  C_5
REMARK    2  A    between atoms: C_7  and  N_8
REMARK    3  A    between atoms: N_8  and  C_9
REMARK    4  A    between atoms: C_9  and  C_10
REMARK    5  A    between atoms: C_10  and  N_11
REMARK                            x       y       z     vdW  Elec       q    Type
REMARK                         _______ _______ _______ _____ _____    ______ ____
ROOT
ATOM      1  C   UNL     1       2.811   6.371  18.917  0.00  0.00    +0.000 A 
ATOM      2  C   UNL     1       3.931   6.067  19.679  0.00  0.00    +0.000 A 
ATOM      3  C   UNL     1       4.580   4.867  19.497  0.00  0.00    +0.000 A 
ATOM      4  C   UNL     1       3.843   3.831  18.913  0.00  0.00    +0.000 A 
ATOM      5  C   UNL     1       4.229   2.486  19.069  0.00  0.00    +0.000 A 
ATOM      6  C   UNL     1       3.497   1.459  18.481  0.00  0.00    +0.000 A 
ATOM      7  C   UNL     1       2.439   1.789  17.654  0.00  0.00    +0.000 A 
ATOM      8  C   UNL     1       2.053   3.131  17.498  0.00  0.00    +0.000 A 
ATOM      9  C   UNL     1       2.689   4.171  18.175  0.00  0.00    +0.000 A 
ATOM     10  N   UNL     1       2.222   5.446  18.129  0.00  0.00    +0.000 NA
ENDROOT
BRANCH   1  14
ATOM     11  C   UNL     1       0.922  10.243  18.976  0.00  0.00    +0.000 A 
ATOM     12  C   UNL     1       0.912   9.451  20.116  0.00  0.00    +0.000 A 
ATOM     13  C   UNL     1       1.601   8.237  20.111  0.00  0.00    +0.000 A 
ATOM     14  C   UNL     1       2.264   7.756  18.956  0.00  0.00    +0.000 A 
ATOM     15  C   UNL     1       2.316   8.604  17.847  0.00  0.00    +0.000 A 
ATOM     16  C   UNL     1       1.646   9.833  17.858  0.00  0.00    +0.000 A 
ENDBRANCH   1  14
BRANCH   3  17
ATOM     17  N   UNL     1       5.967   4.720  19.676  0.00  0.00    +0.000 N 
ATOM     18  H   UNL     1       6.158   3.733  19.474  0.00  0.00    +0.000 HD
BRANCH  17  19
ATOM     19  C   UNL     1       6.904   5.538  18.895  0.00  0.00    +0.000 C 
BRANCH  19  20
ATOM     20  C   UNL     1       7.334   4.720  17.675  0.00  0.00    +0.000 C 
BRANCH  20  21
ATOM     21  N   UNL     1       7.554   5.482  16.432  0.00  0.00    +0.000 NA
ATOM     22  C   UNL     1       6.679   6.681  16.434  0.00  0.00    +0.000 C 
ATOM     23  C   UNL     1       5.185   6.376  16.202  0.00  0.00    +0.000 C 
ATOM     24  O   UNL     1       4.971   5.586  15.023  0.00  0.00    +0.000 OA
ATOM     25  C   UNL     1       5.743   4.382  15.061  0.00  0.00    +0.000 C 
ATOM     26  C   UNL     1       7.238   4.705  15.211  0.00  0.00    +0.000 C 
ENDBRANCH  20  21
ENDBRANCH  19  20
ENDBRANCH  17  19
ENDBRANCH   3  17
TORSDOF 5
ENDMDL
MODEL 5
REMARK VINA RESULT:      -7.6      2.052      6.411
REMARK  Name = 
REMARK  5 active torsions:
REMARK  status: ('A' for Active; 'I' for Inactive)
REMARK    1  A    between atoms: C_4  and  C_5
REMARK    2  A    between atoms: C_7  and  N_8
REMARK    3  A    between atoms: N_8  and  C_9
REMARK    4  A    between atoms: C_9  and  C_10
REMARK    5  A    between atoms: C_10  and  N_11
REMARK                            x       y       z     vdW  Elec       q    Type
REMARK                         _______ _______ _______ _____ _____    ______ ____
ROOT
ATOM      1  C   UNL     1       1.878   7.107  20.139  0.00  0.00    +0.000 A 
ATOM      2  C   UNL     1       2.823   7.053  19.123  0.00  0.00    +0.000 A 
ATOM      3  C   UNL     1       3.291   5.835  18.685  0.00  0.00    +0.000 A 
ATOM      4  C   UNL     1       3.163   4.754  19.564  0.00  0.00    +0.000 A 
ATOM      5  C   UNL     1       3.964   3.604  19.424  0.00  0.00    +0.000 A 
ATOM      6  C   UNL     1       3.828   2.528  20.296  0.00  0.00    +0.000 A 
ATOM      7  C   UNL     1       2.821   2.565  21.243  0.00  0.00    +0.000 A 
ATOM      8  C   UNL     1       2.022   3.712  21.383  0.00  0.00    +0.000 A 
ATOM      9  C   UNL     1       2.218   4.854  20.607  0.00  0.00    +0.000 A 
ATOM     10  N   UNL     1       1.537   6.006  20.844  0.00  0.00    +0.000 NA
ENDROOT
BRANCH   1  14
ATOM     11  C   UNL     1       0.259  11.002  21.016  0.00  0.00    +0.000 A 
ATOM     12  C   UNL     1       0.612  10.676  19.713  0.00  0.00    +0.000 A 
ATOM     13  C   UNL     1       1.054   9.384  19.428  0.00  0.00    +0.000 A 
ATOM     14  C   UNL     1       1.211   8.404  20.439  0.00  0.00    +0.000 A 
ATOM     15  C   UNL     1       0.784   8.739  21.726  0.00  0.00    +0.000 A 
ATOM     16  C   UNL     1       0.317  10.027  22.009  0.00  0.00    +0.000 A 
ENDBRANCH   1  14
BRANCH   3  17
ATOM     17  N   UNL     1       3.684   5.608  17.354  0.00  0.00    +0.000 N 
ATOM     18  H   UNL     1       2.809   5.462  16.840  0.00  0.00    +0.000 HD
BRANCH  17  19
ATOM     19  C   UNL     1       4.479   6.613  16.636  0.00  0.00    +0.000 C 
BRANCH  19  20
ATOM     20  C   UNL     1       5.579   7.101  17.583  0.00  0.00    +0.000 C 
BRANCH  20  21
ATOM     21  N   UNL     1       6.962   6.956  17.093  0.00  0.00    +0.000 NA
ATOM     22  C   UNL     1       7.107   5.639  16.423  0.00  0.00    +0.000 C 
ATOM     23  C   UNL     1       7.125   4.435  17.387  0.00  0.00    +0.000 C 
ATOM     24  O   UNL     1       8.101   4.591  18.428  0.00  0.00    +0.000 OA
ATOM     25  C   UNL     1       7.906   5.819  19.139  0.00  0.00    +0.000 C 
ATOM     26  C   UNL     1       7.971   7.015  18.176  0.00  0.00    +0.000 C 
ENDBRANCH  20  21
ENDBRANCH  19  20
ENDBRANCH  17  19
ENDBRANCH   3  17
TORSDOF 5
ENDMDL
MODEL 6
REMARK VINA RESULT:      -7.6      1.747      5.814
REMARK  Name = 
REMARK  5 active torsions:
REMARK  status: ('A' for Active; 'I' for Inactive)
REMARK    1  A    between atoms: C_4  and  C_5
REMARK    2  A    between atoms: C_7  and  N_8
REMARK    3  A    between atoms: N_8  and  C_9
REMARK    4  A    between atoms: C_9  and  C_10
REMARK    5  A    between atoms: C_10  and  N_11
REMARK                            x       y       z     vdW  Elec       q    Type
REMARK                         _______ _______ _______ _____ _____    ______ ____
ROOT
ATOM      1  C   UNL     1       2.745   6.341  18.910  0.00  0.00    +0.000 A 
ATOM      2  C   UNL     1       3.957   6.127  19.553  0.00  0.00    +0.000 A 
ATOM      3  C   UNL     1       4.628   4.939  19.376  0.00  0.00    +0.000 A 
ATOM      4  C   UNL     1       3.870   3.841  18.953  0.00  0.00    +0.000 A 
ATOM      5  C   UNL     1       4.325   2.523  19.152  0.00  0.00    +0.000 A 
ATOM      6  C   UNL     1       3.572   1.435  18.723  0.00  0.00    +0.000 A 
ATOM      7  C   UNL     1       2.414   1.671  18.006  0.00  0.00    +0.000 A 
ATOM      8  C   UNL     1       1.959   2.986  17.807  0.00  0.00    +0.000 A 
ATOM      9  C   UNL     1       2.627   4.091  18.334  0.00  0.00    +0.000 A 
ATOM     10  N   UNL     1       2.107   5.344  18.259  0.00  0.00    +0.000 NA
ENDROOT
BRANCH   1  14
ATOM     11  C   UNL     1       1.342  10.414  19.001  0.00  0.00    +0.000 A 
ATOM     12  C   UNL     1       1.922   9.907  17.846  0.00  0.00    +0.000 A 
ATOM     13  C   UNL     1       2.293   8.562  17.800  0.00  0.00    +0.000 A 
ATOM     14  C   UNL     1       2.152   7.707  18.920  0.00  0.00    +0.000 A 
ATOM     15  C   UNL     1       1.504   8.225  20.044  0.00  0.00    +0.000 A 
ATOM     16  C   UNL     1       1.108   9.567  20.083  0.00  0.00    +0.000 A 
ENDBRANCH   1  14
BRANCH   3  17
ATOM     17  N   UNL     1       6.031   4.848  19.401  0.00  0.00    +0.000 N 
ATOM     18  H   UNL     1       6.243   3.907  19.055  0.00  0.00    +0.000 HD
BRANCH  17  19
ATOM     19  C   UNL     1       6.846   5.810  18.647  0.00  0.00    +0.000 C 
BRANCH  19  20
ATOM     20  C   UNL     1       7.321   5.117  17.367  0.00  0.00    +0.000 C 
BRANCH  20  21
ATOM     21  N   UNL     1       7.116   5.867  16.114  0.00  0.00    +0.000 NA
ATOM     22  C   UNL     1       5.687   6.255  16.006  0.00  0.00    +0.000 C 
ATOM     23  C   UNL     1       4.736   5.085  15.678  0.00  0.00    +0.000 C 
ATOM     24  O   UNL     1       5.158   4.353  14.518  0.00  0.00    +0.000 OA
ATOM     25  C   UNL     1       6.508   3.897  14.660  0.00  0.00    +0.000 C 
ATOM     26  C   UNL     1       7.455   5.082  14.905  0.00  0.00    +0.000 C 
ENDBRANCH  20  21
ENDBRANCH  19  20
ENDBRANCH  17  19
ENDBRANCH   3  17
TORSDOF 5
ENDMDL
MODEL 7
REMARK VINA RESULT:      -7.5      2.582      5.568
REMARK  Name = 
REMARK  5 active torsions:
REMARK  status: ('A' for Active; 'I' for Inactive)
REMARK    1  A    between atoms: C_4  and  C_5
REMARK    2  A    between atoms: C_7  and  N_8
REMARK    3  A    between atoms: N_8  and  C_9
REMARK    4  A    between atoms: C_9  and  C_10
REMARK    5  A    between atoms: C_10  and  N_11
REMARK                            x       y       z     vdW  Elec       q    Type
REMARK                         _______ _______ _______ _____ _____    ______ ____
ROOT
ATOM      1  C   UNL     1       4.474   4.623  17.457  0.00  0.00    +0.000 A 
ATOM      2  C   UNL     1       3.580   5.685  17.513  0.00  0.00    +0.000 A 
ATOM      3  C   UNL     1       2.840   5.899  18.653  0.00  0.00    +0.000 A 
ATOM      4  C   UNL     1       2.666   4.806  19.510  0.00  0.00    +0.000 A 
ATOM      5  C   UNL     1       1.611   4.773  20.442  0.00  0.00    +0.000 A 
ATOM      6  C   UNL     1       1.446   3.687  21.297  0.00  0.00    +0.000 A 
ATOM      7  C   UNL     1       2.398   2.685  21.287  0.00  0.00    +0.000 A 
ATOM      8  C   UNL     1       3.452   2.717  20.358  0.00  0.00    +0.000 A 
ATOM      9  C   UNL     1       3.571   3.728  19.404  0.00  0.00    +0.000 A 
ATOM     10  N   UNL     1       4.507   3.678  18.421  0.00  0.00    +0.000 NA
ENDROOT
BRANCH   1  14
ATOM     11  C   UNL     1       7.167   4.719  14.095  0.00  0.00    +0.000 A 
ATOM     12  C   UNL     1       7.573   5.225  15.322  0.00  0.00    +0.000 A 
ATOM     13  C   UNL     1       6.725   5.110  16.424  0.00  0.00    +0.000 A 
ATOM     14  C   UNL     1       5.431   4.544  16.319  0.00  0.00    +0.000 A 
ATOM     15  C   UNL     1       5.076   3.982  15.090  0.00  0.00    +0.000 A 
ATOM     16  C   UNL     1       5.936   4.074  13.990  0.00  0.00    +0.000 A 
ENDBRANCH   1  14
BRANCH   3  17
ATOM     17  N   UNL     1       2.448   7.182  19.074  0.00  0.00    +0.000 N 
ATOM     18  H   UNL     1       3.296   7.605  19.465  0.00  0.00    +0.000 HD
BRANCH  17  19
ATOM     19  C   UNL     1       1.863   8.127  18.114  0.00  0.00    +0.000 C 
BRANCH  19  20
ATOM     20  C   UNL     1       1.804   9.501  18.788  0.00  0.00    +0.000 C 
BRANCH  20  21
ATOM     21  N   UNL     1       0.457   9.995  19.127  0.00  0.00    +0.000 NA
ATOM     22  C   UNL     1       0.481  11.480  19.178  0.00  0.00    +0.000 C 
ATOM     23  C   UNL     1       1.205  12.060  20.409  0.00  0.00    +0.000 C 
ATOM     24  O   UNL     1       0.707  11.512  21.638  0.00  0.00    +0.000 OA
ATOM     25  C   UNL     1       0.770  10.082  21.630  0.00  0.00    +0.000 C 
ATOM     26  C   UNL     1      -0.025   9.516  20.443  0.00  0.00    +0.000 C 
ENDBRANCH  20  21
ENDBRANCH  19  20
ENDBRANCH  17  19
ENDBRANCH   3  17
TORSDOF 5
ENDMDL
MODEL 8
REMARK VINA RESULT:      -7.5      1.065      1.366
REMARK  Name = 
REMARK  5 active torsions:
REMARK  status: ('A' for Active; 'I' for Inactive)
REMARK    1  A    between atoms: C_4  and  C_5
REMARK    2  A    between atoms: C_7  and  N_8
REMARK    3  A    between atoms: N_8  and  C_9
REMARK    4  A    between atoms: C_9  and  C_10
REMARK    5  A    between atoms: C_10  and  N_11
REMARK                            x       y       z     vdW  Elec       q    Type
REMARK                         _______ _______ _______ _____ _____    ______ ____
ROOT
ATOM      1  C   UNL     1       3.801   6.733  18.044  0.00  0.00    +0.000 A 
ATOM      2  C   UNL     1       3.481   6.284  19.319  0.00  0.00    +0.000 A 
ATOM      3  C   UNL     1       2.374   6.784  19.965  0.00  0.00    +0.000 A 
ATOM      4  C   UNL     1       1.895   8.025  19.531  0.00  0.00    +0.000 A 
ATOM      5  C   UNL     1       1.077   8.819  20.359  0.00  0.00    +0.000 A 
ATOM      6  C   UNL     1       0.597  10.049  19.921  0.00  0.00    +0.000 A 
ATOM      7  C   UNL     1       0.852  10.435  18.619  0.00  0.00    +0.000 A 
ATOM      8  C   UNL     1       1.667   9.643  17.791  0.00  0.00    +0.000 A 
ATOM      9  C   UNL     1       2.266   8.468  18.244  0.00  0.00    +0.000 A 
ATOM     10  N   UNL     1       3.163   7.785  17.486  0.00  0.00    +0.000 NA
ENDROOT
BRANCH   1  14
ATOM     11  C   UNL     1       6.885   4.952  15.618  0.00  0.00    +0.000 A 
ATOM     12  C   UNL     1       7.229   5.773  16.684  0.00  0.00    +0.000 A 
ATOM     13  C   UNL     1       6.225   6.274  17.514  0.00  0.00    +0.000 A 
ATOM     14  C   UNL     1       4.854   6.019  17.269  0.00  0.00    +0.000 A 
ATOM     15  C   UNL     1       4.541   5.135  16.234  0.00  0.00    +0.000 A 
ATOM     16  C   UNL     1       5.549   4.612  15.415  0.00  0.00    +0.000 A 
ENDBRANCH   1  14
BRANCH   3  17
ATOM     17  N   UNL     1       1.612   6.020  20.866  0.00  0.00    +0.000 N 
ATOM     18  H   UNL     1       0.737   6.541  20.985  0.00  0.00    +0.000 HD
BRANCH  17  19
ATOM     19  C   UNL     1       1.277   4.625  20.553  0.00  0.00    +0.000 C 
BRANCH  19  20
ATOM     20  C   UNL     1       2.216   3.725  21.361  0.00  0.00    +0.000 C 
BRANCH  20  21
ATOM     21  N   UNL     1       2.404   2.358  20.843  0.00  0.00    +0.000 NA
ATOM     22  C   UNL     1       3.855   2.100  20.662  0.00  0.00    +0.000 C 
ATOM     23  C   UNL     1       4.486   2.839  19.464  0.00  0.00    +0.000 C 
ATOM     24  O   UNL     1       3.768   2.605  18.245  0.00  0.00    +0.000 OA
ATOM     25  C   UNL     1       2.384   2.942  18.388  0.00  0.00    +0.000 C 
ATOM     26  C   UNL     1       1.749   2.137  19.533  0.00  0.00    +0.000 C 
ENDBRANCH  20  21
ENDBRANCH  19  20
ENDBRANCH  17  19
ENDBRANCH   3  17
TORSDOF 5
ENDMDL
MODEL 9
REMARK VINA RESULT:      -7.4      1.247      1.808
REMARK  Name = 
REMARK  5 active torsions:
REMARK  status: ('A' for Active; 'I' for Inactive)
REMARK    1  A    between atoms: C_4  and  C_5
REMARK    2  A    between atoms: C_7  and  N_8
REMARK    3  A    between atoms: N_8  and  C_9
REMARK    4  A    between atoms: C_9  and  C_10
REMARK    5  A    between atoms: C_10  and  N_11
REMARK                            x       y       z     vdW  Elec       q    Type
REMARK                         _______ _______ _______ _____ _____    ______ ____
ROOT
ATOM      1  C   UNL     1       3.969   6.433  17.993  0.00  0.00    +0.000 A 
ATOM      2  C   UNL     1       3.669   5.988  19.274  0.00  0.00    +0.000 A 
ATOM      3  C   UNL     1       2.573   6.491  19.936  0.00  0.00    +0.000 A 
ATOM      4  C   UNL     1       2.089   7.732  19.508  0.00  0.00    +0.000 A 
ATOM      5  C   UNL     1       1.286   8.529  20.347  0.00  0.00    +0.000 A 
ATOM      6  C   UNL     1       0.802   9.759  19.914  0.00  0.00    +0.000 A 
ATOM      7  C   UNL     1       1.037  10.142  18.607  0.00  0.00    +0.000 A 
ATOM      8  C   UNL     1       1.837   9.348  17.768  0.00  0.00    +0.000 A 
ATOM      9  C   UNL     1       2.441   8.172  18.214  0.00  0.00    +0.000 A 
ATOM     10  N   UNL     1       3.325   7.486  17.444  0.00  0.00    +0.000 NA
ENDROOT
BRANCH   1  14
ATOM     11  C   UNL     1       6.915   4.577  15.454  0.00  0.00    +0.000 A 
ATOM     12  C   UNL     1       7.238   5.725  16.165  0.00  0.00    +0.000 A 
ATOM     13  C   UNL     1       6.305   6.267  17.050  0.00  0.00    +0.000 A 
ATOM     14  C   UNL     1       5.009   5.716  17.204  0.00  0.00    +0.000 A 
ATOM     15  C   UNL     1       4.736   4.524  16.529  0.00  0.00    +0.000 A 
ATOM     16  C   UNL     1       5.680   3.964  15.660  0.00  0.00    +0.000 A 
ENDBRANCH   1  14
BRANCH   3  17
ATOM     17  N   UNL     1       1.824   5.730  20.851  0.00  0.00    +0.000 N 
ATOM     18  H   UNL     1       1.334   6.418  21.432  0.00  0.00    +0.000 HD
BRANCH  17  19
ATOM     19  C   UNL     1       0.839   4.753  20.367  0.00  0.00    +0.000 C 
BRANCH  19  20
ATOM     20  C   UNL     1       1.481   3.975  19.214  0.00  0.00    +0.000 C 
BRANCH  20  21
ATOM     21  N   UNL     1       1.606   2.519  19.410  0.00  0.00    +0.000 NA
ATOM     22  C   UNL     1       1.592   2.219  20.864  0.00  0.00    +0.000 C 
ATOM     23  C   UNL     1       2.883   2.617  21.606  0.00  0.00    +0.000 C 
ATOM     24  O   UNL     1       4.056   2.073  20.982  0.00  0.00    +0.000 OA
ATOM     25  C   UNL     1       4.122   2.440  19.600  0.00  0.00    +0.000 C 
ATOM     26  C   UNL     1       2.864   1.965  18.856  0.00  0.00    +0.000 C 
ENDBRANCH  20  21
ENDBRANCH  19  20
ENDBRANCH  17  19
ENDBRANCH   3  17
TORSDOF 5
ENDMDL
