MODEL 1
REMARK VINA RESULT:      -8.0      0.000      0.000
REMARK  Name = 
REMARK  6 active torsions:
REMARK  status: ('A' for Active; 'I' for Inactive)
REMARK    1  A    between atoms: C_1  and  O_2
REMARK    2  A    between atoms: O_2  and  C_3
REMARK    3  A    between atoms: C_6  and  N_7
REMARK    4  A    between atoms: N_10  and  C_11
REMARK    5  A    between atoms: C_11  and  C_12
REMARK    6  A    between atoms: C_14  and  C_15
REMARK                            x       y       z     vdW  Elec       q    Type
REMARK                         _______ _______ _______ _____ _____    ______ ____
ROOT
ATOM      1  N   UNL     1       3.637   6.497  18.262  0.00  0.00    +0.000 N 
ATOM      2  C   UNL     1       4.314   6.644  16.964  0.00  0.00    +0.000 C 
ATOM      3  C   UNL     1       5.852   6.702  17.130  0.00  0.00    +0.000 C 
ATOM      4  N   UNL     1       6.437   5.606  17.945  0.00  0.00    +0.000 NA
ATOM      5  C   UNL     1       5.735   5.622  19.258  0.00  0.00    +0.000 C 
ATOM      6  C   UNL     1       4.194   5.498  19.187  0.00  0.00    +0.000 C 
ENDROOT
BRANCH   1  10
ATOM      7  C   UNL     1       0.830   9.306  19.688  0.00  0.00    +0.000 A 
ATOM      8  C   UNL     1       1.288   8.281  20.510  0.00  0.00    +0.000 A 
ATOM      9  C   UNL     1       2.233   7.363  20.037  0.00  0.00    +0.000 A 
ATOM     10  C   UNL     1       2.725   7.425  18.725  0.00  0.00    +0.000 A 
ATOM     11  C   UNL     1       2.236   8.455  17.912  0.00  0.00    +0.000 A 
ATOM     12  C   UNL     1       1.301   9.385  18.382  0.00  0.00    +0.000 A 
BRANCH   7  14
ATOM     13  C   UNL     1      -0.381   9.910  21.621  0.00  0.00    +0.000 C 
ATOM     14  O   UNL     1      -0.096  10.144  20.246  0.00  0.00    +0.000 OA
ENDBRANCH   7  14
ENDBRANCH   1  10
BRANCH   4  15
ATOM     15  C   UNL     1       6.296   4.323  17.236  0.00  0.00    +0.000 C 
BRANCH  15  16
ATOM     16  C   UNL     1       6.548   4.456  15.781  0.00  0.00    +0.000 A 
ATOM     17  C   UNL     1       5.956   3.858  14.690  0.00  0.00    +0.000 A 
ATOM     18  C   UNL     1       6.698   4.318  13.589  0.00  0.00    +0.000 A 
ATOM     19  N   UNL     1       7.650   5.187  13.941  0.00  0.00    +0.000 NA
ATOM     20  N   UNL     1       7.537   5.255  15.278  0.00  0.00    +0.000 N 
ATOM     21  H   UNL     1       8.190   5.834  15.796  0.00  0.00    +0.000 HD
BRANCH  18  22
ATOM     22  C   UNL     1       6.457   3.835  12.169  0.00  0.00    +0.000 C 
ATOM     23  C   UNL     1       6.109   2.381  11.926  0.00  0.00    +0.000 C 
ATOM     24  C   UNL     1       5.048   3.418  11.793  0.00  0.00    +0.000 C 
ENDBRANCH  18  22
ENDBRANCH  15  16
ENDBRANCH   4  15
TORSDOF 5
ENDMDL
MODEL 2
REMARK VINA RESULT:      -7.7      0.498      1.127
REMARK  Name = 
REMARK  6 active torsions:
REMARK  status: ('A' for Active; 'I' for Inactive)
REMARK    1  A    between atoms: C_1  and  O_2
REMARK    2  A    between atoms: O_2  and  C_3
REMARK    3  A    between atoms: C_6  and  N_7
REMARK    4  A    between atoms: N_10  and  C_11
REMARK    5  A    between atoms: C_11  and  C_12
REMARK    6  A    between atoms: C_14  and  C_15
REMARK                            x       y       z     vdW  Elec       q    Type
REMARK                         _______ _______ _______ _____ _____    ______ ____
ROOT
ATOM      1  N   UNL     1       3.296   6.616  18.434  0.00  0.00    +0.000 N 
ATOM      2  C   UNL     1       4.031   6.771  17.170  0.00  0.00    +0.000 C 
ATOM      3  C   UNL     1       5.561   6.711  17.393  0.00  0.00    +0.000 C 
ATOM      4  N   UNL     1       6.036   5.540  18.177  0.00  0.00    +0.000 NA
ATOM      5  C   UNL     1       5.286   5.549  19.463  0.00  0.00    +0.000 C 
ATOM      6  C   UNL     1       3.744   5.540  19.332  0.00  0.00    +0.000 C 
ENDROOT
BRANCH   1  10
ATOM      7  C   UNL     1       0.685   9.606  19.867  0.00  0.00    +0.000 A 
ATOM      8  C   UNL     1       1.151   9.639  18.556  0.00  0.00    +0.000 A 
ATOM      9  C   UNL     1       2.002   8.635  18.082  0.00  0.00    +0.000 A 
ATOM     10  C   UNL     1       2.434   7.586  18.908  0.00  0.00    +0.000 A 
ATOM     11  C   UNL     1       1.965   7.585  20.227  0.00  0.00    +0.000 A 
ATOM     12  C   UNL     1       1.103   8.578  20.705  0.00  0.00    +0.000 A 
BRANCH   7  14
ATOM     13  C   UNL     1      -0.575  10.620  21.585  0.00  0.00    +0.000 C 
ATOM     14  O   UNL     1      -0.136  10.637  20.231  0.00  0.00    +0.000 OA
ENDBRANCH   7  14
ENDBRANCH   1  10
BRANCH   4  15
ATOM     15  C   UNL     1       5.833   4.303  17.404  0.00  0.00    +0.000 C 
BRANCH  15  16
ATOM     16  C   UNL     1       6.252   4.451  15.989  0.00  0.00    +0.000 A 
ATOM     17  C   UNL     1       5.616   4.139  14.808  0.00  0.00    +0.000 A 
ATOM     18  C   UNL     1       6.564   4.422  13.810  0.00  0.00    +0.000 A 
ATOM     19  N   UNL     1       7.695   4.930  14.309  0.00  0.00    +0.000 NA
ATOM     20  N   UNL     1       7.479   4.939  15.635  0.00  0.00    +0.000 N 
ATOM     21  H   UNL     1       8.223   5.252  16.251  0.00  0.00    +0.000 HD
BRANCH  18  22
ATOM     22  C   UNL     1       6.328   4.133  12.337  0.00  0.00    +0.000 C 
ATOM     23  C   UNL     1       7.122   3.038  11.656  0.00  0.00    +0.000 C 
ATOM     24  C   UNL     1       5.684   2.810  11.971  0.00  0.00    +0.000 C 
ENDBRANCH  18  22
ENDBRANCH  15  16
ENDBRANCH   4  15
TORSDOF 5
ENDMDL
MODEL 3
REMARK VINA RESULT:      -7.4      1.028      1.552
REMARK  Name = 
REMARK  6 active torsions:
REMARK  status: ('A' for Active; 'I' for Inactive)
REMARK    1  A    between atoms: C_1  and  O_2
REMARK    2  A    between atoms: O_2  and  C_3
REMARK    3  A    between atoms: C_6  and  N_7
REMARK    4  A    between atoms: N_10  and  C_11
REMARK    5  A    between atoms: C_11  and  C_12
REMARK    6  A    between atoms: C_14  and  C_15
REMARK                            x       y       z     vdW  Elec       q    Type
REMARK                         _______ _______ _______ _____ _____    ______ ____
ROOT
ATOM      1  N   UNL     1       4.185   5.657  18.547  0.00  0.00    +0.000 N 
ATOM      2  C   UNL     1       4.348   5.881  17.102  0.00  0.00    +0.000 C 
ATOM      3  C   UNL     1       5.722   6.515  16.777  0.00  0.00    +0.000 C 
ATOM      4  N   UNL     1       6.892   5.816  17.370  0.00  0.00    +0.000 NA
ATOM      5  C   UNL     1       6.649   5.736  18.837  0.00  0.00    +0.000 C 
ATOM      6  C   UNL     1       5.324   5.051  19.253  0.00  0.00    +0.000 C 
ENDROOT
BRANCH   1  10
ATOM      7  C   UNL     1       1.081   7.462  20.764  0.00  0.00    +0.000 A 
ATOM      8  C   UNL     1       1.739   8.167  19.761  0.00  0.00    +0.000 A 
ATOM      9  C   UNL     1       2.756   7.557  19.017  0.00  0.00    +0.000 A 
ATOM     10  C   UNL     1       3.162   6.239  19.270  0.00  0.00    +0.000 A 
ATOM     11  C   UNL     1       2.497   5.556  20.296  0.00  0.00    +0.000 A 
ATOM     12  C   UNL     1       1.470   6.155  21.036  0.00  0.00    +0.000 A 
BRANCH   7  14
ATOM     13  C   UNL     1      -0.122   9.481  20.977  0.00  0.00    +0.000 C 
ATOM     14  O   UNL     1       0.109   8.152  21.433  0.00  0.00    +0.000 OA
ENDBRANCH   7  14
ENDBRANCH   1  10
BRANCH   4  15
ATOM     15  C   UNL     1       7.057   4.494  16.744  0.00  0.00    +0.000 C 
BRANCH  15  16
ATOM     16  C   UNL     1       7.026   4.567  15.263  0.00  0.00    +0.000 A 
ATOM     17  C   UNL     1       6.302   3.863  14.326  0.00  0.00    +0.000 A 
ATOM     18  C   UNL     1       6.786   4.321  13.089  0.00  0.00    +0.000 A 
ATOM     19  N   UNL     1       7.703   5.283  13.223  0.00  0.00    +0.000 NA
ATOM     20  N   UNL     1       7.830   5.415  14.554  0.00  0.00    +0.000 N 
ATOM     21  H   UNL     1       8.512   6.073  14.919  0.00  0.00    +0.000 HD
BRANCH  18  22
ATOM     22  C   UNL     1       6.335   3.743  11.758  0.00  0.00    +0.000 C 
ATOM     23  C   UNL     1       6.529   2.266  11.484  0.00  0.00    +0.000 C 
ATOM     24  C   UNL     1       5.161   2.783  11.766  0.00  0.00    +0.000 C 
ENDBRANCH  18  22
ENDBRANCH  15  16
ENDBRANCH   4  15
TORSDOF 5
ENDMDL
MODEL 4
REMARK VINA RESULT:      -7.3      1.308      1.559
REMARK  Name = 
REMARK  6 active torsions:
REMARK  status: ('A' for Active; 'I' for Inactive)
REMARK    1  A    between atoms: C_1  and  O_2
REMARK    2  A    between atoms: O_2  and  C_3
REMARK    3  A    between atoms: C_6  and  N_7
REMARK    4  A    between atoms: N_10  and  C_11
REMARK    5  A    between atoms: C_11  and  C_12
REMARK    6  A    between atoms: C_14  and  C_15
REMARK                            x       y       z     vdW  Elec       q    Type
REMARK                         _______ _______ _______ _____ _____    ______ ____
ROOT
ATOM      1  N   UNL     1       2.365   6.956  18.946  0.00  0.00    +0.000 N 
ATOM      2  C   UNL     1       3.183   7.200  17.749  0.00  0.00    +0.000 C 
ATOM      3  C   UNL     1       4.602   6.601  17.900  0.00  0.00    +0.000 C 
ATOM      4  N   UNL     1       4.640   5.177  18.322  0.00  0.00    +0.000 NA
ATOM      5  C   UNL     1       3.858   5.079  19.584  0.00  0.00    +0.000 C 
ATOM      6  C   UNL     1       2.401   5.595  19.504  0.00  0.00    +0.000 C 
ENDROOT
BRANCH   1  10
ATOM      7  C   UNL     1       0.690  10.080  21.236  0.00  0.00    +0.000 A 
ATOM      8  C   UNL     1       1.064   8.882  21.836  0.00  0.00    +0.000 A 
ATOM      9  C   UNL     1       1.635   7.856  21.074  0.00  0.00    +0.000 A 
ATOM     10  C   UNL     1       1.824   7.986  19.691  0.00  0.00    +0.000 A 
ATOM     11  C   UNL     1       1.424   9.194  19.107  0.00  0.00    +0.000 A 
ATOM     12  C   UNL     1       0.864  10.230  19.864  0.00  0.00    +0.000 A 
BRANCH   7  14
ATOM     13  C   UNL     1      -0.836  10.517  22.981  0.00  0.00    +0.000 C 
ATOM     14  O   UNL     1       0.136  11.013  22.068  0.00  0.00    +0.000 OA
ENDBRANCH   7  14
ENDBRANCH   1  10
BRANCH   4  15
ATOM     15  C   UNL     1       4.105   4.321  17.249  0.00  0.00    +0.000 C 
BRANCH  15  16
ATOM     16  C   UNL     1       5.026   4.232  16.091  0.00  0.00    +0.000 A 
ATOM     17  C   UNL     1       4.801   4.297  14.734  0.00  0.00    +0.000 A 
ATOM     18  C   UNL     1       6.056   4.048  14.154  0.00  0.00    +0.000 A 
ATOM     19  N   UNL     1       7.020   3.895  15.067  0.00  0.00    +0.000 NA
ATOM     20  N   UNL     1       6.368   4.012  16.236  0.00  0.00    +0.000 N 
ATOM     21  H   UNL     1       6.886   3.892  17.100  0.00  0.00    +0.000 HD
BRANCH  18  22
ATOM     22  C   UNL     1       6.267   3.927  12.654  0.00  0.00    +0.000 C 
ATOM     23  C   UNL     1       6.407   2.554  12.030  0.00  0.00    +0.000 C 
ATOM     24  C   UNL     1       5.146   3.322  11.830  0.00  0.00    +0.000 C 
ENDBRANCH  18  22
ENDBRANCH  15  16
ENDBRANCH   4  15
TORSDOF 5
ENDMDL
MODEL 5
REMARK VINA RESULT:      -7.3      1.910      3.144
REMARK  Name = 
REMARK  6 active torsions:
REMARK  status: ('A' for Active; 'I' for Inactive)
REMARK    1  A    between atoms: C_1  and  O_2
REMARK    2  A    between atoms: O_2  and  C_3
REMARK    3  A    between atoms: C_6  and  N_7
REMARK    4  A    between atoms: N_10  and  C_11
REMARK    5  A    between atoms: C_11  and  C_12
REMARK    6  A    between atoms: C_14  and  C_15
REMARK                            x       y       z     vdW  Elec       q    Type
REMARK                         _______ _______ _______ _____ _____    ______ ____
ROOT
ATOM      1  N   UNL     1       2.108   6.617  20.130  0.00  0.00    +0.000 N 
ATOM      2  C   UNL     1       1.787   5.353  20.810  0.00  0.00    +0.000 C 
ATOM      3  C   UNL     1       1.412   4.244  19.797  0.00  0.00    +0.000 C 
ATOM      4  N   UNL     1       2.383   4.052  18.688  0.00  0.00    +0.000 NA
ATOM      5  C   UNL     1       2.551   5.376  18.027  0.00  0.00    +0.000 C 
ATOM      6  C   UNL     1       2.993   6.531  18.958  0.00  0.00    +0.000 C 
ENDROOT
BRANCH   1  10
ATOM      7  C   UNL     1      -0.070  10.154  20.874  0.00  0.00    +0.000 A 
ATOM      8  C   UNL     1      -0.147   9.076  21.750  0.00  0.00    +0.000 A 
ATOM      9  C   UNL     1       0.591   7.912  21.507  0.00  0.00    +0.000 A 
ATOM     10  C   UNL     1       1.405   7.781  20.372  0.00  0.00    +0.000 A 
ATOM     11  C   UNL     1       1.452   8.873  19.497  0.00  0.00    +0.000 A 
ATOM     12  C   UNL     1       0.727  10.046  19.740  0.00  0.00    +0.000 A 
BRANCH   7  14
ATOM     13  C   UNL     1      -0.936  11.520  22.592  0.00  0.00    +0.000 C 
ATOM     14  O   UNL     1      -0.836  11.239  21.200  0.00  0.00    +0.000 OA
ENDBRANCH   7  14
ENDBRANCH   1  10
BRANCH   4  15
ATOM     15  C   UNL     1       3.647   3.512  19.216  0.00  0.00    +0.000 C 
BRANCH  15  16
ATOM     16  C   UNL     1       4.808   3.868  18.364  0.00  0.00    +0.000 A 
ATOM     17  C   UNL     1       4.966   3.896  16.996  0.00  0.00    +0.000 A 
ATOM     18  C   UNL     1       6.319   4.220  16.803  0.00  0.00    +0.000 A 
ATOM     19  N   UNL     1       6.962   4.440  17.953  0.00  0.00    +0.000 NA
ATOM     20  N   UNL     1       6.021   4.221  18.887  0.00  0.00    +0.000 N 
ATOM     21  H   UNL     1       6.277   4.289  19.867  0.00  0.00    +0.000 HD
BRANCH  18  22
ATOM     22  C   UNL     1       6.972   4.267  15.432  0.00  0.00    +0.000 C 
ATOM     23  C   UNL     1       6.184   3.826  14.216  0.00  0.00    +0.000 C 
ATOM     24  C   UNL     1       6.444   5.277  14.431  0.00  0.00    +0.000 C 
ENDBRANCH  18  22
ENDBRANCH  15  16
ENDBRANCH   4  15
TORSDOF 5
ENDMDL
MODEL 6
REMARK VINA RESULT:      -7.3      0.882      1.420
REMARK  Name = 
REMARK  6 active torsions:
REMARK  status: ('A' for Active; 'I' for Inactive)
REMARK    1  A    between atoms: C_1  and  O_2
REMARK    2  A    between atoms: O_2  and  C_3
REMARK    3  A    between atoms: C_6  and  N_7
REMARK    4  A    between atoms: N_10  and  C_11
REMARK    5  A    between atoms: C_11  and  C_12
REMARK    6  A    between atoms: C_14  and  C_15
REMARK                            x       y       z     vdW  Elec       q    Type
REMARK                         _______ _______ _______ _____ _____    ______ ____
ROOT
ATOM      1  N   UNL     1       3.928   6.555  18.428  0.00  0.00    +0.000 N 
ATOM      2  C   UNL     1       4.714   5.748  19.373  0.00  0.00    +0.000 C 
ATOM      3  C   UNL     1       4.599   4.236  19.061  0.00  0.00    +0.000 C 
ATOM      4  N   UNL     1       4.871   3.865  17.647  0.00  0.00    +0.000 NA
ATOM      5  C   UNL     1       3.954   4.679  16.803  0.00  0.00    +0.000 C 
ATOM      6  C   UNL     1       4.053   6.211  17.003  0.00  0.00    +0.000 C 
ENDROOT
BRANCH   1  10
ATOM      7  C   UNL     1       0.791   9.071  19.706  0.00  0.00    +0.000 A 
ATOM      8  C   UNL     1       1.253   8.044  20.522  0.00  0.00    +0.000 A 
ATOM      9  C   UNL     1       2.306   7.224  20.100  0.00  0.00    +0.000 A 
ATOM     10  C   UNL     1       2.908   7.388  18.843  0.00  0.00    +0.000 A 
ATOM     11  C   UNL     1       2.413   8.418  18.034  0.00  0.00    +0.000 A 
ATOM     12  C   UNL     1       1.369   9.250  18.454  0.00  0.00    +0.000 A 
BRANCH   7  14
ATOM     13  C   UNL     1      -0.931  10.623  19.267  0.00  0.00    +0.000 C 
ATOM     14  O   UNL     1      -0.244   9.809  20.210  0.00  0.00    +0.000 OA
ENDBRANCH   7  14
ENDBRANCH   1  10
BRANCH   4  15
ATOM     15  C   UNL     1       6.292   4.092  17.334  0.00  0.00    +0.000 C 
BRANCH  15  16
ATOM     16  C   UNL     1       6.517   4.311  15.884  0.00  0.00    +0.000 A 
ATOM     17  C   UNL     1       6.042   3.650  14.773  0.00  0.00    +0.000 A 
ATOM     18  C   UNL     1       6.691   4.266  13.690  0.00  0.00    +0.000 A 
ATOM     19  N   UNL     1       7.474   5.279  14.072  0.00  0.00    +0.000 NA
ATOM     20  N   UNL     1       7.350   5.286  15.410  0.00  0.00    +0.000 N 
ATOM     21  H   UNL     1       7.890   5.955  15.949  0.00  0.00    +0.000 HD
BRANCH  18  22
ATOM     22  C   UNL     1       6.541   3.790  12.255  0.00  0.00    +0.000 C 
ATOM     23  C   UNL     1       5.972   2.413  11.983  0.00  0.00    +0.000 C 
ATOM     24  C   UNL     1       5.136   3.616  11.711  0.00  0.00    +0.000 C 
ENDBRANCH  18  22
ENDBRANCH  15  16
ENDBRANCH   4  15
TORSDOF 5
ENDMDL
MODEL 7
REMARK VINA RESULT:      -7.2      1.820      3.237
REMARK  Name = 
REMARK  6 active torsions:
REMARK  status: ('A' for Active; 'I' for Inactive)
REMARK    1  A    between atoms: C_1  and  O_2
REMARK    2  A    between atoms: O_2  and  C_3
REMARK    3  A    between atoms: C_6  and  N_7
REMARK    4  A    between atoms: N_10  and  C_11
REMARK    5  A    between atoms: C_11  and  C_12
REMARK    6  A    between atoms: C_14  and  C_15
REMARK                            x       y       z     vdW  Elec       q    Type
REMARK                         _______ _______ _______ _____ _____    ______ ____
ROOT
ATOM      1  N   UNL     1       2.135   6.973  20.066  0.00  0.00    +0.000 N 
ATOM      2  C   UNL     1       1.913   5.754  20.859  0.00  0.00    +0.000 C 
ATOM      3  C   UNL     1       1.518   4.557  19.961  0.00  0.00    +0.000 C 
ATOM      4  N   UNL     1       2.420   4.316  18.804  0.00  0.00    +0.000 NA
ATOM      5  C   UNL     1       2.487   5.589  18.036  0.00  0.00    +0.000 C 
ATOM      6  C   UNL     1       2.942   6.829  18.845  0.00  0.00    +0.000 C 
ENDROOT
BRANCH   1  10
ATOM      7  C   UNL     1      -0.078  10.514  20.676  0.00  0.00    +0.000 A 
ATOM      8  C   UNL     1       0.614  10.306  19.487  0.00  0.00    +0.000 A 
ATOM      9  C   UNL     1       1.332   9.122  19.284  0.00  0.00    +0.000 A 
ATOM     10  C   UNL     1       1.401   8.126  20.269  0.00  0.00    +0.000 A 
ATOM     11  C   UNL     1       0.710   8.366  21.463  0.00  0.00    +0.000 A 
ATOM     12  C   UNL     1      -0.020   9.543  21.669  0.00  0.00    +0.000 A 
BRANCH   7  14
ATOM     13  C   UNL     1      -1.666  11.979  19.727  0.00  0.00    +0.000 C 
ATOM     14  O   UNL     1      -0.741  11.706  20.774  0.00  0.00    +0.000 OA
ENDBRANCH   7  14
ENDBRANCH   1  10
BRANCH   4  15
ATOM     15  C   UNL     1       3.738   3.865  19.281  0.00  0.00    +0.000 C 
BRANCH  15  16
ATOM     16  C   UNL     1       4.792   4.029  18.251  0.00  0.00    +0.000 A 
ATOM     17  C   UNL     1       4.806   3.752  16.902  0.00  0.00    +0.000 A 
ATOM     18  C   UNL     1       6.122   4.033  16.497  0.00  0.00    +0.000 A 
ATOM     19  N   UNL     1       6.874   4.507  17.494  0.00  0.00    +0.000 NA
ATOM     20  N   UNL     1       6.042   4.496  18.549  0.00  0.00    +0.000 N 
ATOM     21  H   UNL     1       6.397   4.781  19.456  0.00  0.00    +0.000 HD
BRANCH  18  22
ATOM     22  C   UNL     1       6.627   3.776  15.087  0.00  0.00    +0.000 C 
ATOM     23  C   UNL     1       5.741   4.115  13.905  0.00  0.00    +0.000 C 
ATOM     24  C   UNL     1       6.916   4.979  14.209  0.00  0.00    +0.000 C 
ENDBRANCH  18  22
ENDBRANCH  15  16
ENDBRANCH   4  15
TORSDOF 5
ENDMDL
MODEL 8
REMARK VINA RESULT:      -7.2      1.169      1.802
REMARK  Name = 
REMARK  6 active torsions:
REMARK  status: ('A' for Active; 'I' for Inactive)
REMARK    1  A    between atoms: C_1  and  O_2
REMARK    2  A    between atoms: O_2  and  C_3
REMARK    3  A    between atoms: C_6  and  N_7
REMARK    4  A    between atoms: N_10  and  C_11
REMARK    5  A    between atoms: C_11  and  C_12
REMARK    6  A    between atoms: C_14  and  C_15
REMARK                            x       y       z     vdW  Elec       q    Type
REMARK                         _______ _______ _______ _____ _____    ______ ____
ROOT
ATOM      1  N   UNL     1       2.408   7.172  18.900  0.00  0.00    +0.000 N 
ATOM      2  C   UNL     1       3.151   7.529  17.682  0.00  0.00    +0.000 C 
ATOM      3  C   UNL     1       4.649   7.154  17.801  0.00  0.00    +0.000 C 
ATOM      4  N   UNL     1       4.913   5.755  18.228  0.00  0.00    +0.000 NA
ATOM      5  C   UNL     1       4.185   5.550  19.510  0.00  0.00    +0.000 C 
ATOM      6  C   UNL     1       2.664   5.837  19.463  0.00  0.00    +0.000 C 
ENDROOT
BRANCH   1  10
ATOM      7  C   UNL     1       0.376  10.075  21.192  0.00  0.00    +0.000 A 
ATOM      8  C   UNL     1       0.731  10.334  19.872  0.00  0.00    +0.000 A 
ATOM      9  C   UNL     1       1.390   9.361  19.112  0.00  0.00    +0.000 A 
ATOM     10  C   UNL     1       1.735   8.114  19.654  0.00  0.00    +0.000 A 
ATOM     11  C   UNL     1       1.382   7.883  20.989  0.00  0.00    +0.000 A 
ATOM     12  C   UNL     1       0.712   8.847  21.752  0.00  0.00    +0.000 A 
BRANCH   7  14
ATOM     13  C   UNL     1      -0.904  10.731  23.062  0.00  0.00    +0.000 C 
ATOM     14  O   UNL     1      -0.258  11.094  21.847  0.00  0.00    +0.000 OA
ENDBRANCH   7  14
ENDBRANCH   1  10
BRANCH   4  15
ATOM     15  C   UNL     1       4.489   4.819  17.173  0.00  0.00    +0.000 C 
BRANCH  15  16
ATOM     16  C   UNL     1       5.466   4.750  16.060  0.00  0.00    +0.000 A 
ATOM     17  C   UNL     1       5.435   4.086  14.853  0.00  0.00    +0.000 A 
ATOM     18  C   UNL     1       6.694   4.335  14.280  0.00  0.00    +0.000 A 
ATOM     19  N   UNL     1       7.448   5.141  15.032  0.00  0.00    +0.000 NA
ATOM     20  N   UNL     1       6.678   5.381  16.107  0.00  0.00    +0.000 N 
ATOM     21  H   UNL     1       7.051   5.951  16.860  0.00  0.00    +0.000 HD
BRANCH  18  22
ATOM     22  C   UNL     1       7.146   3.709  12.971  0.00  0.00    +0.000 C 
ATOM     23  C   UNL     1       6.111   3.314  11.939  0.00  0.00    +0.000 C 
ATOM     24  C   UNL     1       6.957   4.516  11.701  0.00  0.00    +0.000 C 
ENDBRANCH  18  22
ENDBRANCH  15  16
ENDBRANCH   4  15
TORSDOF 5
ENDMDL
MODEL 9
REMARK VINA RESULT:      -7.1      1.364      1.814
REMARK  Name = 
REMARK  6 active torsions:
REMARK  status: ('A' for Active; 'I' for Inactive)
REMARK    1  A    between atoms: C_1  and  O_2
REMARK    2  A    between atoms: O_2  and  C_3
REMARK    3  A    between atoms: C_6  and  N_7
REMARK    4  A    between atoms: N_10  and  C_11
REMARK    5  A    between atoms: C_11  and  C_12
REMARK    6  A    between atoms: C_14  and  C_15
REMARK                            x       y       z     vdW  Elec       q    Type
REMARK                         _______ _______ _______ _____ _____    ______ ____
ROOT
ATOM      1  N   UNL     1       2.579   6.767  18.786  0.00  0.00    +0.000 N 
ATOM      2  C   UNL     1       3.541   6.844  17.677  0.00  0.00    +0.000 C 
ATOM      3  C   UNL     1       4.925   6.285  18.087  0.00  0.00    +0.000 C 
ATOM      4  N   UNL     1       4.897   4.936  18.711  0.00  0.00    +0.000 NA
ATOM      5  C   UNL     1       3.964   5.015  19.868  0.00  0.00    +0.000 C 
ATOM      6  C   UNL     1       2.532   5.501  19.534  0.00  0.00    +0.000 C 
ENDROOT
BRANCH   1  10
ATOM      7  C   UNL     1       0.716  10.216  20.350  0.00  0.00    +0.000 A 
ATOM      8  C   UNL     1       1.128  10.173  19.022  0.00  0.00    +0.000 A 
ATOM      9  C   UNL     1       1.729   9.020  18.504  0.00  0.00    +0.000 A 
ATOM     10  C   UNL     1       1.960   7.890  19.302  0.00  0.00    +0.000 A 
ATOM     11  C   UNL     1       1.552   7.964  20.640  0.00  0.00    +0.000 A 
ATOM     12  C   UNL     1       0.938   9.109  21.162  0.00  0.00    +0.000 A 
BRANCH   7  14
ATOM     13  C   UNL     1       0.935  12.557  20.548  0.00  0.00    +0.000 C 
ATOM     14  O   UNL     1       0.146  11.391  20.756  0.00  0.00    +0.000 OA
ENDBRANCH   7  14
ENDBRANCH   1  10
BRANCH   4  15
ATOM     15  C   UNL     1       4.490   3.931  17.715  0.00  0.00    +0.000 C 
BRANCH  15  16
ATOM     16  C   UNL     1       5.235   4.071  16.440  0.00  0.00    +0.000 A 
ATOM     17  C   UNL     1       4.806   4.258  15.144  0.00  0.00    +0.000 A 
ATOM     18  C   UNL     1       5.981   4.216  14.374  0.00  0.00    +0.000 A 
ATOM     19  N   UNL     1       7.078   4.073  15.122  0.00  0.00    +0.000 NA
ATOM     20  N   UNL     1       6.598   3.989  16.374  0.00  0.00    +0.000 N 
ATOM     21  H   UNL     1       7.247   3.835  17.139  0.00  0.00    +0.000 HD
BRANCH  18  22
ATOM     22  C   UNL     1       5.978   4.283  12.856  0.00  0.00    +0.000 C 
ATOM     23  C   UNL     1       7.084   3.600  12.079  0.00  0.00    +0.000 C 
ATOM     24  C   UNL     1       5.722   2.997  12.093  0.00  0.00    +0.000 C 
ENDBRANCH  18  22
ENDBRANCH  15  16
ENDBRANCH   4  15
TORSDOF 5
ENDMDL
