MODEL 1
REMARK VINA RESULT:      -6.9      0.000      0.000
REMARK  Name = 
REMARK  5 active torsions:
REMARK  status: ('A' for Active; 'I' for Inactive)
REMARK    1  A    between atoms: C_1  and  C_2
REMARK    2  A    between atoms: C_2  and  O_3
REMARK    3  A    between atoms: O_3  and  C_4
REMARK    4  A    between atoms: C_4  and  C_6
REMARK    5  A    between atoms: C_11  and  C_12
REMARK                            x       y       z     vdW  Elec       q    Type
REMARK                         _______ _______ _______ _____ _____    ______ ____
ROOT
ATOM      1  C   UNL     1       6.162   5.864  17.070  0.00  0.00    +0.000 C 
ATOM      2  C   UNL     1       7.218   4.812  17.279  0.00  0.00    +0.000 C 
ATOM      3  O   UNL     1       8.024   4.395  16.466  0.00  0.00    +0.000 OA
ATOM      4  N   UNL     1       7.202   4.454  18.611  0.00  0.00    +0.000 N 
ATOM      5  C   UNL     1       6.238   5.199  19.365  0.00  0.00    +0.000 C 
ATOM      6  C   UNL     1       5.257   5.726  18.307  0.00  0.00    +0.000 C 
ATOM      7  H   UNL     1       7.894   3.814  18.985  0.00  0.00    +0.000 HD
ENDROOT
BRANCH   6   8
ATOM      8  C   UNL     1       4.039   4.827  18.162  0.00  0.00    +0.000 A 
ATOM      9  C   UNL     1       2.782   5.407  17.926  0.00  0.00    +0.000 A 
ATOM     10  C   UNL     1       1.645   4.610  17.772  0.00  0.00    +0.000 A 
ATOM     11  C   UNL     1       1.748   3.223  17.850  0.00  0.00    +0.000 A 
ATOM     12  C   UNL     1       2.984   2.633  18.090  0.00  0.00    +0.000 A 
ATOM     13  C   UNL     1       4.121   3.429  18.250  0.00  0.00    +0.000 A 
ENDBRANCH   6   8
BRANCH   1  14
ATOM     14  C   UNL     1       5.478   5.800  15.736  0.00  0.00    +0.000 C 
ATOM     15  O   UNL     1       5.036   6.748  15.105  0.00  0.00    +0.000 OA
BRANCH  14  16
ATOM     16  O   UNL     1       5.355   4.490  15.364  0.00  0.00    +0.000 OA
BRANCH  16  18
ATOM     17  C   UNL     1       6.569   3.957  13.367  0.00  0.00    +0.000 C 
ATOM     18  C   UNL     1       5.205   4.281  13.953  0.00  0.00    +0.000 C 
ENDBRANCH  16  18
ENDBRANCH  14  16
ENDBRANCH   1  14
TORSDOF 4
ENDMDL
MODEL 2
REMARK VINA RESULT:      -6.8      0.087      1.170
REMARK  Name = 
REMARK  5 active torsions:
REMARK  status: ('A' for Active; 'I' for Inactive)
REMARK    1  A    between atoms: C_1  and  C_2
REMARK    2  A    between atoms: C_2  and  O_3
REMARK    3  A    between atoms: O_3  and  C_4
REMARK    4  A    between atoms: C_4  and  C_6
REMARK    5  A    between atoms: C_11  and  C_12
REMARK                            x       y       z     vdW  Elec       q    Type
REMARK                         _______ _______ _______ _____ _____    ______ ____
ROOT
ATOM      1  C   UNL     1       6.155   5.860  17.062  0.00  0.00    +0.000 C 
ATOM      2  C   UNL     1       7.212   4.812  17.283  0.00  0.00    +0.000 C 
ATOM      3  O   UNL     1       8.025   4.393  16.478  0.00  0.00    +0.000 OA
ATOM      4  N   UNL     1       7.188   4.459  18.617  0.00  0.00    +0.000 N 
ATOM      5  C   UNL     1       6.216   5.206  19.360  0.00  0.00    +0.000 C 
ATOM      6  C   UNL     1       5.241   5.726  18.293  0.00  0.00    +0.000 C 
ATOM      7  H   UNL     1       7.879   3.823  18.998  0.00  0.00    +0.000 HD
ENDROOT
BRANCH   6   8
ATOM      8  C   UNL     1       4.027   4.823  18.143  0.00  0.00    +0.000 A 
ATOM      9  C   UNL     1       4.176   3.437  18.312  0.00  0.00    +0.000 A 
ATOM     10  C   UNL     1       3.079   2.581  18.196  0.00  0.00    +0.000 A 
ATOM     11  C   UNL     1       1.817   3.096  17.911  0.00  0.00    +0.000 A 
ATOM     12  C   UNL     1       1.653   4.466  17.734  0.00  0.00    +0.000 A 
ATOM     13  C   UNL     1       2.750   5.323  17.844  0.00  0.00    +0.000 A 
ENDBRANCH   6   8
BRANCH   1  14
ATOM     14  C   UNL     1       5.481   5.788  15.724  0.00  0.00    +0.000 C 
ATOM     15  O   UNL     1       5.054   6.733  15.079  0.00  0.00    +0.000 OA
BRANCH  14  16
ATOM     16  O   UNL     1       5.347   4.475  15.364  0.00  0.00    +0.000 OA
BRANCH  16  18
ATOM     17  C   UNL     1       6.664   4.098  13.396  0.00  0.00    +0.000 C 
ATOM     18  C   UNL     1       5.256   4.248  13.951  0.00  0.00    +0.000 C 
ENDBRANCH  16  18
ENDBRANCH  14  16
ENDBRANCH   1  14
TORSDOF 4
ENDMDL
MODEL 3
REMARK VINA RESULT:      -6.6      1.615      2.150
REMARK  Name = 
REMARK  5 active torsions:
REMARK  status: ('A' for Active; 'I' for Inactive)
REMARK    1  A    between atoms: C_1  and  C_2
REMARK    2  A    between atoms: C_2  and  O_3
REMARK    3  A    between atoms: O_3  and  C_4
REMARK    4  A    between atoms: C_4  and  C_6
REMARK    5  A    between atoms: C_11  and  C_12
REMARK                            x       y       z     vdW  Elec       q    Type
REMARK                         _______ _______ _______ _____ _____    ______ ____
ROOT
ATOM      1  C   UNL     1       5.334   5.614  15.804  0.00  0.00    +0.000 C 
ATOM      2  C   UNL     1       6.443   6.235  16.612  0.00  0.00    +0.000 C 
ATOM      3  O   UNL     1       7.632   6.254  16.350  0.00  0.00    +0.000 OA
ATOM      4  N   UNL     1       5.872   6.894  17.680  0.00  0.00    +0.000 N 
ATOM      5  C   UNL     1       4.441   6.814  17.668  0.00  0.00    +0.000 C 
ATOM      6  C   UNL     1       4.137   5.605  16.771  0.00  0.00    +0.000 C 
ATOM      7  H   UNL     1       6.438   7.452  18.308  0.00  0.00    +0.000 HD
ENDROOT
BRANCH   6   8
ATOM      8  C   UNL     1       3.925   4.335  17.578  0.00  0.00    +0.000 A 
ATOM      9  C   UNL     1       2.968   3.400  17.151  0.00  0.00    +0.000 A 
ATOM     10  C   UNL     1       2.759   2.216  17.860  0.00  0.00    +0.000 A 
ATOM     11  C   UNL     1       3.503   1.947  19.007  0.00  0.00    +0.000 A 
ATOM     12  C   UNL     1       4.450   2.865  19.448  0.00  0.00    +0.000 A 
ATOM     13  C   UNL     1       4.657   4.052  18.743  0.00  0.00    +0.000 A 
ENDBRANCH   6   8
BRANCH   1  14
ATOM     14  C   UNL     1       5.688   4.301  15.172  0.00  0.00    +0.000 C 
ATOM     15  O   UNL     1       6.348   3.408  15.682  0.00  0.00    +0.000 OA
BRANCH  14  16
ATOM     16  O   UNL     1       5.216   4.284  13.889  0.00  0.00    +0.000 OA
BRANCH  16  18
ATOM     17  C   UNL     1       5.184   3.108  11.800  0.00  0.00    +0.000 C 
ATOM     18  C   UNL     1       6.051   3.587  12.953  0.00  0.00    +0.000 C 
ENDBRANCH  16  18
ENDBRANCH  14  16
ENDBRANCH   1  14
TORSDOF 4
ENDMDL
MODEL 4
REMARK VINA RESULT:      -6.5      2.686      4.938
REMARK  Name = 
REMARK  5 active torsions:
REMARK  status: ('A' for Active; 'I' for Inactive)
REMARK    1  A    between atoms: C_1  and  C_2
REMARK    2  A    between atoms: C_2  and  O_3
REMARK    3  A    between atoms: O_3  and  C_4
REMARK    4  A    between atoms: C_4  and  C_6
REMARK    5  A    between atoms: C_11  and  C_12
REMARK                            x       y       z     vdW  Elec       q    Type
REMARK                         _______ _______ _______ _____ _____    ______ ____
ROOT
ATOM      1  C   UNL     1       3.396   4.874  17.585  0.00  0.00    +0.000 C 
ATOM      2  C   UNL     1       3.518   3.508  18.205  0.00  0.00    +0.000 C 
ATOM      3  O   UNL     1       2.864   3.048  19.125  0.00  0.00    +0.000 OA
ATOM      4  N   UNL     1       4.444   2.791  17.477  0.00  0.00    +0.000 N 
ATOM      5  C   UNL     1       4.961   3.538  16.368  0.00  0.00    +0.000 C 
ATOM      6  C   UNL     1       4.669   5.002  16.728  0.00  0.00    +0.000 C 
ATOM      7  H   UNL     1       4.617   1.813  17.677  0.00  0.00    +0.000 HD
ENDROOT
BRANCH   6   8
ATOM      8  C   UNL     1       5.864   5.677  17.383  0.00  0.00    +0.000 A 
ATOM      9  C   UNL     1       6.247   6.960  16.959  0.00  0.00    +0.000 A 
ATOM     10  C   UNL     1       7.329   7.614  17.550  0.00  0.00    +0.000 A 
ATOM     11  C   UNL     1       8.046   6.998  18.573  0.00  0.00    +0.000 A 
ATOM     12  C   UNL     1       7.685   5.724  19.000  0.00  0.00    +0.000 A 
ATOM     13  C   UNL     1       6.605   5.066  18.407  0.00  0.00    +0.000 A 
ENDBRANCH   6   8
BRANCH   1  14
ATOM     14  C   UNL     1       3.142   5.980  18.566  0.00  0.00    +0.000 C 
ATOM     15  O   UNL     1       3.578   6.051  19.704  0.00  0.00    +0.000 OA
BRANCH  14  16
ATOM     16  O   UNL     1       2.270   6.875  18.009  0.00  0.00    +0.000 OA
BRANCH  16  18
ATOM     17  C   UNL     1       1.650   9.190  17.943  0.00  0.00    +0.000 C 
ATOM     18  C   UNL     1       2.797   8.198  17.841  0.00  0.00    +0.000 C 
ENDBRANCH  16  18
ENDBRANCH  14  16
ENDBRANCH   1  14
TORSDOF 4
ENDMDL
MODEL 5
REMARK VINA RESULT:      -6.5      2.567      4.501
REMARK  Name = 
REMARK  5 active torsions:
REMARK  status: ('A' for Active; 'I' for Inactive)
REMARK    1  A    between atoms: C_1  and  C_2
REMARK    2  A    between atoms: C_2  and  O_3
REMARK    3  A    between atoms: O_3  and  C_4
REMARK    4  A    between atoms: C_4  and  C_6
REMARK    5  A    between atoms: C_11  and  C_12
REMARK                            x       y       z     vdW  Elec       q    Type
REMARK                         _______ _______ _______ _____ _____    ______ ____
ROOT
ATOM      1  C   UNL     1       3.661   3.648  19.128  0.00  0.00    +0.000 C 
ATOM      2  C   UNL     1       4.287   2.306  19.395  0.00  0.00    +0.000 C 
ATOM      3  O   UNL     1       4.921   1.963  20.377  0.00  0.00    +0.000 OA
ATOM      4  N   UNL     1       3.930   1.458  18.367  0.00  0.00    +0.000 N 
ATOM      5  C   UNL     1       3.071   2.093  17.411  0.00  0.00    +0.000 C 
ATOM      6  C   UNL     1       3.303   3.595  17.631  0.00  0.00    +0.000 C 
ATOM      7  H   UNL     1       4.180   0.476  18.393  0.00  0.00    +0.000 HD
ENDROOT
BRANCH   6   8
ATOM      8  C   UNL     1       4.333   4.159  16.666  0.00  0.00    +0.000 A 
ATOM      9  C   UNL     1       5.204   3.281  16.000  0.00  0.00    +0.000 A 
ATOM     10  C   UNL     1       6.152   3.764  15.096  0.00  0.00    +0.000 A 
ATOM     11  C   UNL     1       6.243   5.130  14.842  0.00  0.00    +0.000 A 
ATOM     12  C   UNL     1       5.394   6.015  15.498  0.00  0.00    +0.000 A 
ATOM     13  C   UNL     1       4.449   5.534  16.407  0.00  0.00    +0.000 A 
ENDBRANCH   6   8
BRANCH   1  14
ATOM     14  C   UNL     1       4.488   4.818  19.571  0.00  0.00    +0.000 C 
ATOM     15  O   UNL     1       4.074   5.933  19.846  0.00  0.00    +0.000 OA
BRANCH  14  16
ATOM     16  O   UNL     1       5.809   4.462  19.548  0.00  0.00    +0.000 OA
BRANCH  16  18
ATOM     17  C   UNL     1       7.731   5.062  18.247  0.00  0.00    +0.000 C 
ATOM     18  C   UNL     1       6.714   5.539  19.271  0.00  0.00    +0.000 C 
ENDBRANCH  16  18
ENDBRANCH  14  16
ENDBRANCH   1  14
TORSDOF 4
ENDMDL
MODEL 6
REMARK VINA RESULT:      -6.5      1.619      2.236
REMARK  Name = 
REMARK  5 active torsions:
REMARK  status: ('A' for Active; 'I' for Inactive)
REMARK    1  A    between atoms: C_1  and  C_2
REMARK    2  A    between atoms: C_2  and  O_3
REMARK    3  A    between atoms: O_3  and  C_4
REMARK    4  A    between atoms: C_4  and  C_6
REMARK    5  A    between atoms: C_11  and  C_12
REMARK                            x       y       z     vdW  Elec       q    Type
REMARK                         _______ _______ _______ _____ _____    ______ ____
ROOT
ATOM      1  C   UNL     1       5.361   5.615  15.766  0.00  0.00    +0.000 C 
ATOM      2  C   UNL     1       6.471   6.223  16.580  0.00  0.00    +0.000 C 
ATOM      3  O   UNL     1       7.662   6.238  16.320  0.00  0.00    +0.000 OA
ATOM      4  N   UNL     1       5.903   6.878  17.653  0.00  0.00    +0.000 N 
ATOM      5  C   UNL     1       4.471   6.806  17.638  0.00  0.00    +0.000 C 
ATOM      6  C   UNL     1       4.162   5.606  16.732  0.00  0.00    +0.000 C 
ATOM      7  H   UNL     1       6.471   7.428  18.286  0.00  0.00    +0.000 HD
ENDROOT
BRANCH   6   8
ATOM      8  C   UNL     1       3.942   4.330  17.530  0.00  0.00    +0.000 A 
ATOM      9  C   UNL     1       4.690   4.114  18.698  0.00  0.00    +0.000 A 
ATOM     10  C   UNL     1       4.502   2.961  19.463  0.00  0.00    +0.000 A 
ATOM     11  C   UNL     1       3.564   2.008  19.074  0.00  0.00    +0.000 A 
ATOM     12  C   UNL     1       2.819   2.204  17.915  0.00  0.00    +0.000 A 
ATOM     13  C   UNL     1       3.009   3.353  17.146  0.00  0.00    +0.000 A 
ENDBRANCH   6   8
BRANCH   1  14
ATOM     14  C   UNL     1       5.708   4.304  15.126  0.00  0.00    +0.000 C 
ATOM     15  O   UNL     1       6.380   3.413  15.622  0.00  0.00    +0.000 OA
BRANCH  14  16
ATOM     16  O   UNL     1       5.214   4.288  13.851  0.00  0.00    +0.000 OA
BRANCH  16  18
ATOM     17  C   UNL     1       5.103   3.101  11.771  0.00  0.00    +0.000 C 
ATOM     18  C   UNL     1       6.004   3.546  12.912  0.00  0.00    +0.000 C 
ENDBRANCH  16  18
ENDBRANCH  14  16
ENDBRANCH   1  14
TORSDOF 4
ENDMDL
MODEL 7
REMARK VINA RESULT:      -6.4      2.699      5.123
REMARK  Name = 
REMARK  5 active torsions:
REMARK  status: ('A' for Active; 'I' for Inactive)
REMARK    1  A    between atoms: C_1  and  C_2
REMARK    2  A    between atoms: C_2  and  O_3
REMARK    3  A    between atoms: O_3  and  C_4
REMARK    4  A    between atoms: C_4  and  C_6
REMARK    5  A    between atoms: C_11  and  C_12
REMARK                            x       y       z     vdW  Elec       q    Type
REMARK                         _______ _______ _______ _____ _____    ______ ____
ROOT
ATOM      1  C   UNL     1       3.447   4.988  17.603  0.00  0.00    +0.000 C 
ATOM      2  C   UNL     1       3.573   3.624  18.227  0.00  0.00    +0.000 C 
ATOM      3  O   UNL     1       2.920   3.165  19.148  0.00  0.00    +0.000 OA
ATOM      4  N   UNL     1       4.502   2.909  17.502  0.00  0.00    +0.000 N 
ATOM      5  C   UNL     1       5.017   3.654  16.391  0.00  0.00    +0.000 C 
ATOM      6  C   UNL     1       4.720   5.118  16.747  0.00  0.00    +0.000 C 
ATOM      7  H   UNL     1       4.678   1.932  17.705  0.00  0.00    +0.000 HD
ENDROOT
BRANCH   6   8
ATOM      8  C   UNL     1       5.912   5.798  17.401  0.00  0.00    +0.000 A 
ATOM      9  C   UNL     1       6.607   5.133  18.424  0.00  0.00    +0.000 A 
ATOM     10  C   UNL     1       7.715   5.723  19.035  0.00  0.00    +0.000 A 
ATOM     11  C   UNL     1       8.147   6.985  18.633  0.00  0.00    +0.000 A 
ATOM     12  C   UNL     1       7.466   7.661  17.626  0.00  0.00    +0.000 A 
ATOM     13  C   UNL     1       6.354   7.075  17.017  0.00  0.00    +0.000 A 
ENDBRANCH   6   8
BRANCH   1  14
ATOM     14  C   UNL     1       3.188   6.096  18.580  0.00  0.00    +0.000 C 
ATOM     15  O   UNL     1       3.308   6.031  19.794  0.00  0.00    +0.000 OA
BRANCH  14  16
ATOM     16  O   UNL     1       2.716   7.185  17.901  0.00  0.00    +0.000 OA
BRANCH  16  18
ATOM     17  C   UNL     1       1.785   9.394  17.861  0.00  0.00    +0.000 C 
ATOM     18  C   UNL     1       2.104   8.186  18.726  0.00  0.00    +0.000 C 
ENDBRANCH  16  18
ENDBRANCH  14  16
ENDBRANCH   1  14
TORSDOF 4
ENDMDL
MODEL 8
REMARK VINA RESULT:      -6.4      2.161      3.764
REMARK  Name = 
REMARK  5 active torsions:
REMARK  status: ('A' for Active; 'I' for Inactive)
REMARK    1  A    between atoms: C_1  and  C_2
REMARK    2  A    between atoms: C_2  and  O_3
REMARK    3  A    between atoms: O_3  and  C_4
REMARK    4  A    between atoms: C_4  and  C_6
REMARK    5  A    between atoms: C_11  and  C_12
REMARK                            x       y       z     vdW  Elec       q    Type
REMARK                         _______ _______ _______ _____ _____    ______ ____
ROOT
ATOM      1  C   UNL     1       6.848   4.240  16.217  0.00  0.00    +0.000 C 
ATOM      2  C   UNL     1       6.992   4.979  14.913  0.00  0.00    +0.000 C 
ATOM      3  O   UNL     1       7.966   5.590  14.508  0.00  0.00    +0.000 OA
ATOM      4  N   UNL     1       5.849   4.762  14.173  0.00  0.00    +0.000 N 
ATOM      5  C   UNL     1       4.922   3.898  14.842  0.00  0.00    +0.000 C 
ATOM      6  C   UNL     1       5.335   3.971  16.320  0.00  0.00    +0.000 C 
ATOM      7  H   UNL     1       5.773   5.105  13.222  0.00  0.00    +0.000 HD
ENDROOT
BRANCH   6   8
ATOM      8  C   UNL     1       4.514   4.992  17.091  0.00  0.00    +0.000 A 
ATOM      9  C   UNL     1       3.756   4.570  18.195  0.00  0.00    +0.000 A 
ATOM     10  C   UNL     1       3.002   5.484  18.935  0.00  0.00    +0.000 A 
ATOM     11  C   UNL     1       2.996   6.832  18.584  0.00  0.00    +0.000 A 
ATOM     12  C   UNL     1       3.736   7.265  17.489  0.00  0.00    +0.000 A 
ATOM     13  C   UNL     1       4.486   6.352  16.745  0.00  0.00    +0.000 A 
ENDBRANCH   6   8
BRANCH   1  14
ATOM     14  C   UNL     1       7.482   4.925  17.391  0.00  0.00    +0.000 C 
ATOM     15  O   UNL     1       7.723   4.421  18.477  0.00  0.00    +0.000 OA
BRANCH  14  16
ATOM     16  O   UNL     1       7.682   6.242  17.082  0.00  0.00    +0.000 OA
BRANCH  16  18
ATOM     17  C   UNL     1       7.894   8.541  17.729  0.00  0.00    +0.000 C 
ATOM     18  C   UNL     1       7.868   7.101  18.215  0.00  0.00    +0.000 C 
ENDBRANCH  16  18
ENDBRANCH  14  16
ENDBRANCH   1  14
TORSDOF 4
ENDMDL
MODEL 9
REMARK VINA RESULT:      -6.4      1.066      1.767
REMARK  Name = 
REMARK  5 active torsions:
REMARK  status: ('A' for Active; 'I' for Inactive)
REMARK    1  A    between atoms: C_1  and  C_2
REMARK    2  A    between atoms: C_2  and  O_3
REMARK    3  A    between atoms: O_3  and  C_4
REMARK    4  A    between atoms: C_4  and  C_6
REMARK    5  A    between atoms: C_11  and  C_12
REMARK                            x       y       z     vdW  Elec       q    Type
REMARK                         _______ _______ _______ _____ _____    ______ ____
ROOT
ATOM      1  C   UNL     1       6.105   5.118  16.908  0.00  0.00    +0.000 C 
ATOM      2  C   UNL     1       7.256   4.667  17.766  0.00  0.00    +0.000 C 
ATOM      3  O   UNL     1       8.291   4.135  17.403  0.00  0.00    +0.000 OA
ATOM      4  N   UNL     1       6.997   5.056  19.064  0.00  0.00    +0.000 N 
ATOM      5  C   UNL     1       5.765   5.779  19.180  0.00  0.00    +0.000 C 
ATOM      6  C   UNL     1       4.977   5.389  17.920  0.00  0.00    +0.000 C 
ATOM      7  H   UNL     1       7.688   4.922  19.794  0.00  0.00    +0.000 HD
ENDROOT
BRANCH   6   8
ATOM      8  C   UNL     1       4.011   4.246  18.184  0.00  0.00    +0.000 A 
ATOM      9  C   UNL     1       4.379   3.227  19.077  0.00  0.00    +0.000 A 
ATOM     10  C   UNL     1       3.510   2.170  19.354  0.00  0.00    +0.000 A 
ATOM     11  C   UNL     1       2.259   2.115  18.743  0.00  0.00    +0.000 A 
ATOM     12  C   UNL     1       1.881   3.112  17.850  0.00  0.00    +0.000 A 
ATOM     13  C   UNL     1       2.751   4.167  17.568  0.00  0.00    +0.000 A 
ENDBRANCH   6   8
BRANCH   1  14
ATOM     14  C   UNL     1       5.773   4.190  15.777  0.00  0.00    +0.000 C 
ATOM     15  O   UNL     1       5.614   2.982  15.857  0.00  0.00    +0.000 OA
BRANCH  14  16
ATOM     16  O   UNL     1       5.751   4.903  14.610  0.00  0.00    +0.000 OA
BRANCH  16  18
ATOM     17  C   UNL     1       6.227   3.649  12.623  0.00  0.00    +0.000 C 
ATOM     18  C   UNL     1       6.798   4.572  13.687  0.00  0.00    +0.000 C 
ENDBRANCH  16  18
ENDBRANCH  14  16
ENDBRANCH   1  14
TORSDOF 4
ENDMDL
