MODEL 1
REMARK VINA RESULT:      -8.2      0.000      0.000
REMARK  Name = 
REMARK  2 active torsions:
REMARK  status: ('A' for Active; 'I' for Inactive)
REMARK    1  A    between atoms: C_2  and  C_18
REMARK    2  A    between atoms: N_3  and  C_4
REMARK                            x       y       z     vdW  Elec       q    Type
REMARK                         _______ _______ _______ _____ _____    ______ ____
ROOT
ATOM      1  C   UNL     1       6.718   6.410  16.565  0.00  0.00    +0.000 A 
ATOM      2  N   UNL     1       7.345   5.863  15.503  0.00  0.00    +0.000 NA
ATOM      3  C   UNL     1       7.066   4.585  15.160  0.00  0.00    +0.000 A 
ATOM      4  C   UNL     1       6.096   3.792  15.753  0.00  0.00    +0.000 A 
ATOM      5  C   UNL     1       5.345   4.392  16.776  0.00  0.00    +0.000 A 
ATOM      6  C   UNL     1       5.692   5.680  17.180  0.00  0.00    +0.000 A 
ATOM      7  N   UNL     1       4.826   6.013  18.197  0.00  0.00    +0.000 N 
ATOM      8  C   UNL     1       3.885   5.038  18.400  0.00  0.00    +0.000 A 
ATOM      9  C   UNL     1       2.784   5.009  19.263  0.00  0.00    +0.000 A 
ATOM     10  C   UNL     1       1.991   3.858  19.254  0.00  0.00    +0.000 A 
ATOM     11 CL   UNL     1       0.607   3.779  20.278  0.00  0.00    +0.000 Cl
ATOM     12  C   UNL     1       2.294   2.776  18.429  0.00  0.00    +0.000 A 
ATOM     13  C   UNL     1       3.402   2.827  17.574  0.00  0.00    +0.000 A 
ATOM     14  C   UNL     1       4.212   3.982  17.542  0.00  0.00    +0.000 A 
ATOM     15  H   UNL     1       4.887   6.882  18.714  0.00  0.00    +0.000 HD
ENDROOT
BRANCH   1  18
ATOM     16  O   UNL     1       8.444   7.207  18.718  0.00  0.00    +0.000 OA
ATOM     17  C   UNL     1       7.909   8.011  17.967  0.00  0.00    +0.000 C 
ATOM     18  N   UNL     1       7.098   7.704  16.906  0.00  0.00    +0.000 N 
ATOM     19  H   UNL     1       7.006   8.371  16.154  0.00  0.00    +0.000 HD
BRANCH  17  20
ATOM     20  C   UNL     1       8.118   9.474  18.166  0.00  0.00    +0.000 C 
ATOM     21  C   UNL     1       9.063   9.931  19.256  0.00  0.00    +0.000 C 
ATOM     22  C   UNL     1       9.419  10.153  17.817  0.00  0.00    +0.000 C 
ENDBRANCH  17  20
ENDBRANCH   1  18
TORSDOF 2
ENDMDL
MODEL 2
REMARK VINA RESULT:      -7.8      3.565      6.028
REMARK  Name = 
REMARK  2 active torsions:
REMARK  status: ('A' for Active; 'I' for Inactive)
REMARK    1  A    between atoms: C_2  and  C_18
REMARK    2  A    between atoms: N_3  and  C_4
REMARK                            x       y       z     vdW  Elec       q    Type
REMARK                         _______ _______ _______ _____ _____    ______ ____
ROOT
ATOM      1  C   UNL     1       5.332   4.702  19.138  0.00  0.00    +0.000 A 
ATOM      2  N   UNL     1       6.277   5.365  19.837  0.00  0.00    +0.000 NA
ATOM      3  C   UNL     1       7.454   5.658  19.238  0.00  0.00    +0.000 A 
ATOM      4  C   UNL     1       7.753   5.422  17.906  0.00  0.00    +0.000 A 
ATOM      5  C   UNL     1       6.731   4.851  17.132  0.00  0.00    +0.000 A 
ATOM      6  C   UNL     1       5.551   4.476  17.772  0.00  0.00    +0.000 A 
ATOM      7  N   UNL     1       4.742   3.928  16.803  0.00  0.00    +0.000 N 
ATOM      8  C   UNL     1       5.310   4.019  15.560  0.00  0.00    +0.000 A 
ATOM      9  C   UNL     1       4.801   3.667  14.304  0.00  0.00    +0.000 A 
ATOM     10  C   UNL     1       5.626   3.874  13.195  0.00  0.00    +0.000 A 
ATOM     11 CL   UNL     1       5.039   3.485  11.622  0.00  0.00    +0.000 Cl
ATOM     12  C   UNL     1       6.911   4.396  13.336  0.00  0.00    +0.000 A 
ATOM     13  C   UNL     1       7.401   4.738  14.603  0.00  0.00    +0.000 A 
ATOM     14  C   UNL     1       6.587   4.563  15.741  0.00  0.00    +0.000 A 
ATOM     15  H   UNL     1       3.836   3.521  17.002  0.00  0.00    +0.000 HD
ENDROOT
BRANCH   1  18
ATOM     16  O   UNL     1       2.973   6.311  19.452  0.00  0.00    +0.000 OA
ATOM     17  C   UNL     1       3.091   5.204  19.958  0.00  0.00    +0.000 C 
ATOM     18  N   UNL     1       4.171   4.372  19.830  0.00  0.00    +0.000 N 
ATOM     19  H   UNL     1       4.041   3.379  19.963  0.00  0.00    +0.000 HD
BRANCH  17  20
ATOM     20  C   UNL     1       1.994   4.648  20.803  0.00  0.00    +0.000 C 
ATOM     21  C   UNL     1       0.959   3.755  20.154  0.00  0.00    +0.000 C 
ATOM     22  C   UNL     1       1.918   3.183  21.155  0.00  0.00    +0.000 C 
ENDBRANCH  17  20
ENDBRANCH   1  18
TORSDOF 2
ENDMDL
MODEL 3
REMARK VINA RESULT:      -7.8      3.577      6.317
REMARK  Name = 
REMARK  2 active torsions:
REMARK  status: ('A' for Active; 'I' for Inactive)
REMARK    1  A    between atoms: C_2  and  C_18
REMARK    2  A    between atoms: N_3  and  C_4
REMARK                            x       y       z     vdW  Elec       q    Type
REMARK                         _______ _______ _______ _____ _____    ______ ____
ROOT
ATOM      1  C   UNL     1       5.735   4.302  19.048  0.00  0.00    +0.000 A 
ATOM      2  N   UNL     1       6.397   5.242  19.754  0.00  0.00    +0.000 NA
ATOM      3  C   UNL     1       7.365   5.963  19.144  0.00  0.00    +0.000 A 
ATOM      4  C   UNL     1       7.684   5.895  17.797  0.00  0.00    +0.000 A 
ATOM      5  C   UNL     1       6.915   5.013  17.021  0.00  0.00    +0.000 A 
ATOM      6  C   UNL     1       5.975   4.214  17.669  0.00  0.00    +0.000 A 
ATOM      7  N   UNL     1       5.388   3.438  16.695  0.00  0.00    +0.000 N 
ATOM      8  C   UNL     1       5.842   3.769  15.445  0.00  0.00    +0.000 A 
ATOM      9  C   UNL     1       5.453   3.295  14.187  0.00  0.00    +0.000 A 
ATOM     10  C   UNL     1       6.108   3.823  13.071  0.00  0.00    +0.000 A 
ATOM     11 CL   UNL     1       5.651   3.295  11.496  0.00  0.00    +0.000 Cl
ATOM     12  C   UNL     1       7.120   4.773  13.207  0.00  0.00    +0.000 A 
ATOM     13  C   UNL     1       7.493   5.231  14.477  0.00  0.00    +0.000 A 
ATOM     14  C   UNL     1       6.838   4.736  15.623  0.00  0.00    +0.000 A 
ATOM     15  H   UNL     1       4.700   2.723  16.896  0.00  0.00    +0.000 HD
ENDROOT
BRANCH   1  18
ATOM     16  O   UNL     1       2.880   4.339  18.731  0.00  0.00    +0.000 OA
ATOM     17  C   UNL     1       3.445   3.639  19.560  0.00  0.00    +0.000 C 
ATOM     18  N   UNL     1       4.799   3.550  19.749  0.00  0.00    +0.000 N 
ATOM     19  H   UNL     1       5.178   2.716  20.176  0.00  0.00    +0.000 HD
BRANCH  17  20
ATOM     20  C   UNL     1       2.647   2.777  20.479  0.00  0.00    +0.000 C 
ATOM     21  C   UNL     1       2.061   3.397  21.729  0.00  0.00    +0.000 C 
ATOM     22  C   UNL     1       1.154   2.933  20.629  0.00  0.00    +0.000 C 
ENDBRANCH  17  20
ENDBRANCH   1  18
TORSDOF 2
ENDMDL
MODEL 4
REMARK VINA RESULT:      -7.8      3.683      5.371
REMARK  Name = 
REMARK  2 active torsions:
REMARK  status: ('A' for Active; 'I' for Inactive)
REMARK    1  A    between atoms: C_2  and  C_18
REMARK    2  A    between atoms: N_3  and  C_4
REMARK                            x       y       z     vdW  Elec       q    Type
REMARK                         _______ _______ _______ _____ _____    ______ ____
ROOT
ATOM      1  C   UNL     1       3.932   3.862  18.367  0.00  0.00    +0.000 A 
ATOM      2  N   UNL     1       3.735   2.836  19.221  0.00  0.00    +0.000 NA
ATOM      3  C   UNL     1       3.148   3.077  20.415  0.00  0.00    +0.000 A 
ATOM      4  C   UNL     1       2.625   4.296  20.817  0.00  0.00    +0.000 A 
ATOM      5  C   UNL     1       2.707   5.343  19.887  0.00  0.00    +0.000 A 
ATOM      6  C   UNL     1       3.385   5.112  18.691  0.00  0.00    +0.000 A 
ATOM      7  N   UNL     1       3.339   6.292  17.984  0.00  0.00    +0.000 N 
ATOM      8  C   UNL     1       2.584   7.237  18.628  0.00  0.00    +0.000 A 
ATOM      9  C   UNL     1       2.213   8.525  18.227  0.00  0.00    +0.000 A 
ATOM     10  C   UNL     1       1.430   9.273  19.111  0.00  0.00    +0.000 A 
ATOM     11 CL   UNL     1       0.921  10.855  18.656  0.00  0.00    +0.000 Cl
ATOM     12  C   UNL     1       1.046   8.760  20.349  0.00  0.00    +0.000 A 
ATOM     13  C   UNL     1       1.431   7.469  20.730  0.00  0.00    +0.000 A 
ATOM     14  C   UNL     1       2.203   6.679  19.854  0.00  0.00    +0.000 A 
ATOM     15  H   UNL     1       3.803   6.423  17.094  0.00  0.00    +0.000 HD
ENDROOT
BRANCH   1  18
ATOM     16  O   UNL     1       6.308   5.112  17.344  0.00  0.00    +0.000 OA
ATOM     17  C   UNL     1       5.720   4.219  16.748  0.00  0.00    +0.000 C 
ATOM     18  N   UNL     1       4.602   3.561  17.185  0.00  0.00    +0.000 N 
ATOM     19  H   UNL     1       4.409   2.636  16.828  0.00  0.00    +0.000 HD
BRANCH  17  20
ATOM     20  C   UNL     1       6.215   3.756  15.419  0.00  0.00    +0.000 C 
ATOM     21  C   UNL     1       5.535   4.274  14.170  0.00  0.00    +0.000 C 
ATOM     22  C   UNL     1       6.948   4.674  14.472  0.00  0.00    +0.000 C 
ENDBRANCH  17  20
ENDBRANCH   1  18
TORSDOF 2
ENDMDL
MODEL 5
REMARK VINA RESULT:      -7.7      0.907      1.006
REMARK  Name = 
REMARK  2 active torsions:
REMARK  status: ('A' for Active; 'I' for Inactive)
REMARK    1  A    between atoms: C_2  and  C_18
REMARK    2  A    between atoms: N_3  and  C_4
REMARK                            x       y       z     vdW  Elec       q    Type
REMARK                         _______ _______ _______ _____ _____    ______ ____
ROOT
ATOM      1  C   UNL     1       7.207   6.134  17.163  0.00  0.00    +0.000 A 
ATOM      2  N   UNL     1       7.586   5.949  15.881  0.00  0.00    +0.000 NA
ATOM      3  C   UNL     1       6.913   5.056  15.119  0.00  0.00    +0.000 A 
ATOM      4  C   UNL     1       5.778   4.366  15.511  0.00  0.00    +0.000 A 
ATOM      5  C   UNL     1       5.295   4.646  16.799  0.00  0.00    +0.000 A 
ATOM      6  C   UNL     1       6.037   5.503  17.609  0.00  0.00    +0.000 A 
ATOM      7  N   UNL     1       5.365   5.584  18.807  0.00  0.00    +0.000 N 
ATOM      8  C   UNL     1       4.182   4.894  18.770  0.00  0.00    +0.000 A 
ATOM      9  C   UNL     1       3.167   4.785  19.728  0.00  0.00    +0.000 A 
ATOM     10  C   UNL     1       2.061   3.994  19.405  0.00  0.00    +0.000 A 
ATOM     11 CL   UNL     1       0.769   3.847  20.536  0.00  0.00    +0.000 Cl
ATOM     12  C   UNL     1       1.979   3.327  18.183  0.00  0.00    +0.000 A 
ATOM     13  C   UNL     1       3.008   3.449  17.241  0.00  0.00    +0.000 A 
ATOM     14  C   UNL     1       4.128   4.257  17.525  0.00  0.00    +0.000 A 
ATOM     15  H   UNL     1       5.712   6.103  19.604  0.00  0.00    +0.000 HD
ENDROOT
BRANCH   1  18
ATOM     16  O   UNL     1       7.074   9.003  17.162  0.00  0.00    +0.000 OA
ATOM     17  C   UNL     1       7.876   8.379  17.841  0.00  0.00    +0.000 C 
ATOM     18  N   UNL     1       7.980   7.015  17.913  0.00  0.00    +0.000 N 
ATOM     19  H   UNL     1       8.395   6.600  18.735  0.00  0.00    +0.000 HD
BRANCH  17  20
ATOM     20  C   UNL     1       8.860   9.107  18.695  0.00  0.00    +0.000 C 
ATOM     21  C   UNL     1       9.590  10.296  18.108  0.00  0.00    +0.000 C 
ATOM     22  C   UNL     1       8.595  10.499  19.212  0.00  0.00    +0.000 C 
ENDBRANCH  17  20
ENDBRANCH   1  18
TORSDOF 2
ENDMDL
MODEL 6
REMARK VINA RESULT:      -7.6      3.516      5.488
REMARK  Name = 
REMARK  2 active torsions:
REMARK  status: ('A' for Active; 'I' for Inactive)
REMARK    1  A    between atoms: C_2  and  C_18
REMARK    2  A    between atoms: N_3  and  C_4
REMARK                            x       y       z     vdW  Elec       q    Type
REMARK                         _______ _______ _______ _____ _____    ______ ____
ROOT
ATOM      1  C   UNL     1       3.655   4.976  18.087  0.00  0.00    +0.000 A 
ATOM      2  N   UNL     1       3.607   3.844  18.820  0.00  0.00    +0.000 NA
ATOM      3  C   UNL     1       3.106   3.894  20.075  0.00  0.00    +0.000 A 
ATOM      4  C   UNL     1       2.529   5.009  20.662  0.00  0.00    +0.000 A 
ATOM      5  C   UNL     1       2.453   6.161  19.864  0.00  0.00    +0.000 A 
ATOM      6  C   UNL     1       3.045   6.129  18.602  0.00  0.00    +0.000 A 
ATOM      7  N   UNL     1       2.851   7.375  18.051  0.00  0.00    +0.000 N 
ATOM      8  C   UNL     1       2.085   8.172  18.860  0.00  0.00    +0.000 A 
ATOM      9  C   UNL     1       1.586   9.462  18.649  0.00  0.00    +0.000 A 
ATOM     10  C   UNL     1       0.826  10.033  19.674  0.00  0.00    +0.000 A 
ATOM     11 CL   UNL     1       0.164  11.609  19.457  0.00  0.00    +0.000 Cl
ATOM     12  C   UNL     1       0.587   9.349  20.865  0.00  0.00    +0.000 A 
ATOM     13  C   UNL     1       1.097   8.059  21.055  0.00  0.00    +0.000 A 
ATOM     14  C   UNL     1       1.851   7.445  20.033  0.00  0.00    +0.000 A 
ATOM     15  H   UNL     1       3.228   7.648  17.151  0.00  0.00    +0.000 HD
ENDROOT
BRANCH   1  18
ATOM     16  O   UNL     1       5.844   6.524  17.056  0.00  0.00    +0.000 OA
ATOM     17  C   UNL     1       5.273   5.665  16.398  0.00  0.00    +0.000 C 
ATOM     18  N   UNL     1       4.243   4.873  16.831  0.00  0.00    +0.000 N 
ATOM     19  H   UNL     1       4.087   3.984  16.376  0.00  0.00    +0.000 HD
BRANCH  17  20
ATOM     20  C   UNL     1       5.687   5.405  14.989  0.00  0.00    +0.000 C 
ATOM     21  C   UNL     1       7.033   4.760  14.734  0.00  0.00    +0.000 C 
ATOM     22  C   UNL     1       5.773   4.009  14.423  0.00  0.00    +0.000 C 
ENDBRANCH  17  20
ENDBRANCH   1  18
TORSDOF 2
ENDMDL
MODEL 7
REMARK VINA RESULT:      -7.6      2.859      4.701
REMARK  Name = 
REMARK  2 active torsions:
REMARK  status: ('A' for Active; 'I' for Inactive)
REMARK    1  A    between atoms: C_2  and  C_18
REMARK    2  A    between atoms: N_3  and  C_4
REMARK                            x       y       z     vdW  Elec       q    Type
REMARK                         _______ _______ _______ _____ _____    ______ ____
ROOT
ATOM      1  C   UNL     1       6.367   4.098  15.790  0.00  0.00    +0.000 A 
ATOM      2  N   UNL     1       7.610   4.383  16.231  0.00  0.00    +0.000 NA
ATOM      3  C   UNL     1       7.775   4.813  17.503  0.00  0.00    +0.000 A 
ATOM      4  C   UNL     1       6.771   4.899  18.454  0.00  0.00    +0.000 A 
ATOM      5  C   UNL     1       5.494   4.483  18.047  0.00  0.00    +0.000 A 
ATOM      6  C   UNL     1       5.313   4.118  16.715  0.00  0.00    +0.000 A 
ATOM      7  N   UNL     1       3.984   3.783  16.581  0.00  0.00    +0.000 N 
ATOM      8  C   UNL     1       3.329   3.827  17.783  0.00  0.00    +0.000 A 
ATOM      9  C   UNL     1       2.012   3.485  18.109  0.00  0.00    +0.000 A 
ATOM     10  C   UNL     1       1.618   3.641  19.441  0.00  0.00    +0.000 A 
ATOM     11 CL   UNL     1       0.015   3.209  19.903  0.00  0.00    +0.000 Cl
ATOM     12  C   UNL     1       2.498   4.133  20.404  0.00  0.00    +0.000 A 
ATOM     13  C   UNL     1       3.812   4.470  20.055  0.00  0.00    +0.000 A 
ATOM     14  C   UNL     1       4.249   4.305  18.724  0.00  0.00    +0.000 A 
ATOM     15  H   UNL     1       3.563   3.528  15.696  0.00  0.00    +0.000 HD
ENDROOT
BRANCH   1  18
ATOM     16  O   UNL     1       7.554   5.392  13.518  0.00  0.00    +0.000 OA
ATOM     17  C   UNL     1       6.834   4.408  13.418  0.00  0.00    +0.000 C 
ATOM     18  N   UNL     1       6.257   3.725  14.455  0.00  0.00    +0.000 N 
ATOM     19  H   UNL     1       5.998   2.758  14.318  0.00  0.00    +0.000 HD
BRANCH  17  20
ATOM     20  C   UNL     1       6.516   3.848  12.072  0.00  0.00    +0.000 C 
ATOM     21  C   UNL     1       6.565   2.348  11.879  0.00  0.00    +0.000 C 
ATOM     22  C   UNL     1       5.252   3.070  11.806  0.00  0.00    +0.000 C 
ENDBRANCH  17  20
ENDBRANCH   1  18
TORSDOF 2
ENDMDL
MODEL 8
REMARK VINA RESULT:      -7.3      2.334      4.714
REMARK  Name = 
REMARK  2 active torsions:
REMARK  status: ('A' for Active; 'I' for Inactive)
REMARK    1  A    between atoms: C_2  and  C_18
REMARK    2  A    between atoms: N_3  and  C_4
REMARK                            x       y       z     vdW  Elec       q    Type
REMARK                         _______ _______ _______ _____ _____    ______ ____
ROOT
ATOM      1  C   UNL     1       6.360   5.620  15.653  0.00  0.00    +0.000 A 
ATOM      2  N   UNL     1       7.477   6.233  16.098  0.00  0.00    +0.000 NA
ATOM      3  C   UNL     1       7.519   6.678  17.374  0.00  0.00    +0.000 A 
ATOM      4  C   UNL     1       6.532   6.472  18.326  0.00  0.00    +0.000 A 
ATOM      5  C   UNL     1       5.419   5.722  17.913  0.00  0.00    +0.000 A 
ATOM      6  C   UNL     1       5.344   5.337  16.576  0.00  0.00    +0.000 A 
ATOM      7  N   UNL     1       4.160   4.649  16.437  0.00  0.00    +0.000 N 
ATOM      8  C   UNL     1       3.521   4.495  17.640  0.00  0.00    +0.000 A 
ATOM      9  C   UNL     1       2.351   3.798  17.960  0.00  0.00    +0.000 A 
ATOM     10  C   UNL     1       1.932   3.823  19.294  0.00  0.00    +0.000 A 
ATOM     11 CL   UNL     1       0.513   2.959  19.749  0.00  0.00    +0.000 Cl
ATOM     12  C   UNL     1       2.644   4.529  20.263  0.00  0.00    +0.000 A 
ATOM     13  C   UNL     1       3.812   5.221  19.919  0.00  0.00    +0.000 A 
ATOM     14  C   UNL     1       4.275   5.199  18.587  0.00  0.00    +0.000 A 
ATOM     15  H   UNL     1       3.824   4.297  15.549  0.00  0.00    +0.000 HD
ENDROOT
BRANCH   1  18
ATOM     16  O   UNL     1       5.911   2.995  14.579  0.00  0.00    +0.000 OA
ATOM     17  C   UNL     1       6.156   3.964  13.875  0.00  0.00    +0.000 C 
ATOM     18  N   UNL     1       6.354   5.247  14.313  0.00  0.00    +0.000 N 
ATOM     19  H   UNL     1       6.189   6.012  13.674  0.00  0.00    +0.000 HD
BRANCH  17  20
ATOM     20  C   UNL     1       6.261   3.806  12.395  0.00  0.00    +0.000 C 
ATOM     21  C   UNL     1       6.570   2.436  11.831  0.00  0.00    +0.000 C 
ATOM     22  C   UNL     1       5.226   3.057  11.593  0.00  0.00    +0.000 C 
ENDBRANCH  17  20
ENDBRANCH   1  18
TORSDOF 2
ENDMDL
MODEL 9
REMARK VINA RESULT:      -7.2      5.554      7.993
REMARK  Name = 
REMARK  2 active torsions:
REMARK  status: ('A' for Active; 'I' for Inactive)
REMARK    1  A    between atoms: C_2  and  C_18
REMARK    2  A    between atoms: N_3  and  C_4
REMARK                            x       y       z     vdW  Elec       q    Type
REMARK                         _______ _______ _______ _____ _____    ______ ____
ROOT
ATOM      1  C   UNL     1       2.161   7.184  19.874  0.00  0.00    +0.000 A 
ATOM      2  N   UNL     1       2.754   7.206  18.662  0.00  0.00    +0.000 NA
ATOM      3  C   UNL     1       2.473   8.218  17.810  0.00  0.00    +0.000 A 
ATOM      4  C   UNL     1       1.684   9.318  18.108  0.00  0.00    +0.000 A 
ATOM      5  C   UNL     1       1.164   9.374  19.411  0.00  0.00    +0.000 A 
ATOM      6  C   UNL     1       1.390   8.290  20.257  0.00  0.00    +0.000 A 
ATOM      7  N   UNL     1       0.760   8.587  21.445  0.00  0.00    +0.000 N 
ATOM      8  C   UNL     1       0.222   9.847  21.429  0.00  0.00    +0.000 A 
ATOM      9  C   UNL     1      -0.422  10.569  22.441  0.00  0.00    +0.000 A 
ATOM     10  C   UNL     1      -0.876  11.853  22.125  0.00  0.00    +0.000 A 
ATOM     11 CL   UNL     1      -1.651  12.796  23.340  0.00  0.00    +0.000 Cl
ATOM     12  C   UNL     1      -0.708  12.386  20.848  0.00  0.00    +0.000 A 
ATOM     13  C   UNL     1      -0.063  11.645  19.850  0.00  0.00    +0.000 A 
ATOM     14  C   UNL     1       0.427  10.355  20.141  0.00  0.00    +0.000 A 
ATOM     15  H   UNL     1       0.719   7.945  22.226  0.00  0.00    +0.000 HD
ENDROOT
BRANCH   1  18
ATOM     16  O   UNL     1       1.067   4.538  19.643  0.00  0.00    +0.000 OA
ATOM     17  C   UNL     1       1.859   4.852  20.521  0.00  0.00    +0.000 C 
ATOM     18  N   UNL     1       2.440   6.083  20.677  0.00  0.00    +0.000 N 
ATOM     19  H   UNL     1       3.318   6.148  21.173  0.00  0.00    +0.000 HD
BRANCH  17  20
ATOM     20  C   UNL     1       2.274   3.852  21.547  0.00  0.00    +0.000 C 
ATOM     21  C   UNL     1       1.476   2.572  21.677  0.00  0.00    +0.000 C 
ATOM     22  C   UNL     1       2.887   2.526  21.172  0.00  0.00    +0.000 C 
ENDBRANCH  17  20
ENDBRANCH   1  18
TORSDOF 2
ENDMDL
