MODEL 1
REMARK VINA RESULT:      -8.7      0.000      0.000
REMARK  Name = 
REMARK  12 active torsions:
REMARK  status: ('A' for Active; 'I' for Inactive)
REMARK    1  A    between atoms: C_1  and  S_2
REMARK    2  A    between atoms: S_2  and  C_5
REMARK    3  A    between atoms: C_8  and  N_9
REMARK    4  A    between atoms: N_16  and  C_17
REMARK    5  A    between atoms: N_20  and  C_21
REMARK    6  A    between atoms: C_21  and  C_22
REMARK    7  A    between atoms: C_22  and  C_23
REMARK    8  A    between atoms: C_23  and  C_24
REMARK    9  A    between atoms: C_24  and  C_25
REMARK   10  A    between atoms: C_25  and  C_26
REMARK   11  A    between atoms: C_26  and  C_27
REMARK   12  A    between atoms: N_29  and  O_30
REMARK                            x       y       z     vdW  Elec       q    Type
REMARK                         _______ _______ _______ _____ _____    ______ ____
ROOT
ATOM      1  N   UNL     1       2.067   5.246  20.100  0.00  0.00    +0.000 N 
ATOM      2  C   UNL     1       1.154   4.411  20.724  0.00  0.00    +0.000 A 
ATOM      3  C   UNL     1       1.632   3.118  20.701  0.00  0.00    +0.000 A 
ATOM      4  C   UNL     1       2.906   3.152  20.091  0.00  0.00    +0.000 A 
ATOM      5  C   UNL     1       3.895   2.225  19.787  0.00  0.00    +0.000 A 
ATOM      6  N   UNL     1       5.048   2.636  19.207  0.00  0.00    +0.000 NA
ATOM      7  C   UNL     1       5.224   3.947  18.959  0.00  0.00    +0.000 A 
ATOM      8  N   UNL     1       6.447   4.292  18.370  0.00  0.00    +0.000 N 
ATOM      9  N   UNL     1       4.317   4.903  19.197  0.00  0.00    +0.000 NA
ATOM     10  C   UNL     1       3.169   4.469  19.745  0.00  0.00    +0.000 A 
ATOM     11  H   UNL     1       6.917   3.444  18.081  0.00  0.00    +0.000 HD
ENDROOT
BRANCH   1  15
ATOM     12  C   UNL     1       1.547   9.385  19.414  0.00  0.00    +0.000 A 
ATOM     13  C   UNL     1       2.052   8.581  18.396  0.00  0.00    +0.000 A 
ATOM     14  C   UNL     1       2.208   7.207  18.620  0.00  0.00    +0.000 A 
ATOM     15  C   UNL     1       1.867   6.641  19.862  0.00  0.00    +0.000 A 
ATOM     16  C   UNL     1       1.357   7.465  20.871  0.00  0.00    +0.000 A 
ATOM     17  C   UNL     1       1.187   8.831  20.637  0.00  0.00    +0.000 A 
BRANCH  12  19
ATOM     18  C   UNL     1      -0.306  11.243  18.557  0.00  0.00    +0.000 C 
ATOM     19  S   UNL     1       1.351  11.133  19.175  0.00  0.00    +0.000 S 
ATOM     20  O   UNL     1       2.253  11.542  18.116  0.00  0.00    +0.000 OA
ATOM     21  O   UNL     1       1.391  11.778  20.472  0.00  0.00    +0.000 OA
ENDBRANCH  12  19
ENDBRANCH   1  15
BRANCH   8  22
ATOM     22  C   UNL     1       6.932   5.523  18.106  0.00  0.00    +0.000 A 
ATOM     23  C   UNL     1       6.783   6.303  16.943  0.00  0.00    +0.000 A 
ATOM     24  N   UNL     1       7.435   7.465  17.024  0.00  0.00    +0.000 NA
ATOM     25  N   UNL     1       7.990   7.428  18.247  0.00  0.00    +0.000 N 
ATOM     26  C   UNL     1       7.684   6.298  18.957  0.00  0.00    +0.000 A 
BRANCH  25  27
ATOM     27  C   UNL     1       8.875   8.502  18.658  0.00  0.00    +0.000 C 
BRANCH  27  28
ATOM     28  C   UNL     1       8.501   9.852  18.045  0.00  0.00    +0.000 C 
BRANCH  28  29
ATOM     29  C   UNL     1       9.208  11.050  18.691  0.00  0.00    +0.000 C 
BRANCH  29  30
ATOM     30  C   UNL     1      10.533  11.395  18.001  0.00  0.00    +0.000 C 
BRANCH  30  31
ATOM     31  C   UNL     1      10.869  12.893  17.957  0.00  0.00    +0.000 C 
BRANCH  31  32
ATOM     32  C   UNL     1       9.713  13.805  18.360  0.00  0.00    +0.000 C 
BRANCH  32  33
ATOM     33  C   UNL     1       9.787  15.113  17.616  0.00  0.00    +0.000 C 
ATOM     34  O   UNL     1       9.048  16.068  17.845  0.00  0.00    +0.000 OA
ATOM     35  N   UNL     1      10.755  15.150  16.647  0.00  0.00    +0.000 N 
ATOM     36  H   UNL     1      11.065  14.299  16.186  0.00  0.00    +0.000 HD
BRANCH  35  37
ATOM     37  O   UNL     1      10.741  16.323  15.854  0.00  0.00    +0.000 OA
ATOM     38  H   UNL     1       9.786  16.544  15.795  0.00  0.00    +0.000 HD
ENDBRANCH  35  37
ENDBRANCH  32  33
ENDBRANCH  31  32
ENDBRANCH  30  31
ENDBRANCH  29  30
ENDBRANCH  28  29
ENDBRANCH  27  28
ENDBRANCH  25  27
ENDBRANCH   8  22
TORSDOF 11
ENDMDL
MODEL 2
REMARK VINA RESULT:      -8.1      1.083      1.481
REMARK  Name = 
REMARK  12 active torsions:
REMARK  status: ('A' for Active; 'I' for Inactive)
REMARK    1  A    between atoms: C_1  and  S_2
REMARK    2  A    between atoms: S_2  and  C_5
REMARK    3  A    between atoms: C_8  and  N_9
REMARK    4  A    between atoms: N_16  and  C_17
REMARK    5  A    between atoms: N_20  and  C_21
REMARK    6  A    between atoms: C_21  and  C_22
REMARK    7  A    between atoms: C_22  and  C_23
REMARK    8  A    between atoms: C_23  and  C_24
REMARK    9  A    between atoms: C_24  and  C_25
REMARK   10  A    between atoms: C_25  and  C_26
REMARK   11  A    between atoms: C_26  and  C_27
REMARK   12  A    between atoms: N_29  and  O_30
REMARK                            x       y       z     vdW  Elec       q    Type
REMARK                         _______ _______ _______ _____ _____    ______ ____
ROOT
ATOM      1  N   UNL     1       2.242   5.579  20.174  0.00  0.00    +0.000 N 
ATOM      2  C   UNL     1       1.418   4.681  20.834  0.00  0.00    +0.000 A 
ATOM      3  C   UNL     1       2.009   3.436  20.830  0.00  0.00    +0.000 A 
ATOM      4  C   UNL     1       3.264   3.568  20.196  0.00  0.00    +0.000 A 
ATOM      5  C   UNL     1       4.327   2.726  19.894  0.00  0.00    +0.000 A 
ATOM      6  N   UNL     1       5.428   3.223  19.283  0.00  0.00    +0.000 NA
ATOM      7  C   UNL     1       5.483   4.538  19.002  0.00  0.00    +0.000 A 
ATOM      8  N   UNL     1       6.660   4.976  18.383  0.00  0.00    +0.000 N 
ATOM      9  N   UNL     1       4.498   5.416  19.236  0.00  0.00    +0.000 NA
ATOM     10  C   UNL     1       3.403   4.895  19.815  0.00  0.00    +0.000 A 
ATOM     11  H   UNL     1       7.198   4.167  18.103  0.00  0.00    +0.000 HD
ENDROOT
BRANCH   1  15
ATOM     12  C   UNL     1       1.208   9.599  19.371  0.00  0.00    +0.000 A 
ATOM     13  C   UNL     1       0.952   9.065  20.631  0.00  0.00    +0.000 A 
ATOM     14  C   UNL     1       1.310   7.738  20.900  0.00  0.00    +0.000 A 
ATOM     15  C   UNL     1       1.915   6.945  19.908  0.00  0.00    +0.000 A 
ATOM     16  C   UNL     1       2.168   7.501  18.649  0.00  0.00    +0.000 A 
ATOM     17  C   UNL     1       1.825   8.830  18.392  0.00  0.00    +0.000 A 
BRANCH  12  19
ATOM     18  C   UNL     1       0.535  11.980  20.595  0.00  0.00    +0.000 C 
ATOM     19  S   UNL     1       0.752  11.271  18.986  0.00  0.00    +0.000 S 
ATOM     20  O   UNL     1      -0.540  11.240  18.330  0.00  0.00    +0.000 OA
ATOM     21  O   UNL     1       1.887  11.919  18.358  0.00  0.00    +0.000 OA
ENDBRANCH  12  19
ENDBRANCH   1  15
BRANCH   8  22
ATOM     22  C   UNL     1       7.028   6.239  18.081  0.00  0.00    +0.000 A 
ATOM     23  C   UNL     1       6.481   7.117  17.126  0.00  0.00    +0.000 A 
ATOM     24  N   UNL     1       7.129   8.284  17.081  0.00  0.00    +0.000 NA
ATOM     25  N   UNL     1       8.082   8.150  18.018  0.00  0.00    +0.000 N 
ATOM     26  C   UNL     1       8.040   6.953  18.679  0.00  0.00    +0.000 A 
BRANCH  25  27
ATOM     27  C   UNL     1       9.064   9.205  18.187  0.00  0.00    +0.000 C 
BRANCH  27  28
ATOM     28  C   UNL     1       9.008   9.858  19.569  0.00  0.00    +0.000 C 
BRANCH  28  29
ATOM     29  C   UNL     1       9.782  11.178  19.670  0.00  0.00    +0.000 C 
BRANCH  29  30
ATOM     30  C   UNL     1      10.759  11.378  18.506  0.00  0.00    +0.000 C 
BRANCH  30  31
ATOM     31  C   UNL     1      12.041  12.145  18.862  0.00  0.00    +0.000 C 
BRANCH  31  32
ATOM     32  C   UNL     1      12.304  13.366  17.984  0.00  0.00    +0.000 C 
BRANCH  32  33
ATOM     33  C   UNL     1      11.183  14.364  18.116  0.00  0.00    +0.000 C 
ATOM     34  O   UNL     1      10.780  14.795  19.194  0.00  0.00    +0.000 OA
ATOM     35  N   UNL     1      10.638  14.753  16.921  0.00  0.00    +0.000 N 
ATOM     36  H   UNL     1      10.663  14.139  16.111  0.00  0.00    +0.000 HD
BRANCH  35  37
ATOM     37  O   UNL     1       9.498  15.584  17.043  0.00  0.00    +0.000 OA
ATOM     38  H   UNL     1       9.345  15.616  18.012  0.00  0.00    +0.000 HD
ENDBRANCH  35  37
ENDBRANCH  32  33
ENDBRANCH  31  32
ENDBRANCH  30  31
ENDBRANCH  29  30
ENDBRANCH  28  29
ENDBRANCH  27  28
ENDBRANCH  25  27
ENDBRANCH   8  22
TORSDOF 11
ENDMDL
MODEL 3
REMARK VINA RESULT:      -8.0      1.126      1.492
REMARK  Name = 
REMARK  12 active torsions:
REMARK  status: ('A' for Active; 'I' for Inactive)
REMARK    1  A    between atoms: C_1  and  S_2
REMARK    2  A    between atoms: S_2  and  C_5
REMARK    3  A    between atoms: C_8  and  N_9
REMARK    4  A    between atoms: N_16  and  C_17
REMARK    5  A    between atoms: N_20  and  C_21
REMARK    6  A    between atoms: C_21  and  C_22
REMARK    7  A    between atoms: C_22  and  C_23
REMARK    8  A    between atoms: C_23  and  C_24
REMARK    9  A    between atoms: C_24  and  C_25
REMARK   10  A    between atoms: C_25  and  C_26
REMARK   11  A    between atoms: C_26  and  C_27
REMARK   12  A    between atoms: N_29  and  O_30
REMARK                            x       y       z     vdW  Elec       q    Type
REMARK                         _______ _______ _______ _____ _____    ______ ____
ROOT
ATOM      1  N   UNL     1       2.101   5.293  20.048  0.00  0.00    +0.000 N 
ATOM      2  C   UNL     1       1.190   4.433  20.641  0.00  0.00    +0.000 A 
ATOM      3  C   UNL     1       1.683   3.147  20.596  0.00  0.00    +0.000 A 
ATOM      4  C   UNL     1       2.964   3.209  20.004  0.00  0.00    +0.000 A 
ATOM      5  C   UNL     1       3.969   2.301  19.693  0.00  0.00    +0.000 A 
ATOM      6  N   UNL     1       5.124   2.738  19.138  0.00  0.00    +0.000 NA
ATOM      7  C   UNL     1       5.288   4.056  18.921  0.00  0.00    +0.000 A 
ATOM      8  N   UNL     1       6.515   4.429  18.356  0.00  0.00    +0.000 N 
ATOM      9  N   UNL     1       4.366   4.997  19.168  0.00  0.00    +0.000 NA
ATOM     10  C   UNL     1       3.216   4.537  19.691  0.00  0.00    +0.000 A 
ATOM     11  H   UNL     1       6.998   3.593  18.055  0.00  0.00    +0.000 HD
ENDROOT
BRANCH   1  15
ATOM     12  C   UNL     1       1.403   9.413  19.407  0.00  0.00    +0.000 A 
ATOM     13  C   UNL     1       1.059   8.842  20.629  0.00  0.00    +0.000 A 
ATOM     14  C   UNL     1       1.306   7.481  20.845  0.00  0.00    +0.000 A 
ATOM     15  C   UNL     1       1.888   6.690  19.838  0.00  0.00    +0.000 A 
ATOM     16  C   UNL     1       2.231   7.283  18.617  0.00  0.00    +0.000 A 
ATOM     17  C   UNL     1       1.999   8.645  18.413  0.00  0.00    +0.000 A 
BRANCH  12  19
ATOM     18  C   UNL     1       2.406  11.552  17.980  0.00  0.00    +0.000 C 
ATOM     19  S   UNL     1       1.090  11.131  19.088  0.00  0.00    +0.000 S 
ATOM     20  O   UNL     1       1.295  11.858  20.326  0.00  0.00    +0.000 OA
ATOM     21  O   UNL     1      -0.161  11.240  18.364  0.00  0.00    +0.000 OA
ENDBRANCH  12  19
ENDBRANCH   1  15
BRANCH   8  22
ATOM     22  C   UNL     1       6.988   5.671  18.126  0.00  0.00    +0.000 A 
ATOM     23  C   UNL     1       6.828   6.482  16.986  0.00  0.00    +0.000 A 
ATOM     24  N   UNL     1       7.471   7.648  17.099  0.00  0.00    +0.000 NA
ATOM     25  N   UNL     1       8.030   7.580  18.318  0.00  0.00    +0.000 N 
ATOM     26  C   UNL     1       7.737   6.428  18.996  0.00  0.00    +0.000 A 
BRANCH  25  27
ATOM     27  C   UNL     1       8.908   8.649  18.757  0.00  0.00    +0.000 C 
BRANCH  27  28
ATOM     28  C   UNL     1       8.661   9.966  18.019  0.00  0.00    +0.000 C 
BRANCH  28  29
ATOM     29  C   UNL     1       9.793  10.989  18.167  0.00  0.00    +0.000 C 
BRANCH  29  30
ATOM     30  C   UNL     1       9.404  12.171  19.063  0.00  0.00    +0.000 C 
BRANCH  30  31
ATOM     31  C   UNL     1      10.564  13.105  19.442  0.00  0.00    +0.000 C 
BRANCH  31  32
ATOM     32  C   UNL     1      10.538  14.455  18.732  0.00  0.00    +0.000 C 
BRANCH  32  33
ATOM     33  C   UNL     1       9.124  14.966  18.618  0.00  0.00    +0.000 C 
ATOM     34  O   UNL     1       8.491  15.430  19.563  0.00  0.00    +0.000 OA
ATOM     35  N   UNL     1       8.594  14.863  17.359  0.00  0.00    +0.000 N 
ATOM     36  H   UNL     1       8.917  14.148  16.712  0.00  0.00    +0.000 HD
BRANCH  35  37
ATOM     37  O   UNL     1       7.225  15.213  17.273  0.00  0.00    +0.000 OA
ATOM     38  H   UNL     1       6.920  15.162  18.206  0.00  0.00    +0.000 HD
ENDBRANCH  35  37
ENDBRANCH  32  33
ENDBRANCH  31  32
ENDBRANCH  30  31
ENDBRANCH  29  30
ENDBRANCH  28  29
ENDBRANCH  27  28
ENDBRANCH  25  27
ENDBRANCH   8  22
TORSDOF 11
ENDMDL
MODEL 4
REMARK VINA RESULT:      -7.9      1.248      1.428
REMARK  Name = 
REMARK  12 active torsions:
REMARK  status: ('A' for Active; 'I' for Inactive)
REMARK    1  A    between atoms: C_1  and  S_2
REMARK    2  A    between atoms: S_2  and  C_5
REMARK    3  A    between atoms: C_8  and  N_9
REMARK    4  A    between atoms: N_16  and  C_17
REMARK    5  A    between atoms: N_20  and  C_21
REMARK    6  A    between atoms: C_21  and  C_22
REMARK    7  A    between atoms: C_22  and  C_23
REMARK    8  A    between atoms: C_23  and  C_24
REMARK    9  A    between atoms: C_24  and  C_25
REMARK   10  A    between atoms: C_25  and  C_26
REMARK   11  A    between atoms: C_26  and  C_27
REMARK   12  A    between atoms: N_29  and  O_30
REMARK                            x       y       z     vdW  Elec       q    Type
REMARK                         _______ _______ _______ _____ _____    ______ ____
ROOT
ATOM      1  N   UNL     1       2.260   5.619  20.087  0.00  0.00    +0.000 N 
ATOM      2  C   UNL     1       1.433   4.694  20.704  0.00  0.00    +0.000 A 
ATOM      3  C   UNL     1       2.038   3.456  20.677  0.00  0.00    +0.000 A 
ATOM      4  C   UNL     1       3.304   3.620  20.072  0.00  0.00    +0.000 A 
ATOM      5  C   UNL     1       4.382   2.798  19.767  0.00  0.00    +0.000 A 
ATOM      6  N   UNL     1       5.489   3.324  19.193  0.00  0.00    +0.000 NA
ATOM      7  C   UNL     1       5.534   4.647  18.950  0.00  0.00    +0.000 A 
ATOM      8  N   UNL     1       6.719   5.115  18.367  0.00  0.00    +0.000 N 
ATOM      9  N   UNL     1       4.535   5.507  19.190  0.00  0.00    +0.000 NA
ATOM     10  C   UNL     1       3.435   4.958  19.732  0.00  0.00    +0.000 A 
ATOM     11  H   UNL     1       7.271   4.320  18.075  0.00  0.00    +0.000 HD
ENDROOT
BRANCH   1  15
ATOM     12  C   UNL     1       1.331   9.688  19.413  0.00  0.00    +0.000 A 
ATOM     13  C   UNL     1       1.872   8.929  18.379  0.00  0.00    +0.000 A 
ATOM     14  C   UNL     1       2.163   7.577  18.600  0.00  0.00    +0.000 A 
ATOM     15  C   UNL     1       1.923   6.989  19.854  0.00  0.00    +0.000 A 
ATOM     16  C   UNL     1       1.375   7.767  20.880  0.00  0.00    +0.000 A 
ATOM     17  C   UNL     1       1.070   9.110  20.650  0.00  0.00    +0.000 A 
BRANCH  12  19
ATOM     18  C   UNL     1       2.316  11.946  18.167  0.00  0.00    +0.000 C 
ATOM     19  S   UNL     1       0.964  11.409  19.179  0.00  0.00    +0.000 S 
ATOM     20  O   UNL     1       1.077  12.068  20.466  0.00  0.00    +0.000 OA
ATOM     21  O   UNL     1      -0.252  11.514  18.398  0.00  0.00    +0.000 OA
ENDBRANCH  12  19
ENDBRANCH   1  15
BRANCH   8  22
ATOM     22  C   UNL     1       7.078   6.390  18.109  0.00  0.00    +0.000 A 
ATOM     23  C   UNL     1       6.504   7.308  17.209  0.00  0.00    +0.000 A 
ATOM     24  N   UNL     1       7.151   8.476  17.194  0.00  0.00    +0.000 NA
ATOM     25  N   UNL     1       8.131   8.303  18.096  0.00  0.00    +0.000 N 
ATOM     26  C   UNL     1       8.107   7.079  18.707  0.00  0.00    +0.000 A 
BRANCH  25  27
ATOM     27  C   UNL     1       9.118   9.351  18.282  0.00  0.00    +0.000 C 
BRANCH  27  28
ATOM     28  C   UNL     1       8.907  10.150  19.569  0.00  0.00    +0.000 C 
BRANCH  28  29
ATOM     29  C   UNL     1      10.163  10.871  20.072  0.00  0.00    +0.000 C 
BRANCH  29  30
ATOM     30  C   UNL     1       9.836  12.165  20.826  0.00  0.00    +0.000 C 
BRANCH  30  31
ATOM     31  C   UNL     1       9.069  13.215  20.007  0.00  0.00    +0.000 C 
BRANCH  31  32
ATOM     32  C   UNL     1       9.958  14.268  19.352  0.00  0.00    +0.000 C 
BRANCH  32  33
ATOM     33  C   UNL     1      10.143  13.967  17.887  0.00  0.00    +0.000 C 
ATOM     34  O   UNL     1       9.765  12.926  17.354  0.00  0.00    +0.000 OA
ATOM     35  N   UNL     1      10.780  14.959  17.190  0.00  0.00    +0.000 N 
ATOM     36  H   UNL     1      11.431  15.589  17.653  0.00  0.00    +0.000 HD
BRANCH  35  37
ATOM     37  O   UNL     1      11.079  14.628  15.846  0.00  0.00    +0.000 OA
ATOM     38  H   UNL     1      10.363  14.001  15.604  0.00  0.00    +0.000 HD
ENDBRANCH  35  37
ENDBRANCH  32  33
ENDBRANCH  31  32
ENDBRANCH  30  31
ENDBRANCH  29  30
ENDBRANCH  28  29
ENDBRANCH  27  28
ENDBRANCH  25  27
ENDBRANCH   8  22
TORSDOF 11
ENDMDL
MODEL 5
REMARK VINA RESULT:      -7.9      1.028      1.475
REMARK  Name = 
REMARK  12 active torsions:
REMARK  status: ('A' for Active; 'I' for Inactive)
REMARK    1  A    between atoms: C_1  and  S_2
REMARK    2  A    between atoms: S_2  and  C_5
REMARK    3  A    between atoms: C_8  and  N_9
REMARK    4  A    between atoms: N_16  and  C_17
REMARK    5  A    between atoms: N_20  and  C_21
REMARK    6  A    between atoms: C_21  and  C_22
REMARK    7  A    between atoms: C_22  and  C_23
REMARK    8  A    between atoms: C_23  and  C_24
REMARK    9  A    between atoms: C_24  and  C_25
REMARK   10  A    between atoms: C_25  and  C_26
REMARK   11  A    between atoms: C_26  and  C_27
REMARK   12  A    between atoms: N_29  and  O_30
REMARK                            x       y       z     vdW  Elec       q    Type
REMARK                         _______ _______ _______ _____ _____    ______ ____
ROOT
ATOM      1  N   UNL     1       2.150   5.521  20.103  0.00  0.00    +0.000 N 
ATOM      2  C   UNL     1       1.258   4.647  20.704  0.00  0.00    +0.000 A 
ATOM      3  C   UNL     1       1.778   3.371  20.667  0.00  0.00    +0.000 A 
ATOM      4  C   UNL     1       3.057   3.456  20.072  0.00  0.00    +0.000 A 
ATOM      5  C   UNL     1       4.079   2.566  19.766  0.00  0.00    +0.000 A 
ATOM      6  N   UNL     1       5.224   3.023  19.206  0.00  0.00    +0.000 NA
ATOM      7  C   UNL     1       5.360   4.342  18.979  0.00  0.00    +0.000 A 
ATOM      8  N   UNL     1       6.578   4.736  18.409  0.00  0.00    +0.000 N 
ATOM      9  N   UNL     1       4.420   5.265  19.221  0.00  0.00    +0.000 NA
ATOM     10  C   UNL     1       3.280   4.786  19.749  0.00  0.00    +0.000 A 
ATOM     11  H   UNL     1       7.078   3.909  18.112  0.00  0.00    +0.000 HD
ENDROOT
BRANCH   1  15
ATOM     12  C   UNL     1       1.365   9.621  19.439  0.00  0.00    +0.000 A 
ATOM     13  C   UNL     1       1.124   9.073  20.696  0.00  0.00    +0.000 A 
ATOM     14  C   UNL     1       1.400   7.718  20.918  0.00  0.00    +0.000 A 
ATOM     15  C   UNL     1       1.908   6.912  19.884  0.00  0.00    +0.000 A 
ATOM     16  C   UNL     1       2.147   7.483  18.628  0.00  0.00    +0.000 A 
ATOM     17  C   UNL     1       1.887   8.838  18.417  0.00  0.00    +0.000 A 
BRANCH  12  19
ATOM     18  C   UNL     1       2.357  11.797  18.060  0.00  0.00    +0.000 C 
ATOM     19  S   UNL     1       1.011  11.330  19.113  0.00  0.00    +0.000 S 
ATOM     20  O   UNL     1       1.143  12.058  20.360  0.00  0.00    +0.000 OA
ATOM     21  O   UNL     1      -0.213  11.403  18.340  0.00  0.00    +0.000 OA
ENDBRANCH  12  19
ENDBRANCH   1  15
BRANCH   8  22
ATOM     22  C   UNL     1       7.025   5.986  18.169  0.00  0.00    +0.000 A 
ATOM     23  C   UNL     1       6.629   6.891  17.165  0.00  0.00    +0.000 A 
ATOM     24  N   UNL     1       7.319   8.034  17.211  0.00  0.00    +0.000 NA
ATOM     25  N   UNL     1       8.147   7.858  18.255  0.00  0.00    +0.000 N 
ATOM     26  C   UNL     1       7.982   6.658  18.893  0.00  0.00    +0.000 A 
BRANCH  25  27
ATOM     27  C   UNL     1       9.138   8.874  18.553  0.00  0.00    +0.000 C 
BRANCH  27  28
ATOM     28  C   UNL     1       8.528  10.261  18.765  0.00  0.00    +0.000 C 
BRANCH  28  29
ATOM     29  C   UNL     1       9.252  11.111  19.815  0.00  0.00    +0.000 C 
BRANCH  29  30
ATOM     30  C   UNL     1       9.987  12.307  19.199  0.00  0.00    +0.000 C 
BRANCH  30  31
ATOM     31  C   UNL     1      11.103  11.940  18.209  0.00  0.00    +0.000 C 
BRANCH  31  32
ATOM     32  C   UNL     1      11.182  12.855  16.989  0.00  0.00    +0.000 C 
BRANCH  32  33
ATOM     33  C   UNL     1      11.197  14.301  17.412  0.00  0.00    +0.000 C 
ATOM     34  O   UNL     1      12.089  14.800  18.095  0.00  0.00    +0.000 OA
ATOM     35  N   UNL     1      10.119  15.022  16.973  0.00  0.00    +0.000 N 
ATOM     36  H   UNL     1       9.228  14.569  16.786  0.00  0.00    +0.000 HD
BRANCH  35  37
ATOM     37  O   UNL     1      10.056  16.343  17.478  0.00  0.00    +0.000 OA
ATOM     38  H   UNL     1      10.770  16.806  16.988  0.00  0.00    +0.000 HD
ENDBRANCH  35  37
ENDBRANCH  32  33
ENDBRANCH  31  32
ENDBRANCH  30  31
ENDBRANCH  29  30
ENDBRANCH  28  29
ENDBRANCH  27  28
ENDBRANCH  25  27
ENDBRANCH   8  22
TORSDOF 11
ENDMDL
MODEL 6
REMARK VINA RESULT:      -7.8      1.216      1.567
REMARK  Name = 
REMARK  12 active torsions:
REMARK  status: ('A' for Active; 'I' for Inactive)
REMARK    1  A    between atoms: C_1  and  S_2
REMARK    2  A    between atoms: S_2  and  C_5
REMARK    3  A    between atoms: C_8  and  N_9
REMARK    4  A    between atoms: N_16  and  C_17
REMARK    5  A    between atoms: N_20  and  C_21
REMARK    6  A    between atoms: C_21  and  C_22
REMARK    7  A    between atoms: C_22  and  C_23
REMARK    8  A    between atoms: C_23  and  C_24
REMARK    9  A    between atoms: C_24  and  C_25
REMARK   10  A    between atoms: C_25  and  C_26
REMARK   11  A    between atoms: C_26  and  C_27
REMARK   12  A    between atoms: N_29  and  O_30
REMARK                            x       y       z     vdW  Elec       q    Type
REMARK                         _______ _______ _______ _____ _____    ______ ____
ROOT
ATOM      1  N   UNL     1       2.303   5.560  20.188  0.00  0.00    +0.000 N 
ATOM      2  C   UNL     1       1.521   4.619  20.839  0.00  0.00    +0.000 A 
ATOM      3  C   UNL     1       2.142   3.390  20.775  0.00  0.00    +0.000 A 
ATOM      4  C   UNL     1       3.375   3.576  20.111  0.00  0.00    +0.000 A 
ATOM      5  C   UNL     1       4.450   2.773  19.749  0.00  0.00    +0.000 A 
ATOM      6  N   UNL     1       5.520   3.319  19.126  0.00  0.00    +0.000 NA
ATOM      7  C   UNL     1       5.534   4.644  18.890  0.00  0.00    +0.000 A 
ATOM      8  N   UNL     1       6.682   5.134  18.254  0.00  0.00    +0.000 N 
ATOM      9  N   UNL     1       4.535   5.488  19.183  0.00  0.00    +0.000 NA
ATOM     10  C   UNL     1       3.470   4.919  19.773  0.00  0.00    +0.000 A 
ATOM     11  H   UNL     1       7.231   4.349  17.931  0.00  0.00    +0.000 HD
ENDROOT
BRANCH   1  15
ATOM     12  C   UNL     1       1.148   9.577  19.554  0.00  0.00    +0.000 A 
ATOM     13  C   UNL     1       0.870   8.969  20.775  0.00  0.00    +0.000 A 
ATOM     14  C   UNL     1       1.269   7.644  20.989  0.00  0.00    +0.000 A 
ATOM     15  C   UNL     1       1.935   6.925  19.981  0.00  0.00    +0.000 A 
ATOM     16  C   UNL     1       2.210   7.554  18.761  0.00  0.00    +0.000 A 
ATOM     17  C   UNL     1       1.826   8.882  18.559  0.00  0.00    +0.000 A 
BRANCH  12  19
ATOM     18  C   UNL     1      -0.999  11.034  18.613  0.00  0.00    +0.000 C 
ATOM     19  S   UNL     1       0.644  11.249  19.238  0.00  0.00    +0.000 S 
ATOM     20  O   UNL     1       1.469  11.767  18.163  0.00  0.00    +0.000 OA
ATOM     21  O   UNL     1       0.557  11.946  20.506  0.00  0.00    +0.000 OA
ENDBRANCH  12  19
ENDBRANCH   1  15
BRANCH   8  22
ATOM     22  C   UNL     1       7.009   6.415  17.987  0.00  0.00    +0.000 A 
ATOM     23  C   UNL     1       6.380   7.328  17.120  0.00  0.00    +0.000 A 
ATOM     24  N   UNL     1       7.008   8.507  17.082  0.00  0.00    +0.000 NA
ATOM     25  N   UNL     1       8.031   8.344  17.938  0.00  0.00    +0.000 N 
ATOM     26  C   UNL     1       8.054   7.117  18.542  0.00  0.00    +0.000 A 
BRANCH  25  27
ATOM     27  C   UNL     1       9.009   9.406  18.084  0.00  0.00    +0.000 C 
BRANCH  27  28
ATOM     28  C   UNL     1       9.015  10.025  19.483  0.00  0.00    +0.000 C 
BRANCH  28  29
ATOM     29  C   UNL     1      10.186  10.981  19.740  0.00  0.00    +0.000 C 
BRANCH  29  30
ATOM     30  C   UNL     1       9.755  12.256  20.474  0.00  0.00    +0.000 C 
BRANCH  30  31
ATOM     31  C   UNL     1      10.836  13.343  20.570  0.00  0.00    +0.000 C 
BRANCH  31  32
ATOM     32  C   UNL     1      11.953  13.207  19.538  0.00  0.00    +0.000 C 
BRANCH  32  33
ATOM     33  C   UNL     1      11.587  13.924  18.264  0.00  0.00    +0.000 C 
ATOM     34  O   UNL     1      11.262  15.109  18.220  0.00  0.00    +0.000 OA
ATOM     35  N   UNL     1      11.640  13.135  17.146  0.00  0.00    +0.000 N 
ATOM     36  H   UNL     1      11.500  12.130  17.208  0.00  0.00    +0.000 HD
BRANCH  35  37
ATOM     37  O   UNL     1      11.167  13.762  15.968  0.00  0.00    +0.000 OA
ATOM     38  H   UNL     1      11.824  14.476  15.812  0.00  0.00    +0.000 HD
ENDBRANCH  35  37
ENDBRANCH  32  33
ENDBRANCH  31  32
ENDBRANCH  30  31
ENDBRANCH  29  30
ENDBRANCH  28  29
ENDBRANCH  27  28
ENDBRANCH  25  27
ENDBRANCH   8  22
TORSDOF 11
ENDMDL
MODEL 7
REMARK VINA RESULT:      -7.7      1.429      1.852
REMARK  Name = 
REMARK  12 active torsions:
REMARK  status: ('A' for Active; 'I' for Inactive)
REMARK    1  A    between atoms: C_1  and  S_2
REMARK    2  A    between atoms: S_2  and  C_5
REMARK    3  A    between atoms: C_8  and  N_9
REMARK    4  A    between atoms: N_16  and  C_17
REMARK    5  A    between atoms: N_20  and  C_21
REMARK    6  A    between atoms: C_21  and  C_22
REMARK    7  A    between atoms: C_22  and  C_23
REMARK    8  A    between atoms: C_23  and  C_24
REMARK    9  A    between atoms: C_24  and  C_25
REMARK   10  A    between atoms: C_25  and  C_26
REMARK   11  A    between atoms: C_26  and  C_27
REMARK   12  A    between atoms: N_29  and  O_30
REMARK                            x       y       z     vdW  Elec       q    Type
REMARK                         _______ _______ _______ _____ _____    ______ ____
ROOT
ATOM      1  N   UNL     1       2.525   5.904  19.667  0.00  0.00    +0.000 N 
ATOM      2  C   UNL     1       1.687   4.910  20.148  0.00  0.00    +0.000 A 
ATOM      3  C   UNL     1       2.334   3.695  20.069  0.00  0.00    +0.000 A 
ATOM      4  C   UNL     1       3.634   3.942  19.574  0.00  0.00    +0.000 A 
ATOM      5  C   UNL     1       4.758   3.178  19.288  0.00  0.00    +0.000 A 
ATOM      6  N   UNL     1       5.885   3.779  18.840  0.00  0.00    +0.000 NA
ATOM      7  C   UNL     1       5.904   5.118  18.706  0.00  0.00    +0.000 A 
ATOM      8  N   UNL     1       7.110   5.664  18.250  0.00  0.00    +0.000 N 
ATOM      9  N   UNL     1       4.861   5.928  18.936  0.00  0.00    +0.000 NA
ATOM     10  C   UNL     1       3.744   5.307  19.350  0.00  0.00    +0.000 A 
ATOM     11  H   UNL     1       7.708   4.911  17.940  0.00  0.00    +0.000 HD
ENDROOT
BRANCH   1  15
ATOM     12  C   UNL     1       1.376   9.947  19.210  0.00  0.00    +0.000 A 
ATOM     13  C   UNL     1       1.215   9.325  20.445  0.00  0.00    +0.000 A 
ATOM     14  C   UNL     1       1.612   7.991  20.598  0.00  0.00    +0.000 A 
ATOM     15  C   UNL     1       2.159   7.278  19.517  0.00  0.00    +0.000 A 
ATOM     16  C   UNL     1       2.317   7.921  18.284  0.00  0.00    +0.000 A 
ATOM     17  C   UNL     1       1.937   9.257  18.141  0.00  0.00    +0.000 A 
BRANCH  12  19
ATOM     18  C   UNL     1       2.237  12.310  18.070  0.00  0.00    +0.000 C 
ATOM     19  S   UNL     1       0.870  11.632  18.970  0.00  0.00    +0.000 S 
ATOM     20  O   UNL     1       0.825  12.272  20.270  0.00  0.00    +0.000 OA
ATOM     21  O   UNL     1      -0.290  11.640  18.100  0.00  0.00    +0.000 OA
ENDBRANCH  12  19
ENDBRANCH   1  15
BRANCH   8  22
ATOM     22  C   UNL     1       7.445   6.965  18.120  0.00  0.00    +0.000 A 
ATOM     23  C   UNL     1       6.886   7.943  17.275  0.00  0.00    +0.000 A 
ATOM     24  N   UNL     1       7.499   9.124  17.392  0.00  0.00    +0.000 NA
ATOM     25  N   UNL     1       8.441   8.898  18.322  0.00  0.00    +0.000 N 
ATOM     26  C   UNL     1       8.425   7.624  18.824  0.00  0.00    +0.000 A 
BRANCH  25  27
ATOM     27  C   UNL     1       9.388   9.949  18.644  0.00  0.00    +0.000 C 
BRANCH  27  28
ATOM     28  C   UNL     1       8.891  10.883  19.748  0.00  0.00    +0.000 C 
BRANCH  28  29
ATOM     29  C   UNL     1       9.982  11.331  20.728  0.00  0.00    +0.000 C 
BRANCH  29  30
ATOM     30  C   UNL     1      11.265  11.777  20.016  0.00  0.00    +0.000 C 
BRANCH  30  31
ATOM     31  C   UNL     1      11.372  13.289  19.764  0.00  0.00    +0.000 C 
BRANCH  31  32
ATOM     32  C   UNL     1      12.236  13.662  18.562  0.00  0.00    +0.000 C 
BRANCH  32  33
ATOM     33  C   UNL     1      11.372  14.056  17.392  0.00  0.00    +0.000 C 
ATOM     34  O   UNL     1      10.531  13.315  16.888  0.00  0.00    +0.000 OA
ATOM     35  N   UNL     1      11.608  15.322  16.926  0.00  0.00    +0.000 N 
ATOM     36  H   UNL     1      12.518  15.760  17.040  0.00  0.00    +0.000 HD
BRANCH  35  37
ATOM     37  O   UNL     1      10.899  15.650  15.745  0.00  0.00    +0.000 OA
ATOM     38  H   UNL     1      11.327  16.483  15.449  0.00  0.00    +0.000 HD
ENDBRANCH  35  37
ENDBRANCH  32  33
ENDBRANCH  31  32
ENDBRANCH  30  31
ENDBRANCH  29  30
ENDBRANCH  28  29
ENDBRANCH  27  28
ENDBRANCH  25  27
ENDBRANCH   8  22
TORSDOF 11
ENDMDL
MODEL 8
REMARK VINA RESULT:      -7.7      0.876      1.476
REMARK  Name = 
REMARK  12 active torsions:
REMARK  status: ('A' for Active; 'I' for Inactive)
REMARK    1  A    between atoms: C_1  and  S_2
REMARK    2  A    between atoms: S_2  and  C_5
REMARK    3  A    between atoms: C_8  and  N_9
REMARK    4  A    between atoms: N_16  and  C_17
REMARK    5  A    between atoms: N_20  and  C_21
REMARK    6  A    between atoms: C_21  and  C_22
REMARK    7  A    between atoms: C_22  and  C_23
REMARK    8  A    between atoms: C_23  and  C_24
REMARK    9  A    between atoms: C_24  and  C_25
REMARK   10  A    between atoms: C_25  and  C_26
REMARK   11  A    between atoms: C_26  and  C_27
REMARK   12  A    between atoms: N_29  and  O_30
REMARK                            x       y       z     vdW  Elec       q    Type
REMARK                         _______ _______ _______ _____ _____    ______ ____
ROOT
ATOM      1  N   UNL     1       1.943   5.125  19.763  0.00  0.00    +0.000 N 
ATOM      2  C   UNL     1       0.902   4.299  20.159  0.00  0.00    +0.000 A 
ATOM      3  C   UNL     1       1.309   2.985  20.077  0.00  0.00    +0.000 A 
ATOM      4  C   UNL     1       2.662   2.989  19.669  0.00  0.00    +0.000 A 
ATOM      5  C   UNL     1       3.637   2.029  19.423  0.00  0.00    +0.000 A 
ATOM      6  N   UNL     1       4.884   2.413  19.064  0.00  0.00    +0.000 NA
ATOM      7  C   UNL     1       5.165   3.726  18.977  0.00  0.00    +0.000 A 
ATOM      8  N   UNL     1       6.481   4.041  18.614  0.00  0.00    +0.000 N 
ATOM      9  N   UNL     1       4.283   4.716  19.174  0.00  0.00    +0.000 NA
ATOM     10  C   UNL     1       3.044   4.312  19.499  0.00  0.00    +0.000 A 
ATOM     11  H   UNL     1       6.944   3.194  18.313  0.00  0.00    +0.000 HD
ENDROOT
BRANCH   1  15
ATOM     12  C   UNL     1       1.614   9.322  19.385  0.00  0.00    +0.000 A 
ATOM     13  C   UNL     1       1.374   8.726  20.620  0.00  0.00    +0.000 A 
ATOM     14  C   UNL     1       1.500   7.336  20.746  0.00  0.00    +0.000 A 
ATOM     15  C   UNL     1       1.856   6.546  19.639  0.00  0.00    +0.000 A 
ATOM     16  C   UNL     1       2.097   7.165  18.407  0.00  0.00    +0.000 A 
ATOM     17  C   UNL     1       1.988   8.552  18.290  0.00  0.00    +0.000 A 
BRANCH  12  19
ATOM     18  C   UNL     1      -0.190  11.226  18.524  0.00  0.00    +0.000 C 
ATOM     19  S   UNL     1       1.449  11.078  19.180  0.00  0.00    +0.000 S 
ATOM     20  O   UNL     1       2.383  11.496  18.153  0.00  0.00    +0.000 OA
ATOM     21  O   UNL     1       1.466  11.694  20.492  0.00  0.00    +0.000 OA
ENDBRANCH  12  19
ENDBRANCH   1  15
BRANCH   8  22
ATOM     22  C   UNL     1       7.064   5.256  18.548  0.00  0.00    +0.000 A 
ATOM     23  C   UNL     1       7.984   5.846  19.436  0.00  0.00    +0.000 A 
ATOM     24  N   UNL     1       8.322   7.085  19.067  0.00  0.00    +0.000 NA
ATOM     25  N   UNL     1       7.624   7.276  17.936  0.00  0.00    +0.000 N 
ATOM     26  C   UNL     1       6.882   6.190  17.556  0.00  0.00    +0.000 A 
BRANCH  25  27
ATOM     27  C   UNL     1       7.662   8.574  17.289  0.00  0.00    +0.000 C 
BRANCH  27  28
ATOM     28  C   UNL     1       8.074   9.702  18.237  0.00  0.00    +0.000 C 
BRANCH  28  29
ATOM     29  C   UNL     1       9.374  10.412  17.839  0.00  0.00    +0.000 C 
BRANCH  29  30
ATOM     30  C   UNL     1       9.948  11.267  18.975  0.00  0.00    +0.000 C 
BRANCH  30  31
ATOM     31  C   UNL     1      11.434  11.629  18.824  0.00  0.00    +0.000 C 
BRANCH  31  32
ATOM     32  C   UNL     1      11.686  12.926  18.059  0.00  0.00    +0.000 C 
BRANCH  32  33
ATOM     33  C   UNL     1      10.568  13.907  18.298  0.00  0.00    +0.000 C 
ATOM     34  O   UNL     1      10.416  14.522  19.351  0.00  0.00    +0.000 OA
ATOM     35  N   UNL     1       9.719  14.055  17.233  0.00  0.00    +0.000 N 
ATOM     36  H   UNL     1       9.584  13.302  16.564  0.00  0.00    +0.000 HD
BRANCH  35  37
ATOM     37  O   UNL     1       8.591  14.869  17.495  0.00  0.00    +0.000 OA
ATOM     38  H   UNL     1       8.231  14.495  18.329  0.00  0.00    +0.000 HD
ENDBRANCH  35  37
ENDBRANCH  32  33
ENDBRANCH  31  32
ENDBRANCH  30  31
ENDBRANCH  29  30
ENDBRANCH  28  29
ENDBRANCH  27  28
ENDBRANCH  25  27
ENDBRANCH   8  22
TORSDOF 11
ENDMDL
MODEL 9
REMARK VINA RESULT:      -7.6      1.528      1.866
REMARK  Name = 
REMARK  12 active torsions:
REMARK  status: ('A' for Active; 'I' for Inactive)
REMARK    1  A    between atoms: C_1  and  S_2
REMARK    2  A    between atoms: S_2  and  C_5
REMARK    3  A    between atoms: C_8  and  N_9
REMARK    4  A    between atoms: N_16  and  C_17
REMARK    5  A    between atoms: N_20  and  C_21
REMARK    6  A    between atoms: C_21  and  C_22
REMARK    7  A    between atoms: C_22  and  C_23
REMARK    8  A    between atoms: C_23  and  C_24
REMARK    9  A    between atoms: C_24  and  C_25
REMARK   10  A    between atoms: C_25  and  C_26
REMARK   11  A    between atoms: C_26  and  C_27
REMARK   12  A    between atoms: N_29  and  O_30
REMARK                            x       y       z     vdW  Elec       q    Type
REMARK                         _______ _______ _______ _____ _____    ______ ____
ROOT
ATOM      1  N   UNL     1       2.197   5.524  20.038  0.00  0.00    +0.000 N 
ATOM      2  C   UNL     1       1.313   4.629  20.618  0.00  0.00    +0.000 A 
ATOM      3  C   UNL     1       1.870   3.369  20.606  0.00  0.00    +0.000 A 
ATOM      4  C   UNL     1       3.163   3.486  20.050  0.00  0.00    +0.000 A 
ATOM      5  C   UNL     1       4.220   2.625  19.781  0.00  0.00    +0.000 A 
ATOM      6  N   UNL     1       5.368   3.111  19.252  0.00  0.00    +0.000 NA
ATOM      7  C   UNL     1       5.473   4.432  19.020  0.00  0.00    +0.000 A 
ATOM      8  N   UNL     1       6.696   4.857  18.485  0.00  0.00    +0.000 N 
ATOM      9  N   UNL     1       4.499   5.329  19.227  0.00  0.00    +0.000 NA
ATOM     10  C   UNL     1       3.359   4.820  19.724  0.00  0.00    +0.000 A 
ATOM     11  H   UNL     1       7.227   4.043  18.209  0.00  0.00    +0.000 HD
ENDROOT
BRANCH   1  15
ATOM     12  C   UNL     1       1.452   9.629  19.354  0.00  0.00    +0.000 A 
ATOM     13  C   UNL     1       1.969   8.846  18.325  0.00  0.00    +0.000 A 
ATOM     14  C   UNL     1       2.199   7.483  18.549  0.00  0.00    +0.000 A 
ATOM     15  C   UNL     1       1.922   6.907  19.801  0.00  0.00    +0.000 A 
ATOM     16  C   UNL     1       1.399   7.709  20.822  0.00  0.00    +0.000 A 
ATOM     17  C   UNL     1       1.154   9.064  20.588  0.00  0.00    +0.000 A 
BRANCH  12  19
ATOM     18  C   UNL     1       2.472  11.814  18.010  0.00  0.00    +0.000 C 
ATOM     19  S   UNL     1       1.163  11.364  19.115  0.00  0.00    +0.000 S 
ATOM     20  O   UNL     1       1.393  12.032  20.381  0.00  0.00    +0.000 OA
ATOM     21  O   UNL     1      -0.095  11.524  18.411  0.00  0.00    +0.000 OA
ENDBRANCH  12  19
ENDBRANCH   1  15
BRANCH   8  22
ATOM     22  C   UNL     1       7.113   6.118  18.248  0.00  0.00    +0.000 A 
ATOM     23  C   UNL     1       6.799   6.969  17.171  0.00  0.00    +0.000 A 
ATOM     24  N   UNL     1       7.429   8.144  17.251  0.00  0.00    +0.000 NA
ATOM     25  N   UNL     1       8.136   8.042  18.390  0.00  0.00    +0.000 N 
ATOM     26  C   UNL     1       7.949   6.859  19.051  0.00  0.00    +0.000 A 
BRANCH  25  27
ATOM     27  C   UNL     1       9.041   9.114  18.760  0.00  0.00    +0.000 C 
BRANCH  27  28
ATOM     28  C   UNL     1       8.775  10.413  17.997  0.00  0.00    +0.000 C 
BRANCH  28  29
ATOM     29  C   UNL     1       9.993  11.337  17.889  0.00  0.00    +0.000 C 
BRANCH  29  30
ATOM     30  C   UNL     1       9.604  12.792  17.604  0.00  0.00    +0.000 C 
BRANCH  30  31
ATOM     31  C   UNL     1       8.648  13.419  18.630  0.00  0.00    +0.000 C 
BRANCH  31  32
ATOM     32  C   UNL     1       7.482  14.187  18.011  0.00  0.00    +0.000 C 
BRANCH  32  33
ATOM     33  C   UNL     1       7.165  15.414  18.827  0.00  0.00    +0.000 C 
ATOM     34  O   UNL     1       7.018  16.533  18.341  0.00  0.00    +0.000 OA
ATOM     35  N   UNL     1       7.057  15.178  20.171  0.00  0.00    +0.000 N 
ATOM     36  H   UNL     1       7.556  14.407  20.608  0.00  0.00    +0.000 HD
BRANCH  35  37
ATOM     37  O   UNL     1       6.894  16.344  20.957  0.00  0.00    +0.000 OA
ATOM     38  H   UNL     1       6.287  16.896  20.418  0.00  0.00    +0.000 HD
ENDBRANCH  35  37
ENDBRANCH  32  33
ENDBRANCH  31  32
ENDBRANCH  30  31
ENDBRANCH  29  30
ENDBRANCH  28  29
ENDBRANCH  27  28
ENDBRANCH  25  27
ENDBRANCH   8  22
TORSDOF 11
ENDMDL
