MODEL 1
REMARK VINA RESULT:      -8.3      0.000      0.000
REMARK  Name = 
REMARK  10 active torsions:
REMARK  status: ('A' for Active; 'I' for Inactive)
REMARK    1  A    between atoms: C_1  and  O_2
REMARK    2  A    between atoms: O_2  and  C_3
REMARK    3  A    between atoms: C_8  and  N_9
REMARK    4  A    between atoms: N_12  and  C_13
REMARK    5  A    between atoms: C_13  and  C_14
REMARK    6  A    between atoms: C_13  and  C_20
REMARK    7  A    between atoms: C_20  and  O_21
REMARK    8  A    between atoms: C_20  and  C_22
REMARK    9  A    between atoms: C_22  and  C_23
REMARK   10  A    between atoms: C_22  and  C_24
REMARK                            x       y       z     vdW  Elec       q    Type
REMARK                         _______ _______ _______ _____ _____    ______ ____
ROOT
ATOM      1  N   UNL     1       7.158   4.636  18.155  0.00  0.00    +0.000 N 
ATOM      2  C   UNL     1       6.747   5.245  19.317  0.00  0.00    +0.000 C 
ATOM      3  O   UNL     1       7.467   5.119  20.312  0.00  0.00    +0.000 OA
ATOM      4  N   UNL     1       5.519   5.813  19.519  0.00  0.00    +0.000 N 
ATOM      5  H   UNL     1       7.871   3.954  18.364  0.00  0.00    +0.000 HD
ATOM      6  H   UNL     1       5.385   6.116  20.474  0.00  0.00    +0.000 HD
ENDROOT
BRANCH   1  12
ATOM      7  C   UNL     1       6.350   3.743  12.822  0.00  0.00    +0.000 A 
ATOM      8  N   UNL     1       7.172   4.612  12.229  0.00  0.00    +0.000 NA
ATOM      9  N   UNL     1       7.634   5.352  13.270  0.00  0.00    +0.000 N 
ATOM     10  C   UNL     1       7.155   4.971  14.500  0.00  0.00    +0.000 A 
ATOM     11  C   UNL     1       7.441   5.338  15.836  0.00  0.00    +0.000 A 
ATOM     12  C   UNL     1       6.707   4.652  16.811  0.00  0.00    +0.000 A 
ATOM     13  N   UNL     1       5.638   3.922  16.469  0.00  0.00    +0.000 NA
ATOM     14  C   UNL     1       5.510   3.425  15.217  0.00  0.00    +0.000 A 
ATOM     15  C   UNL     1       6.251   3.967  14.195  0.00  0.00    +0.000 A 
ATOM     16  H   UNL     1       8.275   6.108  13.062  0.00  0.00    +0.000 HD
BRANCH   7  18
ATOM     17  C   UNL     1       4.516   3.145  11.507  0.00  0.00    +0.000 C 
ATOM     18  O   UNL     1       5.718   2.755  12.153  0.00  0.00    +0.000 OA
ENDBRANCH   7  18
ENDBRANCH   1  12
BRANCH   4  19
ATOM     19  C   UNL     1       4.338   5.713  18.673  0.00  0.00    +0.000 C 
BRANCH  19  20
ATOM     20  C   UNL     1       3.345   4.563  19.010  0.00  0.00    +0.000 A 
ATOM     21  C   UNL     1       3.003   4.279  20.339  0.00  0.00    +0.000 A 
ATOM     22  C   UNL     1       1.875   3.514  20.669  0.00  0.00    +0.000 A 
ATOM     23  C   UNL     1       1.037   3.015  19.682  0.00  0.00    +0.000 A 
ATOM     24  C   UNL     1       1.365   3.228  18.352  0.00  0.00    +0.000 A 
ATOM     25  C   UNL     1       2.526   3.946  18.025  0.00  0.00    +0.000 A 
ENDBRANCH  19  20
BRANCH  19  26
ATOM     26  C   UNL     1       3.820   6.978  17.881  0.00  0.00    +0.000 C 
BRANCH  26  27
ATOM     27  C   UNL     1       2.397   7.566  18.188  0.00  0.00    +0.000 C 
ATOM     28  C   UNL     1       1.986   7.716  19.662  0.00  0.00    +0.000 C 
ATOM     29  C   UNL     1       2.293   8.980  17.580  0.00  0.00    +0.000 C 
ENDBRANCH  26  27
BRANCH  26  30
ATOM     30  O   UNL     1       3.971   6.794  16.470  0.00  0.00    +0.000 OA
ATOM     31  H   UNL     1       4.367   7.600  16.106  0.00  0.00    +0.000 HD
ENDBRANCH  26  30
ENDBRANCH  19  26
ENDBRANCH   4  19
TORSDOF 7
ENDMDL
MODEL 2
REMARK VINA RESULT:      -7.1      0.692      1.192
REMARK  Name = 
REMARK  10 active torsions:
REMARK  status: ('A' for Active; 'I' for Inactive)
REMARK    1  A    between atoms: C_1  and  O_2
REMARK    2  A    between atoms: O_2  and  C_3
REMARK    3  A    between atoms: C_8  and  N_9
REMARK    4  A    between atoms: N_12  and  C_13
REMARK    5  A    between atoms: C_13  and  C_14
REMARK    6  A    between atoms: C_13  and  C_20
REMARK    7  A    between atoms: C_20  and  O_21
REMARK    8  A    between atoms: C_20  and  C_22
REMARK    9  A    between atoms: C_22  and  C_23
REMARK   10  A    between atoms: C_22  and  C_24
REMARK                            x       y       z     vdW  Elec       q    Type
REMARK                         _______ _______ _______ _____ _____    ______ ____
ROOT
ATOM      1  N   UNL     1       7.361   4.671  18.169  0.00  0.00    +0.000 N 
ATOM      2  C   UNL     1       6.982   5.260  19.351  0.00  0.00    +0.000 C 
ATOM      3  O   UNL     1       7.749   5.154  20.314  0.00  0.00    +0.000 OA
ATOM      4  N   UNL     1       5.745   5.786  19.610  0.00  0.00    +0.000 N 
ATOM      5  H   UNL     1       8.105   4.012  18.342  0.00  0.00    +0.000 HD
ATOM      6  H   UNL     1       5.643   6.079  20.573  0.00  0.00    +0.000 HD
ENDROOT
BRANCH   1  12
ATOM      7  C   UNL     1       6.342   3.769  12.874  0.00  0.00    +0.000 A 
ATOM      8  N   UNL     1       7.117   4.658  12.248  0.00  0.00    +0.000 NA
ATOM      9  N   UNL     1       7.606   5.408  13.270  0.00  0.00    +0.000 N 
ATOM     10  C   UNL     1       7.190   5.013  14.519  0.00  0.00    +0.000 A 
ATOM     11  C   UNL     1       7.526   5.384  15.841  0.00  0.00    +0.000 A 
ATOM     12  C   UNL     1       6.852   4.679  16.846  0.00  0.00    +0.000 A 
ATOM     13  N   UNL     1       5.786   3.925  16.549  0.00  0.00    +0.000 NA
ATOM     14  C   UNL     1       5.616   3.426  15.302  0.00  0.00    +0.000 A 
ATOM     15  C   UNL     1       6.298   3.988  14.251  0.00  0.00    +0.000 A 
ATOM     16  H   UNL     1       8.220   6.179  13.036  0.00  0.00    +0.000 HD
BRANCH   7  18
ATOM     17  C   UNL     1       4.490   3.141  11.599  0.00  0.00    +0.000 C 
ATOM     18  O   UNL     1       5.705   2.767  12.230  0.00  0.00    +0.000 OA
ENDBRANCH   7  18
ENDBRANCH   1  12
BRANCH   4  19
ATOM     19  C   UNL     1       4.532   5.650  18.816  0.00  0.00    +0.000 C 
BRANCH  19  20
ATOM     20  C   UNL     1       3.494   4.605  19.317  0.00  0.00    +0.000 A 
ATOM     21  C   UNL     1       3.471   3.308  18.786  0.00  0.00    +0.000 A 
ATOM     22  C   UNL     1       2.812   2.252  19.434  0.00  0.00    +0.000 A 
ATOM     23  C   UNL     1       2.163   2.451  20.644  0.00  0.00    +0.000 A 
ATOM     24  C   UNL     1       2.116   3.729  21.179  0.00  0.00    +0.000 A 
ATOM     25  C   UNL     1       2.728   4.793  20.500  0.00  0.00    +0.000 A 
ENDBRANCH  19  20
BRANCH  19  26
ATOM     26  C   UNL     1       4.053   6.838  17.891  0.00  0.00    +0.000 C 
BRANCH  26  27
ATOM     27  C   UNL     1       2.675   7.538  18.167  0.00  0.00    +0.000 C 
ATOM     28  C   UNL     1       2.471   8.962  17.623  0.00  0.00    +0.000 C 
ATOM     29  C   UNL     1       1.545   6.688  17.547  0.00  0.00    +0.000 C 
ENDBRANCH  26  27
BRANCH  26  30
ATOM     30  O   UNL     1       4.144   6.478  16.510  0.00  0.00    +0.000 OA
ATOM     31  H   UNL     1       4.812   5.781  16.428  0.00  0.00    +0.000 HD
ENDBRANCH  26  30
ENDBRANCH  19  26
ENDBRANCH   4  19
TORSDOF 7
ENDMDL
MODEL 3
REMARK VINA RESULT:      -6.8      0.921      1.118
REMARK  Name = 
REMARK  10 active torsions:
REMARK  status: ('A' for Active; 'I' for Inactive)
REMARK    1  A    between atoms: C_1  and  O_2
REMARK    2  A    between atoms: O_2  and  C_3
REMARK    3  A    between atoms: C_8  and  N_9
REMARK    4  A    between atoms: N_12  and  C_13
REMARK    5  A    between atoms: C_13  and  C_14
REMARK    6  A    between atoms: C_13  and  C_20
REMARK    7  A    between atoms: C_20  and  O_21
REMARK    8  A    between atoms: C_20  and  C_22
REMARK    9  A    between atoms: C_22  and  C_23
REMARK   10  A    between atoms: C_22  and  C_24
REMARK                            x       y       z     vdW  Elec       q    Type
REMARK                         _______ _______ _______ _____ _____    ______ ____
ROOT
ATOM      1  N   UNL     1       7.690   4.660  17.804  0.00  0.00    +0.000 N 
ATOM      2  C   UNL     1       7.312   5.161  19.027  0.00  0.00    +0.000 C 
ATOM      3  O   UNL     1       8.141   5.119  19.942  0.00  0.00    +0.000 OA
ATOM      4  N   UNL     1       6.038   5.523  19.372  0.00  0.00    +0.000 N 
ATOM      5  H   UNL     1       8.517   4.093  17.912  0.00  0.00    +0.000 HD
ATOM      6  H   UNL     1       5.958   5.771  20.349  0.00  0.00    +0.000 HD
ENDROOT
BRANCH   1  12
ATOM      7  C   UNL     1       6.370   3.668  12.592  0.00  0.00    +0.000 A 
ATOM      8  N   UNL     1       7.113   4.541  11.907  0.00  0.00    +0.000 NA
ATOM      9  N   UNL     1       7.662   5.306  12.886  0.00  0.00    +0.000 N 
ATOM     10  C   UNL     1       7.316   4.937  14.164  0.00  0.00    +0.000 A 
ATOM     11  C   UNL     1       7.727   5.329  15.458  0.00  0.00    +0.000 A 
ATOM     12  C   UNL     1       7.107   4.647  16.512  0.00  0.00    +0.000 A 
ATOM     13  N   UNL     1       6.023   3.894  16.290  0.00  0.00    +0.000 NA
ATOM     14  C   UNL     1       5.780   3.374  15.064  0.00  0.00    +0.000 A 
ATOM     15  C   UNL     1       6.404   3.912  13.965  0.00  0.00    +0.000 A 
ATOM     16  H   UNL     1       8.266   6.069  12.604  0.00  0.00    +0.000 HD
BRANCH   7  18
ATOM     17  C   UNL     1       6.498   1.739  11.284  0.00  0.00    +0.000 C 
ATOM     18  O   UNL     1       5.693   2.658  12.004  0.00  0.00    +0.000 OA
ENDBRANCH   7  18
ENDBRANCH   1  12
BRANCH   4  19
ATOM     19  C   UNL     1       4.806   5.264  18.640  0.00  0.00    +0.000 C 
BRANCH  19  20
ATOM     20  C   UNL     1       3.983   4.023  19.092  0.00  0.00    +0.000 A 
ATOM     21  C   UNL     1       3.415   3.969  20.372  0.00  0.00    +0.000 A 
ATOM     22  C   UNL     1       2.396   3.060  20.695  0.00  0.00    +0.000 A 
ATOM     23  C   UNL     1       1.897   2.181  19.745  0.00  0.00    +0.000 A 
ATOM     24  C   UNL     1       2.465   2.165  18.480  0.00  0.00    +0.000 A 
ATOM     25  C   UNL     1       3.523   3.036  18.179  0.00  0.00    +0.000 A 
ENDBRANCH  19  20
BRANCH  19  26
ATOM     26  C   UNL     1       4.080   6.438  17.870  0.00  0.00    +0.000 C 
BRANCH  26  27
ATOM     27  C   UNL     1       2.568   6.745  18.157  0.00  0.00    +0.000 C 
ATOM     28  C   UNL     1       1.539   5.645  17.843  0.00  0.00    +0.000 C 
ATOM     29  C   UNL     1       2.393   7.064  19.657  0.00  0.00    +0.000 C 
ENDBRANCH  26  27
BRANCH  26  30
ATOM     30  O   UNL     1       4.291   6.329  16.459  0.00  0.00    +0.000 OA
ATOM     31  H   UNL     1       4.623   7.183  16.142  0.00  0.00    +0.000 HD
ENDBRANCH  26  30
ENDBRANCH  19  26
ENDBRANCH   4  19
TORSDOF 7
ENDMDL
MODEL 4
REMARK VINA RESULT:      -6.8      2.054      6.033
REMARK  Name = 
REMARK  10 active torsions:
REMARK  status: ('A' for Active; 'I' for Inactive)
REMARK    1  A    between atoms: C_1  and  O_2
REMARK    2  A    between atoms: O_2  and  C_3
REMARK    3  A    between atoms: C_8  and  N_9
REMARK    4  A    between atoms: N_12  and  C_13
REMARK    5  A    between atoms: C_13  and  C_14
REMARK    6  A    between atoms: C_13  and  C_20
REMARK    7  A    between atoms: C_20  and  O_21
REMARK    8  A    between atoms: C_20  and  C_22
REMARK    9  A    between atoms: C_22  and  C_23
REMARK   10  A    between atoms: C_22  and  C_24
REMARK                            x       y       z     vdW  Elec       q    Type
REMARK                         _______ _______ _______ _____ _____    ______ ____
ROOT
ATOM      1  N   UNL     1       6.318   5.813  18.290  0.00  0.00    +0.000 N 
ATOM      2  C   UNL     1       6.987   4.686  17.875  0.00  0.00    +0.000 C 
ATOM      3  O   UNL     1       8.212   4.660  18.032  0.00  0.00    +0.000 OA
ATOM      4  N   UNL     1       6.445   3.676  17.128  0.00  0.00    +0.000 N 
ATOM      5  H   UNL     1       6.975   6.564  18.431  0.00  0.00    +0.000 HD
ATOM      6  H   UNL     1       7.133   2.991  16.845  0.00  0.00    +0.000 HD
ENDROOT
BRANCH   1  12
ATOM      7  C   UNL     1       1.535   8.128  19.575  0.00  0.00    +0.000 A 
ATOM      8  N   UNL     1       1.124   7.434  20.639  0.00  0.00    +0.000 NA
ATOM      9  N   UNL     1       2.036   6.430  20.717  0.00  0.00    +0.000 N 
ATOM     10  C   UNL     1       3.021   6.475  19.759  0.00  0.00    +0.000 A 
ATOM     11  C   UNL     1       4.216   5.756  19.527  0.00  0.00    +0.000 A 
ATOM     12  C   UNL     1       4.952   6.170  18.410  0.00  0.00    +0.000 A 
ATOM     13  N   UNL     1       4.405   6.987  17.501  0.00  0.00    +0.000 NA
ATOM     14  C   UNL     1       3.381   7.807  17.834  0.00  0.00    +0.000 A 
ATOM     15  C   UNL     1       2.644   7.544  18.963  0.00  0.00    +0.000 A 
ATOM     16  H   UNL     1       1.920   5.745  21.453  0.00  0.00    +0.000 HD
BRANCH   7  18
ATOM     17  C   UNL     1       0.744  10.234  20.197  0.00  0.00    +0.000 C 
ATOM     18  O   UNL     1       0.944   9.274  19.172  0.00  0.00    +0.000 OA
ENDBRANCH   7  18
ENDBRANCH   1  12
BRANCH   4  19
ATOM     19  C   UNL     1       5.161   3.663  16.440  0.00  0.00    +0.000 C 
BRANCH  19  20
ATOM     20  C   UNL     1       3.903   3.457  17.332  0.00  0.00    +0.000 A 
ATOM     21  C   UNL     1       2.680   4.050  16.992  0.00  0.00    +0.000 A 
ATOM     22  C   UNL     1       1.466   3.620  17.548  0.00  0.00    +0.000 A 
ATOM     23  C   UNL     1       1.428   2.570  18.454  0.00  0.00    +0.000 A 
ATOM     24  C   UNL     1       2.619   1.987  18.858  0.00  0.00    +0.000 A 
ATOM     25  C   UNL     1       3.837   2.459  18.343  0.00  0.00    +0.000 A 
ENDBRANCH  19  20
BRANCH  19  26
ATOM     26  C   UNL     1       5.008   4.369  15.035  0.00  0.00    +0.000 C 
BRANCH  26  27
ATOM     27  C   UNL     1       5.748   3.784  13.780  0.00  0.00    +0.000 C 
ATOM     28  C   UNL     1       4.961   3.687  12.462  0.00  0.00    +0.000 C 
ATOM     29  C   UNL     1       6.980   4.658  13.467  0.00  0.00    +0.000 C 
ENDBRANCH  26  27
BRANCH  26  30
ATOM     30  O   UNL     1       5.270   5.772  15.138  0.00  0.00    +0.000 OA
ATOM     31  H   UNL     1       4.792   6.216  14.420  0.00  0.00    +0.000 HD
ENDBRANCH  26  30
ENDBRANCH  19  26
ENDBRANCH   4  19
TORSDOF 7
ENDMDL
MODEL 5
REMARK VINA RESULT:      -6.8      2.687      6.217
REMARK  Name = 
REMARK  10 active torsions:
REMARK  status: ('A' for Active; 'I' for Inactive)
REMARK    1  A    between atoms: C_1  and  O_2
REMARK    2  A    between atoms: O_2  and  C_3
REMARK    3  A    between atoms: C_8  and  N_9
REMARK    4  A    between atoms: N_12  and  C_13
REMARK    5  A    between atoms: C_13  and  C_14
REMARK    6  A    between atoms: C_13  and  C_20
REMARK    7  A    between atoms: C_20  and  O_21
REMARK    8  A    between atoms: C_20  and  C_22
REMARK    9  A    between atoms: C_22  and  C_23
REMARK   10  A    between atoms: C_22  and  C_24
REMARK                            x       y       z     vdW  Elec       q    Type
REMARK                         _______ _______ _______ _____ _____    ______ ____
ROOT
ATOM      1  N   UNL     1       2.497   6.438  18.043  0.00  0.00    +0.000 N 
ATOM      2  C   UNL     1       3.341   7.400  17.542  0.00  0.00    +0.000 C 
ATOM      3  O   UNL     1       2.840   8.474  17.195  0.00  0.00    +0.000 OA
ATOM      4  N   UNL     1       4.655   7.204  17.214  0.00  0.00    +0.000 N 
ATOM      5  H   UNL     1       1.544   6.669  17.810  0.00  0.00    +0.000 HD
ATOM      6  H   UNL     1       5.067   8.013  16.768  0.00  0.00    +0.000 HD
ENDROOT
BRANCH   1  12
ATOM      7  C   UNL     1       4.497   1.774  20.076  0.00  0.00    +0.000 A 
ATOM      8  N   UNL     1       4.393   0.916  19.059  0.00  0.00    +0.000 NA
ATOM      9  N   UNL     1       3.697   1.626  18.133  0.00  0.00    +0.000 N 
ATOM     10  C   UNL     1       3.378   2.906  18.516  0.00  0.00    +0.000 A 
ATOM     11  C   UNL     1       2.804   4.024  17.867  0.00  0.00    +0.000 A 
ATOM     12  C   UNL     1       2.684   5.174  18.657  0.00  0.00    +0.000 A 
ATOM     13  N   UNL     1       2.847   5.107  19.984  0.00  0.00    +0.000 NA
ATOM     14  C   UNL     1       3.581   4.115  20.543  0.00  0.00    +0.000 A 
ATOM     15  C   UNL     1       3.834   2.974  19.822  0.00  0.00    +0.000 A 
ATOM     16  H   UNL     1       3.472   1.166  17.259  0.00  0.00    +0.000 HD
BRANCH   7  18
ATOM     17  C   UNL     1       5.701   0.176  21.280  0.00  0.00    +0.000 C 
ATOM     18  O   UNL     1       5.191   1.498  21.202  0.00  0.00    +0.000 OA
ENDBRANCH   7  18
ENDBRANCH   1  12
BRANCH   4  19
ATOM     19  C   UNL     1       5.371   5.941  17.110  0.00  0.00    +0.000 C 
BRANCH  19  20
ATOM     20  C   UNL     1       5.633   5.413  15.669  0.00  0.00    +0.000 A 
ATOM     21  C   UNL     1       6.874   5.612  15.048  0.00  0.00    +0.000 A 
ATOM     22  C   UNL     1       7.270   4.869  13.926  0.00  0.00    +0.000 A 
ATOM     23  C   UNL     1       6.446   3.890  13.391  0.00  0.00    +0.000 A 
ATOM     24  C   UNL     1       5.189   3.695  13.942  0.00  0.00    +0.000 A 
ATOM     25  C   UNL     1       4.773   4.479  15.028  0.00  0.00    +0.000 A 
ENDBRANCH  19  20
BRANCH  19  26
ATOM     26  C   UNL     1       6.298   5.456  18.294  0.00  0.00    +0.000 C 
BRANCH  26  27
ATOM     27  C   UNL     1       7.736   6.064  18.462  0.00  0.00    +0.000 C 
ATOM     28  C   UNL     1       7.919   7.563  18.175  0.00  0.00    +0.000 C 
ATOM     29  C   UNL     1       8.204   5.856  19.918  0.00  0.00    +0.000 C 
ENDBRANCH  26  27
BRANCH  26  30
ATOM     30  O   UNL     1       6.372   4.027  18.331  0.00  0.00    +0.000 OA
ATOM     31  H   UNL     1       6.432   3.709  17.418  0.00  0.00    +0.000 HD
ENDBRANCH  26  30
ENDBRANCH  19  26
ENDBRANCH   4  19
TORSDOF 7
ENDMDL
MODEL 6
REMARK VINA RESULT:      -6.6      2.065      5.852
REMARK  Name = 
REMARK  10 active torsions:
REMARK  status: ('A' for Active; 'I' for Inactive)
REMARK    1  A    between atoms: C_1  and  O_2
REMARK    2  A    between atoms: O_2  and  C_3
REMARK    3  A    between atoms: C_8  and  N_9
REMARK    4  A    between atoms: N_12  and  C_13
REMARK    5  A    between atoms: C_13  and  C_14
REMARK    6  A    between atoms: C_13  and  C_20
REMARK    7  A    between atoms: C_20  and  O_21
REMARK    8  A    between atoms: C_20  and  C_22
REMARK    9  A    between atoms: C_22  and  C_23
REMARK   10  A    between atoms: C_22  and  C_24
REMARK                            x       y       z     vdW  Elec       q    Type
REMARK                         _______ _______ _______ _____ _____    ______ ____
ROOT
ATOM      1  N   UNL     1       6.328   5.837  18.369  0.00  0.00    +0.000 N 
ATOM      2  C   UNL     1       6.988   4.674  18.052  0.00  0.00    +0.000 C 
ATOM      3  O   UNL     1       8.188   4.604  18.335  0.00  0.00    +0.000 OA
ATOM      4  N   UNL     1       6.483   3.666  17.277  0.00  0.00    +0.000 N 
ATOM      5  H   UNL     1       6.999   6.566  18.559  0.00  0.00    +0.000 HD
ATOM      6  H   UNL     1       7.167   2.946  17.084  0.00  0.00    +0.000 HD
ENDROOT
BRANCH   1  12
ATOM      7  C   UNL     1       1.579   8.487  18.930  0.00  0.00    +0.000 A 
ATOM      8  N   UNL     1       1.080   8.002  20.070  0.00  0.00    +0.000 NA
ATOM      9  N   UNL     1       1.944   7.000  20.377  0.00  0.00    +0.000 N 
ATOM     10  C   UNL     1       2.983   6.847  19.490  0.00  0.00    +0.000 A 
ATOM     11  C   UNL     1       4.158   6.062  19.462  0.00  0.00    +0.000 A 
ATOM     12  C   UNL     1       4.973   6.251  18.338  0.00  0.00    +0.000 A 
ATOM     13  N   UNL     1       4.514   6.914  17.270  0.00  0.00    +0.000 NA
ATOM     14  C   UNL     1       3.506   7.811  17.390  0.00  0.00    +0.000 A 
ATOM     15  C   UNL     1       2.696   7.771  18.499  0.00  0.00    +0.000 A 
ATOM     16  H   UNL     1       1.758   6.457  21.212  0.00  0.00    +0.000 HD
BRANCH   7  18
ATOM     17  C   UNL     1       0.614  10.600  19.158  0.00  0.00    +0.000 C 
ATOM     18  O   UNL     1       1.060   9.562  18.299  0.00  0.00    +0.000 OA
ENDBRANCH   7  18
ENDBRANCH   1  12
BRANCH   4  19
ATOM     19  C   UNL     1       5.277   3.684  16.462  0.00  0.00    +0.000 C 
BRANCH  19  20
ATOM     20  C   UNL     1       3.940   3.385  17.200  0.00  0.00    +0.000 A 
ATOM     21  C   UNL     1       3.938   2.724  18.436  0.00  0.00    +0.000 A 
ATOM     22  C   UNL     1       2.824   2.746  19.288  0.00  0.00    +0.000 A 
ATOM     23  C   UNL     1       1.674   3.442  18.943  0.00  0.00    +0.000 A 
ATOM     24  C   UNL     1       1.614   4.069  17.707  0.00  0.00    +0.000 A 
ATOM     25  C   UNL     1       2.710   3.996  16.834  0.00  0.00    +0.000 A 
ENDBRANCH  19  20
BRANCH  19  26
ATOM     26  C   UNL     1       5.249   4.497  15.106  0.00  0.00    +0.000 C 
BRANCH  26  27
ATOM     27  C   UNL     1       5.868   3.871  13.806  0.00  0.00    +0.000 C 
ATOM     28  C   UNL     1       4.967   3.760  12.564  0.00  0.00    +0.000 C 
ATOM     29  C   UNL     1       7.081   4.717  13.367  0.00  0.00    +0.000 C 
ENDBRANCH  26  27
BRANCH  26  30
ATOM     30  O   UNL     1       5.759   5.820  15.294  0.00  0.00    +0.000 OA
ATOM     31  H   UNL     1       6.029   5.905  16.222  0.00  0.00    +0.000 HD
ENDBRANCH  26  30
ENDBRANCH  19  26
ENDBRANCH   4  19
TORSDOF 7
ENDMDL
MODEL 7
REMARK VINA RESULT:      -6.4      2.606      6.376
REMARK  Name = 
REMARK  10 active torsions:
REMARK  status: ('A' for Active; 'I' for Inactive)
REMARK    1  A    between atoms: C_1  and  O_2
REMARK    2  A    between atoms: O_2  and  C_3
REMARK    3  A    between atoms: C_8  and  N_9
REMARK    4  A    between atoms: N_12  and  C_13
REMARK    5  A    between atoms: C_13  and  C_14
REMARK    6  A    between atoms: C_13  and  C_20
REMARK    7  A    between atoms: C_20  and  O_21
REMARK    8  A    between atoms: C_20  and  C_22
REMARK    9  A    between atoms: C_22  and  C_23
REMARK   10  A    between atoms: C_22  and  C_24
REMARK                            x       y       z     vdW  Elec       q    Type
REMARK                         _______ _______ _______ _____ _____    ______ ____
ROOT
ATOM      1  N   UNL     1       2.677   6.085  17.762  0.00  0.00    +0.000 N 
ATOM      2  C   UNL     1       3.529   7.014  17.215  0.00  0.00    +0.000 C 
ATOM      3  O   UNL     1       3.026   8.029  16.723  0.00  0.00    +0.000 OA
ATOM      4  N   UNL     1       4.866   6.825  16.993  0.00  0.00    +0.000 N 
ATOM      5  H   UNL     1       1.736   6.260  17.446  0.00  0.00    +0.000 HD
ATOM      6  H   UNL     1       5.287   7.594  16.490  0.00  0.00    +0.000 HD
ENDROOT
BRANCH   1  12
ATOM      7  C   UNL     1       4.640   1.683  20.343  0.00  0.00    +0.000 A 
ATOM      8  N   UNL     1       4.548   0.714  19.429  0.00  0.00    +0.000 NA
ATOM      9  N   UNL     1       3.866   1.314  18.419  0.00  0.00    +0.000 N 
ATOM     10  C   UNL     1       3.544   2.630  18.648  0.00  0.00    +0.000 A 
ATOM     11  C   UNL     1       2.981   3.666  17.868  0.00  0.00    +0.000 A 
ATOM     12  C   UNL     1       2.852   4.899  18.519  0.00  0.00    +0.000 A 
ATOM     13  N   UNL     1       2.998   4.984  19.847  0.00  0.00    +0.000 NA
ATOM     14  C   UNL     1       3.721   4.063  20.526  0.00  0.00    +0.000 A 
ATOM     15  C   UNL     1       3.982   2.846  19.944  0.00  0.00    +0.000 A 
ATOM     16  H   UNL     1       3.652   0.758  17.600  0.00  0.00    +0.000 HD
BRANCH   7  18
ATOM     17  C   UNL     1       5.803   0.227  21.750  0.00  0.00    +0.000 C 
ATOM     18  O   UNL     1       5.318   1.538  21.503  0.00  0.00    +0.000 OA
ENDBRANCH   7  18
ENDBRANCH   1  12
BRANCH   4  19
ATOM     19  C   UNL     1       5.617   5.580  17.071  0.00  0.00    +0.000 C 
BRANCH  19  20
ATOM     20  C   UNL     1       5.980   4.907  15.715  0.00  0.00    +0.000 A 
ATOM     21  C   UNL     1       4.992   4.287  14.937  0.00  0.00    +0.000 A 
ATOM     22  C   UNL     1       5.194   3.989  13.581  0.00  0.00    +0.000 A 
ATOM     23  C   UNL     1       6.385   4.312  12.948  0.00  0.00    +0.000 A 
ATOM     24  C   UNL     1       7.409   4.880  13.692  0.00  0.00    +0.000 A 
ATOM     25  C   UNL     1       7.223   5.124  15.061  0.00  0.00    +0.000 A 
ENDBRANCH  19  20
BRANCH  19  26
ATOM     26  C   UNL     1       6.480   5.254  18.354  0.00  0.00    +0.000 C 
BRANCH  26  27
ATOM     27  C   UNL     1       7.867   5.960  18.564  0.00  0.00    +0.000 C 
ATOM     28  C   UNL     1       7.959   7.466  18.267  0.00  0.00    +0.000 C 
ATOM     29  C   UNL     1       8.297   5.797  20.037  0.00  0.00    +0.000 C 
ENDBRANCH  26  27
BRANCH  26  30
ATOM     30  O   UNL     1       6.627   3.842  18.524  0.00  0.00    +0.000 OA
ATOM     31  H   UNL     1       7.451   3.685  19.011  0.00  0.00    +0.000 HD
ENDBRANCH  26  30
ENDBRANCH  19  26
ENDBRANCH   4  19
TORSDOF 7
ENDMDL
MODEL 8
REMARK VINA RESULT:      -6.4      6.147      9.312
REMARK  Name = 
REMARK  10 active torsions:
REMARK  status: ('A' for Active; 'I' for Inactive)
REMARK    1  A    between atoms: C_1  and  O_2
REMARK    2  A    between atoms: O_2  and  C_3
REMARK    3  A    between atoms: C_8  and  N_9
REMARK    4  A    between atoms: N_12  and  C_13
REMARK    5  A    between atoms: C_13  and  C_14
REMARK    6  A    between atoms: C_13  and  C_20
REMARK    7  A    between atoms: C_20  and  O_21
REMARK    8  A    between atoms: C_20  and  C_22
REMARK    9  A    between atoms: C_22  and  C_23
REMARK   10  A    between atoms: C_22  and  C_24
REMARK                            x       y       z     vdW  Elec       q    Type
REMARK                         _______ _______ _______ _____ _____    ______ ____
ROOT
ATOM      1  N   UNL     1       1.145  12.680  20.485  0.00  0.00    +0.000 N 
ATOM      2  C   UNL     1       0.398  13.806  20.235  0.00  0.00    +0.000 C 
ATOM      3  O   UNL     1       0.866  14.892  20.593  0.00  0.00    +0.000 OA
ATOM      4  N   UNL     1      -0.899  13.813  19.801  0.00  0.00    +0.000 N 
ATOM      5  H   UNL     1       1.860  12.892  21.163  0.00  0.00    +0.000 HD
ATOM      6  H   UNL     1      -1.295  14.743  19.777  0.00  0.00    +0.000 HD
ENDROOT
BRANCH   1  12
ATOM      7  C   UNL     1       2.039   7.412  19.328  0.00  0.00    +0.000 A 
ATOM      8  N   UNL     1       2.291   7.415  18.016  0.00  0.00    +0.000 NA
ATOM      9  N   UNL     1       2.024   8.699  17.660  0.00  0.00    +0.000 N 
ATOM     10  C   UNL     1       1.637   9.513  18.697  0.00  0.00    +0.000 A 
ATOM     11  C   UNL     1       1.396  10.899  18.836  0.00  0.00    +0.000 A 
ATOM     12  C   UNL     1       1.035  11.314  20.124  0.00  0.00    +0.000 A 
ATOM     13  N   UNL     1       0.684  10.417  21.053  0.00  0.00    +0.000 NA
ATOM     14  C   UNL     1       1.112   9.135  20.975  0.00  0.00    +0.000 A 
ATOM     15  C   UNL     1       1.571   8.647  19.776  0.00  0.00    +0.000 A 
ATOM     16  H   UNL     1       2.126   8.947  16.683  0.00  0.00    +0.000 HD
BRANCH   7  18
ATOM     17  C   UNL     1       2.203   5.086  19.438  0.00  0.00    +0.000 C 
ATOM     18  O   UNL     1       2.247   6.333  20.113  0.00  0.00    +0.000 OA
ENDBRANCH   7  18
ENDBRANCH   1  12
BRANCH   4  19
ATOM     19  C   UNL     1      -1.821  12.688  19.722  0.00  0.00    +0.000 C 
BRANCH  19  20
ATOM     20  C   UNL     1      -2.757  12.477  20.947  0.00  0.00    +0.000 A 
ATOM     21  C   UNL     1      -2.226  12.228  22.220  0.00  0.00    +0.000 A 
ATOM     22  C   UNL     1      -2.990  12.380  23.386  0.00  0.00    +0.000 A 
ATOM     23  C   UNL     1      -4.310  12.802  23.325  0.00  0.00    +0.000 A 
ATOM     24  C   UNL     1      -4.892  13.011  22.084  0.00  0.00    +0.000 A 
ATOM     25  C   UNL     1      -4.141  12.801  20.917  0.00  0.00    +0.000 A 
ENDBRANCH  19  20
BRANCH  19  26
ATOM     26  C   UNL     1      -2.240  12.104  18.315  0.00  0.00    +0.000 C 
BRANCH  26  27
ATOM     27  C   UNL     1      -2.600  10.583  18.174  0.00  0.00    +0.000 C 
ATOM     28  C   UNL     1      -4.050  10.217  17.817  0.00  0.00    +0.000 C 
ATOM     29  C   UNL     1      -1.727   9.958  17.065  0.00  0.00    +0.000 C 
ENDBRANCH  26  27
BRANCH  26  30
ATOM     30  O   UNL     1      -1.293  12.471  17.308  0.00  0.00    +0.000 OA
ATOM     31  H   UNL     1      -0.547  12.908  17.747  0.00  0.00    +0.000 HD
ENDBRANCH  26  30
ENDBRANCH  19  26
ENDBRANCH   4  19
TORSDOF 7
ENDMDL
MODEL 9
REMARK VINA RESULT:      -6.4      7.059     10.617
REMARK  Name = 
REMARK  10 active torsions:
REMARK  status: ('A' for Active; 'I' for Inactive)
REMARK    1  A    between atoms: C_1  and  O_2
REMARK    2  A    between atoms: O_2  and  C_3
REMARK    3  A    between atoms: C_8  and  N_9
REMARK    4  A    between atoms: N_12  and  C_13
REMARK    5  A    between atoms: C_13  and  C_14
REMARK    6  A    between atoms: C_13  and  C_20
REMARK    7  A    between atoms: C_20  and  O_21
REMARK    8  A    between atoms: C_20  and  C_22
REMARK    9  A    between atoms: C_22  and  C_23
REMARK   10  A    between atoms: C_22  and  C_24
REMARK                            x       y       z     vdW  Elec       q    Type
REMARK                         _______ _______ _______ _____ _____    ______ ____
ROOT
ATOM      1  N   UNL     1       1.969  11.372  18.038  0.00  0.00    +0.000 N 
ATOM      2  C   UNL     1       1.816  10.010  18.142  0.00  0.00    +0.000 C 
ATOM      3  O   UNL     1       2.445   9.303  17.348  0.00  0.00    +0.000 OA
ATOM      4  N   UNL     1       0.884   9.377  18.918  0.00  0.00    +0.000 N 
ATOM      5  H   UNL     1       2.382  11.599  17.147  0.00  0.00    +0.000 HD
ATOM      6  H   UNL     1       0.875   8.376  18.773  0.00  0.00    +0.000 HD
ENDROOT
BRANCH   1  12
ATOM      7  C   UNL     1      -0.769  14.925  21.164  0.00  0.00    +0.000 A 
ATOM      8  N   UNL     1      -1.400  15.702  20.280  0.00  0.00    +0.000 NA
ATOM      9  N   UNL     1      -0.886  15.290  19.093  0.00  0.00    +0.000 N 
ATOM     10  C   UNL     1       0.027  14.266  19.188  0.00  0.00    +0.000 A 
ATOM     11  C   UNL     1       0.702  13.446  18.255  0.00  0.00    +0.000 A 
ATOM     12  C   UNL     1       1.549  12.481  18.814  0.00  0.00    +0.000 A 
ATOM     13  N   UNL     1       1.885  12.540  20.109  0.00  0.00    +0.000 NA
ATOM     14  C   UNL     1       1.092  13.177  21.002  0.00  0.00    +0.000 A 
ATOM     15  C   UNL     1       0.162  14.084  20.554  0.00  0.00    +0.000 A 
ATOM     16  H   UNL     1      -1.205  15.758  18.253  0.00  0.00    +0.000 HD
BRANCH   7  18
ATOM     17  C   UNL     1      -2.405  15.121  22.817  0.00  0.00    +0.000 C 
ATOM     18  O   UNL     1      -1.036  14.951  22.488  0.00  0.00    +0.000 OA
ENDBRANCH   7  18
ENDBRANCH   1  12
BRANCH   4  19
ATOM     19  C   UNL     1      -0.256   9.967  19.606  0.00  0.00    +0.000 C 
BRANCH  19  20
ATOM     20  C   UNL     1      -1.360  10.588  18.702  0.00  0.00    +0.000 A 
ATOM     21  C   UNL     1      -1.647  10.041  17.444  0.00  0.00    +0.000 A 
ATOM     22  C   UNL     1      -2.837  10.331  16.761  0.00  0.00    +0.000 A 
ATOM     23  C   UNL     1      -3.794  11.168  17.318  0.00  0.00    +0.000 A 
ATOM     24  C   UNL     1      -3.530  11.772  18.538  0.00  0.00    +0.000 A 
ATOM     25  C   UNL     1      -2.313  11.524  19.191  0.00  0.00    +0.000 A 
ENDBRANCH  19  20
BRANCH  19  26
ATOM     26  C   UNL     1      -0.621   9.507  21.072  0.00  0.00    +0.000 C 
BRANCH  26  27
ATOM     27  C   UNL     1      -0.307  10.449  22.289  0.00  0.00    +0.000 C 
ATOM     28  C   UNL     1      -1.428  11.378  22.785  0.00  0.00    +0.000 C 
ATOM     29  C   UNL     1       0.089   9.586  23.505  0.00  0.00    +0.000 C 
ENDBRANCH  26  27
BRANCH  26  30
ATOM     30  O   UNL     1      -0.117   8.195  21.336  0.00  0.00    +0.000 OA
ATOM     31  H   UNL     1       0.402   8.235  22.154  0.00  0.00    +0.000 HD
ENDBRANCH  26  30
ENDBRANCH  19  26
ENDBRANCH   4  19
TORSDOF 7
ENDMDL
