MODEL 1
REMARK VINA RESULT:      -8.0      0.000      0.000
REMARK  Name = 
REMARK  7 active torsions:
REMARK  status: ('A' for Active; 'I' for Inactive)
REMARK    1  A    between atoms: C_2  and  C_10
REMARK    2  A    between atoms: N_3  and  C_4
REMARK    3  A    between atoms: C_4  and  C_5
REMARK    4  A    between atoms: C_10  and  N_21
REMARK    5  A    between atoms: C_11  and  C_12
REMARK    6  A    between atoms: C_16  and  N_17
REMARK    7  A    between atoms: C_22  and  C_24
REMARK                            x       y       z     vdW  Elec       q    Type
REMARK                         _______ _______ _______ _____ _____    ______ ____
ROOT
ATOM      1  C   UNL     1       2.585   7.446  18.001  0.00  0.00    +0.000 C 
ATOM      2  C   UNL     1       3.832   7.532  17.486  0.00  0.00    +0.000 C 
ENDROOT
BRANCH   2   3
ATOM      3  C   UNL     1       4.850   6.485  17.363  0.00  0.00    +0.000 A 
ATOM      4  C   UNL     1       5.353   5.823  18.490  0.00  0.00    +0.000 A 
ATOM      5  C   UNL     1       6.332   4.839  18.350  0.00  0.00    +0.000 A 
ATOM      6  C   UNL     1       6.822   4.512  17.085  0.00  0.00    +0.000 A 
ATOM      7  C   UNL     1       6.326   5.185  15.960  0.00  0.00    +0.000 A 
ATOM      8  C   UNL     1       5.349   6.177  16.094  0.00  0.00    +0.000 A 
BRANCH   7   9
ATOM      9  N   UNL     1       6.826   4.844  14.626  0.00  0.00    +0.000 N 
ATOM     10  O   UNL     1       7.776   5.506  14.179  0.00  0.00    +0.000 OA
ATOM     11  O   UNL     1       6.278   3.911  14.020  0.00  0.00    +0.000 OA
ENDBRANCH   7   9
ENDBRANCH   2   3
BRANCH   1  13
ATOM     12  O   UNL     1       2.171   6.036  19.913  0.00  0.00    +0.000 OA
ATOM     13  C   UNL     1       2.162   6.152  18.689  0.00  0.00    +0.000 C 
ATOM     14  N   UNL     1       1.732   5.103  17.897  0.00  0.00    +0.000 N 
ATOM     15  H   UNL     1       1.954   5.053  16.912  0.00  0.00    +0.000 HD
BRANCH  14  16
ATOM     16  C   UNL     1       1.420   3.865  18.592  0.00  0.00    +0.000 C 
BRANCH  16  17
ATOM     17  C   UNL     1       2.570   2.938  18.719  0.00  0.00    +0.000 A 
ATOM     18  C   UNL     1       2.995   1.891  17.922  0.00  0.00    +0.000 A 
ATOM     19  C   UNL     1       4.089   1.294  18.589  0.00  0.00    +0.000 A 
ATOM     20  C   UNL     1       4.260   2.008  19.751  0.00  0.00    +0.000 A 
ATOM     21  O   UNL     1       3.345   3.010  19.841  0.00  0.00    +0.000 OA
ENDBRANCH  16  17
ENDBRANCH  14  16
ENDBRANCH   1  13
BRANCH   1  22
ATOM     22  N   UNL     1       1.686   8.509  17.975  0.00  0.00    +0.000 N 
ATOM     23  C   UNL     1       1.216   9.257  19.057  0.00  0.00    +0.000 C 
ATOM     24  O   UNL     1       1.520   9.069  20.231  0.00  0.00    +0.000 OA
ATOM     25  H   UNL     1       1.282   8.751  17.076  0.00  0.00    +0.000 HD
BRANCH  23  26
ATOM     26  C   UNL     1       0.303  10.318  18.695  0.00  0.00    +0.000 A 
ATOM     27  C   UNL     1      -0.953  10.253  18.107  0.00  0.00    +0.000 A 
ATOM     28  C   UNL     1      -1.428  11.582  18.011  0.00  0.00    +0.000 A 
ATOM     29  C   UNL     1      -0.432  12.375  18.530  0.00  0.00    +0.000 A 
ATOM     30  O   UNL     1       0.622  11.625  18.948  0.00  0.00    +0.000 OA
ENDBRANCH  23  26
ENDBRANCH   1  22
TORSDOF 7
ENDMDL
MODEL 2
REMARK VINA RESULT:      -7.9      0.890      1.051
REMARK  Name = 
REMARK  7 active torsions:
REMARK  status: ('A' for Active; 'I' for Inactive)
REMARK    1  A    between atoms: C_2  and  C_10
REMARK    2  A    between atoms: N_3  and  C_4
REMARK    3  A    between atoms: C_4  and  C_5
REMARK    4  A    between atoms: C_10  and  N_21
REMARK    5  A    between atoms: C_11  and  C_12
REMARK    6  A    between atoms: C_16  and  N_17
REMARK    7  A    between atoms: C_22  and  C_24
REMARK                            x       y       z     vdW  Elec       q    Type
REMARK                         _______ _______ _______ _____ _____    ______ ____
ROOT
ATOM      1  C   UNL     1       2.857   7.367  17.984  0.00  0.00    +0.000 C 
ATOM      2  C   UNL     1       4.138   7.506  17.577  0.00  0.00    +0.000 C 
ENDROOT
BRANCH   2   3
ATOM      3  C   UNL     1       5.149   6.469  17.350  0.00  0.00    +0.000 A 
ATOM      4  C   UNL     1       5.762   5.804  18.420  0.00  0.00    +0.000 A 
ATOM      5  C   UNL     1       6.732   4.829  18.181  0.00  0.00    +0.000 A 
ATOM      6  C   UNL     1       7.102   4.514  16.872  0.00  0.00    +0.000 A 
ATOM      7  C   UNL     1       6.495   5.191  15.804  0.00  0.00    +0.000 A 
ATOM      8  C   UNL     1       5.527   6.173  16.038  0.00  0.00    +0.000 A 
BRANCH   7   9
ATOM      9  N   UNL     1       6.869   4.862  14.426  0.00  0.00    +0.000 N 
ATOM     10  O   UNL     1       7.799   5.504  13.912  0.00  0.00    +0.000 OA
ATOM     11  O   UNL     1       6.241   3.960  13.852  0.00  0.00    +0.000 OA
ENDBRANCH   7   9
ENDBRANCH   2   3
BRANCH   1  13
ATOM     12  O   UNL     1       1.894   5.188  17.611  0.00  0.00    +0.000 OA
ATOM     13  C   UNL     1       2.369   5.988  18.416  0.00  0.00    +0.000 C 
ATOM     14  N   UNL     1       2.500   5.637  19.747  0.00  0.00    +0.000 N 
ATOM     15  H   UNL     1       2.627   6.330  20.470  0.00  0.00    +0.000 HD
BRANCH  14  16
ATOM     16  C   UNL     1       1.945   4.347  20.124  0.00  0.00    +0.000 C 
BRANCH  16  17
ATOM     17  C   UNL     1       2.803   3.193  19.763  0.00  0.00    +0.000 A 
ATOM     18  C   UNL     1       4.088   2.853  20.144  0.00  0.00    +0.000 A 
ATOM     19  C   UNL     1       4.437   1.700  19.403  0.00  0.00    +0.000 A 
ATOM     20  C   UNL     1       3.348   1.412  18.616  0.00  0.00    +0.000 A 
ATOM     21  O   UNL     1       2.348   2.310  18.826  0.00  0.00    +0.000 OA
ENDBRANCH  16  17
ENDBRANCH  14  16
ENDBRANCH   1  13
BRANCH   1  22
ATOM     22  N   UNL     1       1.977   8.442  18.076  0.00  0.00    +0.000 N 
ATOM     23  C   UNL     1       1.382   8.963  19.226  0.00  0.00    +0.000 C 
ATOM     24  O   UNL     1       1.535   8.525  20.363  0.00  0.00    +0.000 OA
ATOM     25  H   UNL     1       1.690   8.879  17.207  0.00  0.00    +0.000 HD
BRANCH  23  26
ATOM     26  C   UNL     1       0.529  10.107  18.990  0.00  0.00    +0.000 A 
ATOM     27  C   UNL     1      -0.851  10.179  18.856  0.00  0.00    +0.000 A 
ATOM     28  C   UNL     1      -1.173  11.544  18.678  0.00  0.00    +0.000 A 
ATOM     29  C   UNL     1       0.025  12.219  18.699  0.00  0.00    +0.000 A 
ATOM     30  O   UNL     1       1.064  11.362  18.887  0.00  0.00    +0.000 OA
ENDBRANCH  23  26
ENDBRANCH   1  22
TORSDOF 7
ENDMDL
MODEL 3
REMARK VINA RESULT:      -7.8      2.249      6.895
REMARK  Name = 
REMARK  7 active torsions:
REMARK  status: ('A' for Active; 'I' for Inactive)
REMARK    1  A    between atoms: C_2  and  C_10
REMARK    2  A    between atoms: N_3  and  C_4
REMARK    3  A    between atoms: C_4  and  C_5
REMARK    4  A    between atoms: C_10  and  N_21
REMARK    5  A    between atoms: C_11  and  C_12
REMARK    6  A    between atoms: C_16  and  N_17
REMARK    7  A    between atoms: C_22  and  C_24
REMARK                            x       y       z     vdW  Elec       q    Type
REMARK                         _______ _______ _______ _____ _____    ______ ____
ROOT
ATOM      1  C   UNL     1       4.008   5.349  16.798  0.00  0.00    +0.000 C 
ATOM      2  C   UNL     1       3.806   6.528  17.428  0.00  0.00    +0.000 C 
ENDROOT
BRANCH   2   3
ATOM      3  C   UNL     1       3.011   6.807  18.627  0.00  0.00    +0.000 A 
ATOM      4  C   UNL     1       2.930   5.883  19.677  0.00  0.00    +0.000 A 
ATOM      5  C   UNL     1       2.156   6.164  20.804  0.00  0.00    +0.000 A 
ATOM      6  C   UNL     1       1.452   7.366  20.889  0.00  0.00    +0.000 A 
ATOM      7  C   UNL     1       1.526   8.283  19.831  0.00  0.00    +0.000 A 
ATOM      8  C   UNL     1       2.295   8.004  18.696  0.00  0.00    +0.000 A 
BRANCH   7   9
ATOM      9  N   UNL     1       0.798   9.552  19.914  0.00  0.00    +0.000 N 
ATOM     10  O   UNL     1       0.111   9.889  18.937  0.00  0.00    +0.000 OA
ATOM     11  O   UNL     1       0.905  10.217  20.956  0.00  0.00    +0.000 OA
ENDBRANCH   7   9
ENDBRANCH   2   3
BRANCH   1  13
ATOM     12  O   UNL     1       2.027   3.991  17.016  0.00  0.00    +0.000 OA
ATOM     13  C   UNL     1       3.224   4.126  17.262  0.00  0.00    +0.000 C 
ATOM     14  N   UNL     1       3.904   3.139  17.953  0.00  0.00    +0.000 N 
ATOM     15  H   UNL     1       4.791   3.318  18.402  0.00  0.00    +0.000 HD
BRANCH  14  16
ATOM     16  C   UNL     1       3.098   2.035  18.446  0.00  0.00    +0.000 C 
BRANCH  16  17
ATOM     17  C   UNL     1       2.463   2.291  19.762  0.00  0.00    +0.000 A 
ATOM     18  C   UNL     1       1.149   2.544  20.112  0.00  0.00    +0.000 A 
ATOM     19  C   UNL     1       1.146   2.817  21.498  0.00  0.00    +0.000 A 
ATOM     20  C   UNL     1       2.454   2.719  21.907  0.00  0.00    +0.000 A 
ATOM     21  O   UNL     1       3.264   2.398  20.862  0.00  0.00    +0.000 OA
ENDBRANCH  16  17
ENDBRANCH  14  16
ENDBRANCH   1  13
BRANCH   1  22
ATOM     22  N   UNL     1       4.863   5.216  15.708  0.00  0.00    +0.000 N 
ATOM     23  C   UNL     1       6.182   4.757  15.708  0.00  0.00    +0.000 C 
ATOM     24  O   UNL     1       6.810   4.410  16.703  0.00  0.00    +0.000 OA
ATOM     25  H   UNL     1       4.516   5.529  14.808  0.00  0.00    +0.000 HD
BRANCH  23  26
ATOM     26  C   UNL     1       6.797   4.714  14.400  0.00  0.00    +0.000 A 
ATOM     27  C   UNL     1       6.441   3.990  13.270  0.00  0.00    +0.000 A 
ATOM     28  C   UNL     1       7.355   4.348  12.251  0.00  0.00    +0.000 A 
ATOM     29  C   UNL     1       8.218   5.253  12.822  0.00  0.00    +0.000 A 
ATOM     30  O   UNL     1       7.893   5.485  14.122  0.00  0.00    +0.000 OA
ENDBRANCH  23  26
ENDBRANCH   1  22
TORSDOF 7
ENDMDL
MODEL 4
REMARK VINA RESULT:      -7.6      1.829      2.201
REMARK  Name = 
REMARK  7 active torsions:
REMARK  status: ('A' for Active; 'I' for Inactive)
REMARK    1  A    between atoms: C_2  and  C_10
REMARK    2  A    between atoms: N_3  and  C_4
REMARK    3  A    between atoms: C_4  and  C_5
REMARK    4  A    between atoms: C_10  and  N_21
REMARK    5  A    between atoms: C_11  and  C_12
REMARK    6  A    between atoms: C_16  and  N_17
REMARK    7  A    between atoms: C_22  and  C_24
REMARK                            x       y       z     vdW  Elec       q    Type
REMARK                         _______ _______ _______ _____ _____    ______ ____
ROOT
ATOM      1  C   UNL     1       2.758   7.555  18.103  0.00  0.00    +0.000 C 
ATOM      2  C   UNL     1       3.901   7.732  17.404  0.00  0.00    +0.000 C 
ENDROOT
BRANCH   2   3
ATOM      3  C   UNL     1       4.868   6.728  16.952  0.00  0.00    +0.000 A 
ATOM      4  C   UNL     1       4.813   6.197  15.656  0.00  0.00    +0.000 A 
ATOM      5  C   UNL     1       5.737   5.232  15.252  0.00  0.00    +0.000 A 
ATOM      6  C   UNL     1       6.718   4.785  16.138  0.00  0.00    +0.000 A 
ATOM      7  C   UNL     1       6.762   5.310  17.438  0.00  0.00    +0.000 A 
ATOM      8  C   UNL     1       5.835   6.272  17.851  0.00  0.00    +0.000 A 
BRANCH   7   9
ATOM      9  N   UNL     1       7.793   4.854  18.374  0.00  0.00    +0.000 N 
ATOM     10  O   UNL     1       7.767   5.309  19.528  0.00  0.00    +0.000 OA
ATOM     11  O   UNL     1       8.631   4.036  17.963  0.00  0.00    +0.000 OA
ENDBRANCH   7   9
ENDBRANCH   2   3
BRANCH   1  13
ATOM     12  O   UNL     1       1.835   5.330  17.976  0.00  0.00    +0.000 OA
ATOM     13  C   UNL     1       2.438   6.166  18.647  0.00  0.00    +0.000 C 
ATOM     14  N   UNL     1       2.871   5.849  19.921  0.00  0.00    +0.000 N 
ATOM     15  H   UNL     1       3.123   6.562  20.591  0.00  0.00    +0.000 HD
BRANCH  14  16
ATOM     16  C   UNL     1       2.470   4.546  20.425  0.00  0.00    +0.000 C 
BRANCH  16  17
ATOM     17  C   UNL     1       3.137   3.407  19.749  0.00  0.00    +0.000 A 
ATOM     18  C   UNL     1       4.465   3.174  19.441  0.00  0.00    +0.000 A 
ATOM     19  C   UNL     1       4.503   1.971  18.700  0.00  0.00    +0.000 A 
ATOM     20  C   UNL     1       3.200   1.548  18.598  0.00  0.00    +0.000 A 
ATOM     21  O   UNL     1       2.360   2.410  19.233  0.00  0.00    +0.000 OA
ENDBRANCH  16  17
ENDBRANCH  14  16
ENDBRANCH   1  13
BRANCH   1  22
ATOM     22  N   UNL     1       1.884   8.600  18.393  0.00  0.00    +0.000 N 
ATOM     23  C   UNL     1       1.365   8.959  19.638  0.00  0.00    +0.000 C 
ATOM     24  O   UNL     1       1.594   8.377  20.694  0.00  0.00    +0.000 OA
ATOM     25  H   UNL     1       1.539   9.144  17.609  0.00  0.00    +0.000 HD
BRANCH  23  26
ATOM     26  C   UNL     1       0.497  10.115  19.610  0.00  0.00    +0.000 A 
ATOM     27  C   UNL     1       0.039  10.912  20.651  0.00  0.00    +0.000 A 
ATOM     28  C   UNL     1      -0.748  11.932  20.067  0.00  0.00    +0.000 A 
ATOM     29  C   UNL     1      -0.735  11.689  18.713  0.00  0.00    +0.000 A 
ATOM     30  O   UNL     1       0.015  10.593  18.422  0.00  0.00    +0.000 OA
ENDBRANCH  23  26
ENDBRANCH   1  22
TORSDOF 7
ENDMDL
MODEL 5
REMARK VINA RESULT:      -7.6      3.772      8.074
REMARK  Name = 
REMARK  7 active torsions:
REMARK  status: ('A' for Active; 'I' for Inactive)
REMARK    1  A    between atoms: C_2  and  C_10
REMARK    2  A    between atoms: N_3  and  C_4
REMARK    3  A    between atoms: C_4  and  C_5
REMARK    4  A    between atoms: C_10  and  N_21
REMARK    5  A    between atoms: C_11  and  C_12
REMARK    6  A    between atoms: C_16  and  N_17
REMARK    7  A    between atoms: C_22  and  C_24
REMARK                            x       y       z     vdW  Elec       q    Type
REMARK                         _______ _______ _______ _____ _____    ______ ____
ROOT
ATOM      1  C   UNL     1       4.930   4.128  16.758  0.00  0.00    +0.000 C 
ATOM      2  C   UNL     1       3.655   4.012  17.192  0.00  0.00    +0.000 C 
ENDROOT
BRANCH   2   3
ATOM      3  C   UNL     1       3.082   4.412  18.480  0.00  0.00    +0.000 A 
ATOM      4  C   UNL     1       2.725   5.742  18.736  0.00  0.00    +0.000 A 
ATOM      5  C   UNL     1       2.193   6.102  19.975  0.00  0.00    +0.000 A 
ATOM      6  C   UNL     1       2.020   5.140  20.971  0.00  0.00    +0.000 A 
ATOM      7  C   UNL     1       2.390   3.812  20.715  0.00  0.00    +0.000 A 
ATOM      8  C   UNL     1       2.929   3.446  19.478  0.00  0.00    +0.000 A 
BRANCH   7   9
ATOM      9  N   UNL     1       2.204   2.791  21.750  0.00  0.00    +0.000 N 
ATOM     10  O   UNL     1       3.184   2.092  22.054  0.00  0.00    +0.000 OA
ATOM     11  O   UNL     1       1.082   2.685  22.267  0.00  0.00    +0.000 OA
ENDBRANCH   7   9
ENDBRANCH   2   3
BRANCH   1  13
ATOM     12  O   UNL     1       6.329   3.930  18.712  0.00  0.00    +0.000 OA
ATOM     13  C   UNL     1       5.999   4.602  17.737  0.00  0.00    +0.000 C 
ATOM     14  N   UNL     1       6.621   5.812  17.486  0.00  0.00    +0.000 N 
ATOM     15  H   UNL     1       6.214   6.504  16.874  0.00  0.00    +0.000 HD
BRANCH  14  16
ATOM     16  C   UNL     1       7.572   6.260  18.490  0.00  0.00    +0.000 C 
BRANCH  16  17
ATOM     17  C   UNL     1       8.008   7.667  18.322  0.00  0.00    +0.000 A 
ATOM     18  C   UNL     1       8.825   8.472  19.096  0.00  0.00    +0.000 A 
ATOM     19  C   UNL     1       8.803   9.756  18.505  0.00  0.00    +0.000 A 
ATOM     20  C   UNL     1       7.974   9.656  17.414  0.00  0.00    +0.000 A 
ATOM     21  O   UNL     1       7.486   8.392  17.290  0.00  0.00    +0.000 OA
ENDBRANCH  16  17
ENDBRANCH  14  16
ENDBRANCH   1  13
BRANCH   1  22
ATOM     22  N   UNL     1       5.318   3.780  15.467  0.00  0.00    +0.000 N 
ATOM     23  C   UNL     1       5.875   4.608  14.490  0.00  0.00    +0.000 C 
ATOM     24  O   UNL     1       6.094   5.808  14.622  0.00  0.00    +0.000 OA
ATOM     25  H   UNL     1       5.139   2.826  15.171  0.00  0.00    +0.000 HD
BRANCH  23  26
ATOM     26  C   UNL     1       6.193   3.935  13.250  0.00  0.00    +0.000 A 
ATOM     27  C   UNL     1       7.290   4.082  12.411  0.00  0.00    +0.000 A 
ATOM     28  C   UNL     1       7.125   3.153  11.357  0.00  0.00    +0.000 A 
ATOM     29  C   UNL     1       5.935   2.509  11.607  0.00  0.00    +0.000 A 
ATOM     30  O   UNL     1       5.360   2.972  12.749  0.00  0.00    +0.000 OA
ENDBRANCH  23  26
ENDBRANCH   1  22
TORSDOF 7
ENDMDL
MODEL 6
REMARK VINA RESULT:      -7.5      1.842      4.492
REMARK  Name = 
REMARK  7 active torsions:
REMARK  status: ('A' for Active; 'I' for Inactive)
REMARK    1  A    between atoms: C_2  and  C_10
REMARK    2  A    between atoms: N_3  and  C_4
REMARK    3  A    between atoms: C_4  and  C_5
REMARK    4  A    between atoms: C_10  and  N_21
REMARK    5  A    between atoms: C_11  and  C_12
REMARK    6  A    between atoms: C_16  and  N_17
REMARK    7  A    between atoms: C_22  and  C_24
REMARK                            x       y       z     vdW  Elec       q    Type
REMARK                         _______ _______ _______ _____ _____    ______ ____
ROOT
ATOM      1  C   UNL     1       2.674   6.987  18.121  0.00  0.00    +0.000 C 
ATOM      2  C   UNL     1       1.978   5.869  18.426  0.00  0.00    +0.000 C 
ENDROOT
BRANCH   2   3
ATOM      3  C   UNL     1       2.442   4.479  18.470  0.00  0.00    +0.000 A 
ATOM      4  C   UNL     1       2.362   3.650  17.344  0.00  0.00    +0.000 A 
ATOM      5  C   UNL     1       2.798   2.326  17.413  0.00  0.00    +0.000 A 
ATOM      6  C   UNL     1       3.312   1.817  18.607  0.00  0.00    +0.000 A 
ATOM      7  C   UNL     1       3.379   2.647  19.735  0.00  0.00    +0.000 A 
ATOM      8  C   UNL     1       2.938   3.973  19.675  0.00  0.00    +0.000 A 
BRANCH   7   9
ATOM      9  N   UNL     1       3.924   2.127  20.992  0.00  0.00    +0.000 N 
ATOM     10  O   UNL     1       3.194   2.158  21.995  0.00  0.00    +0.000 OA
ATOM     11  O   UNL     1       5.082   1.681  20.983  0.00  0.00    +0.000 OA
ENDBRANCH   7   9
ENDBRANCH   2   3
BRANCH   1  13
ATOM     12  O   UNL     1       4.474   7.368  16.562  0.00  0.00    +0.000 OA
ATOM     13  C   UNL     1       4.105   6.845  17.612  0.00  0.00    +0.000 C 
ATOM     14  N   UNL     1       5.003   6.129  18.382  0.00  0.00    +0.000 N 
ATOM     15  H   UNL     1       4.696   5.476  19.089  0.00  0.00    +0.000 HD
BRANCH  14  16
ATOM     16  C   UNL     1       6.330   5.952  17.815  0.00  0.00    +0.000 C 
BRANCH  16  17
ATOM     17  C   UNL     1       6.339   5.239  16.514  0.00  0.00    +0.000 A 
ATOM     18  C   UNL     1       5.699   4.087  16.096  0.00  0.00    +0.000 A 
ATOM     19  C   UNL     1       6.161   3.821  14.787  0.00  0.00    +0.000 A 
ATOM     20  C   UNL     1       7.055   4.821  14.490  0.00  0.00    +0.000 A 
ATOM     21  O   UNL     1       7.171   5.690  15.530  0.00  0.00    +0.000 OA
ENDBRANCH  16  17
ENDBRANCH  14  16
ENDBRANCH   1  13
BRANCH   1  22
ATOM     22  N   UNL     1       2.121   8.262  18.203  0.00  0.00    +0.000 N 
ATOM     23  C   UNL     1       1.570   8.885  19.325  0.00  0.00    +0.000 C 
ATOM     24  O   UNL     1       1.471   8.377  20.438  0.00  0.00    +0.000 OA
ATOM     25  H   UNL     1       2.063   8.796  17.342  0.00  0.00    +0.000 HD
BRANCH  23  26
ATOM     26  C   UNL     1       1.098  10.231  19.087  0.00  0.00    +0.000 A 
ATOM     27  C   UNL     1       1.761  11.328  18.554  0.00  0.00    +0.000 A 
ATOM     28  C   UNL     1       0.825  12.386  18.505  0.00  0.00    +0.000 A 
ATOM     29  C   UNL     1      -0.344  11.879  19.023  0.00  0.00    +0.000 A 
ATOM     30  O   UNL     1      -0.193  10.575  19.380  0.00  0.00    +0.000 OA
ENDBRANCH  23  26
ENDBRANCH   1  22
TORSDOF 7
ENDMDL
MODEL 7
REMARK VINA RESULT:      -7.5      2.069      6.935
REMARK  Name = 
REMARK  7 active torsions:
REMARK  status: ('A' for Active; 'I' for Inactive)
REMARK    1  A    between atoms: C_2  and  C_10
REMARK    2  A    between atoms: N_3  and  C_4
REMARK    3  A    between atoms: C_4  and  C_5
REMARK    4  A    between atoms: C_10  and  N_21
REMARK    5  A    between atoms: C_11  and  C_12
REMARK    6  A    between atoms: C_16  and  N_17
REMARK    7  A    between atoms: C_22  and  C_24
REMARK                            x       y       z     vdW  Elec       q    Type
REMARK                         _______ _______ _______ _____ _____    ______ ____
ROOT
ATOM      1  C   UNL     1       4.537   5.656  16.885  0.00  0.00    +0.000 C 
ATOM      2  C   UNL     1       3.824   6.769  17.169  0.00  0.00    +0.000 C 
ENDROOT
BRANCH   2   3
ATOM      3  C   UNL     1       3.018   7.067  18.357  0.00  0.00    +0.000 A 
ATOM      4  C   UNL     1       2.895   6.143  19.403  0.00  0.00    +0.000 A 
ATOM      5  C   UNL     1       2.112   6.443  20.518  0.00  0.00    +0.000 A 
ATOM      6  C   UNL     1       1.440   7.664  20.596  0.00  0.00    +0.000 A 
ATOM      7  C   UNL     1       1.556   8.581  19.541  0.00  0.00    +0.000 A 
ATOM      8  C   UNL     1       2.334   8.283  18.417  0.00  0.00    +0.000 A 
BRANCH   7   9
ATOM      9  N   UNL     1       0.862   9.869  19.615  0.00  0.00    +0.000 N 
ATOM     10  O   UNL     1       0.225  10.123  20.650  0.00  0.00    +0.000 OA
ATOM     11  O   UNL     1       0.953  10.636  18.644  0.00  0.00    +0.000 OA
ENDBRANCH   7   9
ENDBRANCH   2   3
BRANCH   1  13
ATOM     12  O   UNL     1       5.160   4.318  18.791  0.00  0.00    +0.000 OA
ATOM     13  C   UNL     1       4.424   4.454  17.816  0.00  0.00    +0.000 C 
ATOM     14  N   UNL     1       3.440   3.517  17.555  0.00  0.00    +0.000 N 
ATOM     15  H   UNL     1       3.003   3.442  16.648  0.00  0.00    +0.000 HD
BRANCH  14  16
ATOM     16  C   UNL     1       3.426   2.349  18.420  0.00  0.00    +0.000 C 
BRANCH  16  17
ATOM     17  C   UNL     1       2.618   2.521  19.651  0.00  0.00    +0.000 A 
ATOM     18  C   UNL     1       1.266   2.749  19.836  0.00  0.00    +0.000 A 
ATOM     19  C   UNL     1       1.073   2.934  21.224  0.00  0.00    +0.000 A 
ATOM     20  C   UNL     1       2.315   2.811  21.798  0.00  0.00    +0.000 A 
ATOM     21  O   UNL     1       3.262   2.558  20.854  0.00  0.00    +0.000 OA
ENDBRANCH  16  17
ENDBRANCH  14  16
ENDBRANCH   1  13
BRANCH   1  22
ATOM     22  N   UNL     1       5.331   5.543  15.747  0.00  0.00    +0.000 N 
ATOM     23  C   UNL     1       5.952   4.396  15.248  0.00  0.00    +0.000 C 
ATOM     24  O   UNL     1       5.903   3.284  15.766  0.00  0.00    +0.000 OA
ATOM     25  H   UNL     1       5.529   6.397  15.235  0.00  0.00    +0.000 HD
BRANCH  23  26
ATOM     26  C   UNL     1       6.694   4.604  14.024  0.00  0.00    +0.000 A 
ATOM     27  C   UNL     1       6.541   4.015  12.777  0.00  0.00    +0.000 A 
ATOM     28  C   UNL     1       7.500   4.608  11.924  0.00  0.00    +0.000 A 
ATOM     29  C   UNL     1       8.188   5.510  12.703  0.00  0.00    +0.000 A 
ATOM     30  O   UNL     1       7.711   5.518  13.976  0.00  0.00    +0.000 OA
ENDBRANCH  23  26
ENDBRANCH   1  22
TORSDOF 7
ENDMDL
MODEL 8
REMARK VINA RESULT:      -7.4      1.850      4.977
REMARK  Name = 
REMARK  7 active torsions:
REMARK  status: ('A' for Active; 'I' for Inactive)
REMARK    1  A    between atoms: C_2  and  C_10
REMARK    2  A    between atoms: N_3  and  C_4
REMARK    3  A    between atoms: C_4  and  C_5
REMARK    4  A    between atoms: C_10  and  N_21
REMARK    5  A    between atoms: C_11  and  C_12
REMARK    6  A    between atoms: C_16  and  N_17
REMARK    7  A    between atoms: C_22  and  C_24
REMARK                            x       y       z     vdW  Elec       q    Type
REMARK                         _______ _______ _______ _____ _____    ______ ____
ROOT
ATOM      1  C   UNL     1       2.500   7.172  18.293  0.00  0.00    +0.000 C 
ATOM      2  C   UNL     1       1.577   6.216  18.544  0.00  0.00    +0.000 C 
ENDROOT
BRANCH   2   3
ATOM      3  C   UNL     1       1.775   4.778  18.747  0.00  0.00    +0.000 A 
ATOM      4  C   UNL     1       1.823   3.891  17.664  0.00  0.00    +0.000 A 
ATOM      5  C   UNL     1       1.999   2.523  17.882  0.00  0.00    +0.000 A 
ATOM      6  C   UNL     1       2.120   2.029  19.181  0.00  0.00    +0.000 A 
ATOM      7  C   UNL     1       2.059   2.919  20.264  0.00  0.00    +0.000 A 
ATOM      8  C   UNL     1       1.877   4.290  20.052  0.00  0.00    +0.000 A 
BRANCH   7   9
ATOM      9  N   UNL     1       2.194   2.413  21.632  0.00  0.00    +0.000 N 
ATOM     10  O   UNL     1       1.180   2.406  22.348  0.00  0.00    +0.000 OA
ATOM     11  O   UNL     1       3.311   2.017  21.998  0.00  0.00    +0.000 OA
ENDBRANCH   7   9
ENDBRANCH   2   3
BRANCH   1  13
ATOM     12  O   UNL     1       4.609   6.168  18.890  0.00  0.00    +0.000 OA
ATOM     13  C   UNL     1       3.943   6.750  18.037  0.00  0.00    +0.000 C 
ATOM     14  N   UNL     1       4.488   7.015  16.794  0.00  0.00    +0.000 N 
ATOM     15  H   UNL     1       4.091   7.706  16.174  0.00  0.00    +0.000 HD
BRANCH  14  16
ATOM     16  C   UNL     1       5.890   6.669  16.626  0.00  0.00    +0.000 C 
BRANCH  16  17
ATOM     17  C   UNL     1       6.138   5.643  15.586  0.00  0.00    +0.000 A 
ATOM     18  C   UNL     1       5.395   4.548  15.182  0.00  0.00    +0.000 A 
ATOM     19  C   UNL     1       6.172   3.864  14.221  0.00  0.00    +0.000 A 
ATOM     20  C   UNL     1       7.339   4.578  14.099  0.00  0.00    +0.000 A 
ATOM     21  O   UNL     1       7.331   5.662  14.922  0.00  0.00    +0.000 OA
ENDBRANCH  16  17
ENDBRANCH  14  16
ENDBRANCH   1  13
BRANCH   1  22
ATOM     22  N   UNL     1       2.177   8.523  18.206  0.00  0.00    +0.000 N 
ATOM     23  C   UNL     1       1.549   9.316  19.169  0.00  0.00    +0.000 C 
ATOM     24  O   UNL     1       1.160   8.921  20.265  0.00  0.00    +0.000 OA
ATOM     25  H   UNL     1       2.373   8.989  17.326  0.00  0.00    +0.000 HD
BRANCH  23  26
ATOM     26  C   UNL     1       1.376  10.698  18.782  0.00  0.00    +0.000 A 
ATOM     27  C   UNL     1       0.260  11.519  18.880  0.00  0.00    +0.000 A 
ATOM     28  C   UNL     1       0.645  12.790  18.394  0.00  0.00    +0.000 A 
ATOM     29  C   UNL     1       1.962  12.665  18.017  0.00  0.00    +0.000 A 
ATOM     30  O   UNL     1       2.418  11.405  18.246  0.00  0.00    +0.000 OA
ENDBRANCH  23  26
ENDBRANCH   1  22
TORSDOF 7
ENDMDL
MODEL 9
REMARK VINA RESULT:      -7.3      2.325      4.668
REMARK  Name = 
REMARK  7 active torsions:
REMARK  status: ('A' for Active; 'I' for Inactive)
REMARK    1  A    between atoms: C_2  and  C_10
REMARK    2  A    between atoms: N_3  and  C_4
REMARK    3  A    between atoms: C_4  and  C_5
REMARK    4  A    between atoms: C_10  and  N_21
REMARK    5  A    between atoms: C_11  and  C_12
REMARK    6  A    between atoms: C_16  and  N_17
REMARK    7  A    between atoms: C_22  and  C_24
REMARK                            x       y       z     vdW  Elec       q    Type
REMARK                         _______ _______ _______ _____ _____    ______ ____
ROOT
ATOM      1  C   UNL     1       2.412   5.982  19.993  0.00  0.00    +0.000 C 
ATOM      2  C   UNL     1       1.983   4.703  20.067  0.00  0.00    +0.000 C 
ENDROOT
BRANCH   2   3
ATOM      3  C   UNL     1       2.597   3.493  19.512  0.00  0.00    +0.000 A 
ATOM      4  C   UNL     1       2.222   2.998  18.256  0.00  0.00    +0.000 A 
ATOM      5  C   UNL     1       2.810   1.837  17.752  0.00  0.00    +0.000 A 
ATOM      6  C   UNL     1       3.772   1.157  18.501  0.00  0.00    +0.000 A 
ATOM      7  C   UNL     1       4.136   1.648  19.763  0.00  0.00    +0.000 A 
ATOM      8  C   UNL     1       3.545   2.808  20.276  0.00  0.00    +0.000 A 
BRANCH   7   9
ATOM      9  N   UNL     1       5.151   0.947  20.553  0.00  0.00    +0.000 N 
ATOM     10  O   UNL     1       5.572  -0.137  20.121  0.00  0.00    +0.000 OA
ATOM     11  O   UNL     1       5.535   1.477  21.607  0.00  0.00    +0.000 OA
ENDBRANCH   7   9
ENDBRANCH   2   3
BRANCH   1  13
ATOM     12  O   UNL     1       4.766   6.265  19.549  0.00  0.00    +0.000 OA
ATOM     13  C   UNL     1       3.616   6.303  19.114  0.00  0.00    +0.000 C 
ATOM     14  N   UNL     1       3.389   6.616  17.786  0.00  0.00    +0.000 N 
ATOM     15  H   UNL     1       2.482   6.915  17.457  0.00  0.00    +0.000 HD
BRANCH  14  16
ATOM     16  C   UNL     1       4.558   6.995  17.010  0.00  0.00    +0.000 C 
BRANCH  16  17
ATOM     17  C   UNL     1       5.253   5.852  16.370  0.00  0.00    +0.000 A 
ATOM     18  C   UNL     1       4.892   4.525  16.224  0.00  0.00    +0.000 A 
ATOM     19  C   UNL     1       5.991   3.871  15.622  0.00  0.00    +0.000 A 
ATOM     20  C   UNL     1       6.953   4.835  15.442  0.00  0.00    +0.000 A 
ATOM     21  O   UNL     1       6.517   6.043  15.891  0.00  0.00    +0.000 OA
ENDBRANCH  16  17
ENDBRANCH  14  16
ENDBRANCH   1  13
BRANCH   1  22
ATOM     22  N   UNL     1       1.768   7.030  20.646  0.00  0.00    +0.000 N 
ATOM     23  C   UNL     1       1.468   8.296  20.141  0.00  0.00    +0.000 C 
ATOM     24  O   UNL     1       1.753   8.694  19.016  0.00  0.00    +0.000 OA
ATOM     25  H   UNL     1       1.524   6.886  21.621  0.00  0.00    +0.000 HD
BRANCH  23  26
ATOM     26  C   UNL     1       0.766   9.156  21.068  0.00  0.00    +0.000 A 
ATOM     27  C   UNL     1       0.014  10.298  20.831  0.00  0.00    +0.000 A 
ATOM     28  C   UNL     1      -0.483  10.727  22.084  0.00  0.00    +0.000 A 
ATOM     29  C   UNL     1       0.006   9.833  23.008  0.00  0.00    +0.000 A 
ATOM     30  O   UNL     1       0.764   8.877  22.408  0.00  0.00    +0.000 OA
ENDBRANCH  23  26
ENDBRANCH   1  22
TORSDOF 7
ENDMDL
