MODEL 1
REMARK VINA RESULT:      -7.2      0.000      0.000
REMARK  Name = 
REMARK  5 active torsions:
REMARK  status: ('A' for Active; 'I' for Inactive)
REMARK    1  A    between atoms: C_1  and  O_2
REMARK    2  A    between atoms: O_2  and  C_3
REMARK    3  A    between atoms: C_3  and  C_5
REMARK    4  A    between atoms: C_5  and  N_6
REMARK    5  A    between atoms: N_12  and  C_13
REMARK                            x       y       z     vdW  Elec       q    Type
REMARK                         _______ _______ _______ _____ _____    ______ ____
ROOT
ATOM      1  N   UNL     1       3.487   4.397  18.705  0.00  0.00    +0.000 N 
ATOM      2  C   UNL     1       4.178   4.531  17.480  0.00  0.00    +0.000 A 
ATOM      3  O   UNL     1       4.698   3.660  16.807  0.00  0.00    +0.000 OA
ATOM      4  N   UNL     1       4.086   5.909  17.133  0.00  0.00    +0.000 N 
ATOM      5  C   UNL     1       3.321   6.521  18.060  0.00  0.00    +0.000 A 
ATOM      6  C   UNL     1       2.811   7.714  18.363  0.00  0.00    +0.000 A 
ATOM      7  N   UNL     1       2.102   7.589  19.574  0.00  0.00    +0.000 N 
ATOM      8  C   UNL     1       2.204   6.193  20.015  0.00  0.00    +0.000 A 
ATOM      9  O   UNL     1       1.743   5.628  20.994  0.00  0.00    +0.000 OA
ATOM     10  N   UNL     1       2.945   5.616  18.986  0.00  0.00    +0.000 N 
ATOM     11  H   UNL     1       4.489   6.302  16.299  0.00  0.00    +0.000 HD
ENDROOT
BRANCH   7  12
ATOM     12  C   UNL     1       1.363   8.582  20.263  0.00  0.00    +0.000 A 
ATOM     13  C   UNL     1       1.267   8.573  21.663  0.00  0.00    +0.000 A 
ATOM     14  C   UNL     1       0.508   9.532  22.343  0.00  0.00    +0.000 A 
ATOM     15  C   UNL     1      -0.177  10.506  21.626  0.00  0.00    +0.000 A 
ATOM     16 CL   UNL     1      -1.135  11.667  22.458  0.00  0.00    +0.000 Cl
ATOM     17  C   UNL     1      -0.090  10.540  20.237  0.00  0.00    +0.000 A 
ATOM     18  C   UNL     1       0.686   9.591  19.560  0.00  0.00    +0.000 A 
ENDBRANCH   7  12
BRANCH   1  19
ATOM     19  C   UNL     1       2.907   3.200  19.265  0.00  0.00    +0.000 C 
BRANCH  19  20
ATOM     20  C   UNL     1       3.734   2.569  20.374  0.00  0.00    +0.000 C 
ATOM     21  O   UNL     1       4.854   2.103  20.186  0.00  0.00    +0.000 OA
BRANCH  20  23
ATOM     22  C   UNL     1       1.686   2.444  21.504  0.00  0.00    +0.000 C 
ATOM     23  O   UNL     1       3.103   2.594  21.581  0.00  0.00    +0.000 OA
ENDBRANCH  20  23
ENDBRANCH  19  20
ENDBRANCH   1  19
TORSDOF 4
ENDMDL
MODEL 2
REMARK VINA RESULT:      -7.1      1.551      2.112
REMARK  Name = 
REMARK  5 active torsions:
REMARK  status: ('A' for Active; 'I' for Inactive)
REMARK    1  A    between atoms: C_1  and  O_2
REMARK    2  A    between atoms: O_2  and  C_3
REMARK    3  A    between atoms: C_3  and  C_5
REMARK    4  A    between atoms: C_5  and  N_6
REMARK    5  A    between atoms: N_12  and  C_13
REMARK                            x       y       z     vdW  Elec       q    Type
REMARK                         _______ _______ _______ _____ _____    ______ ____
ROOT
ATOM      1  N   UNL     1       3.631   5.230  18.360  0.00  0.00    +0.000 N 
ATOM      2  C   UNL     1       4.272   5.594  17.154  0.00  0.00    +0.000 A 
ATOM      3  O   UNL     1       4.877   4.881  16.375  0.00  0.00    +0.000 OA
ATOM      4  N   UNL     1       4.004   6.982  16.979  0.00  0.00    +0.000 N 
ATOM      5  C   UNL     1       3.192   7.379  17.981  0.00  0.00    +0.000 A 
ATOM      6  C   UNL     1       2.548   8.454  18.431  0.00  0.00    +0.000 A 
ATOM      7  N   UNL     1       1.889   8.098  19.624  0.00  0.00    +0.000 N 
ATOM      8  C   UNL     1       2.170   6.682  19.891  0.00  0.00    +0.000 A 
ATOM      9  O   UNL     1       1.804   5.950  20.797  0.00  0.00    +0.000 OA
ATOM     10  N   UNL     1       2.951   6.330  18.792  0.00  0.00    +0.000 N 
ATOM     11  H   UNL     1       4.336   7.519  16.196  0.00  0.00    +0.000 HD
ENDROOT
BRANCH   7  12
ATOM     12  C   UNL     1       1.050   8.902  20.436  0.00  0.00    +0.000 A 
ATOM     13  C   UNL     1       0.209   9.872  19.871  0.00  0.00    +0.000 A 
ATOM     14  C   UNL     1      -0.593  10.691  20.675  0.00  0.00    +0.000 A 
ATOM     15  C   UNL     1      -0.550  10.557  22.057  0.00  0.00    +0.000 A 
ATOM     16 CL   UNL     1      -1.511  11.583  23.047  0.00  0.00    +0.000 Cl
ATOM     17  C   UNL     1       0.271   9.596  22.640  0.00  0.00    +0.000 A 
ATOM     18  C   UNL     1       1.058   8.764  21.832  0.00  0.00    +0.000 A 
ENDBRANCH   7  12
BRANCH   1  19
ATOM     19  C   UNL     1       3.214   3.911  18.774  0.00  0.00    +0.000 C 
BRANCH  19  20
ATOM     20  C   UNL     1       2.192   3.264  17.852  0.00  0.00    +0.000 C 
ATOM     21  O   UNL     1       1.255   3.884  17.358  0.00  0.00    +0.000 OA
BRANCH  20  23
ATOM     22  C   UNL     1       3.583   1.440  18.331  0.00  0.00    +0.000 C 
ATOM     23  O   UNL     1       2.444   1.944  17.633  0.00  0.00    +0.000 OA
ENDBRANCH  20  23
ENDBRANCH  19  20
ENDBRANCH   1  19
TORSDOF 4
ENDMDL
MODEL 3
REMARK VINA RESULT:      -7.0      4.426      7.592
REMARK  Name = 
REMARK  5 active torsions:
REMARK  status: ('A' for Active; 'I' for Inactive)
REMARK    1  A    between atoms: C_1  and  O_2
REMARK    2  A    between atoms: O_2  and  C_3
REMARK    3  A    between atoms: C_3  and  C_5
REMARK    4  A    between atoms: C_5  and  N_6
REMARK    5  A    between atoms: N_12  and  C_13
REMARK                            x       y       z     vdW  Elec       q    Type
REMARK                         _______ _______ _______ _____ _____    ______ ____
ROOT
ATOM      1  N   UNL     1       0.402  10.491  19.783  0.00  0.00    +0.000 N 
ATOM      2  C   UNL     1      -0.086  10.333  21.100  0.00  0.00    +0.000 A 
ATOM      3  O   UNL     1      -0.866  11.044  21.707  0.00  0.00    +0.000 OA
ATOM      4  N   UNL     1       0.467   9.109  21.572  0.00  0.00    +0.000 N 
ATOM      5  C   UNL     1       1.167   8.552  20.562  0.00  0.00    +0.000 A 
ATOM      6  C   UNL     1       1.889   7.470  20.272  0.00  0.00    +0.000 A 
ATOM      7  N   UNL     1       2.365   7.607  18.953  0.00  0.00    +0.000 N 
ATOM      8  C   UNL     1       1.870   8.883  18.424  0.00  0.00    +0.000 A 
ATOM      9  O   UNL     1       2.020   9.409  17.332  0.00  0.00    +0.000 OA
ATOM     10  N   UNL     1       1.110   9.364  19.489  0.00  0.00    +0.000 N 
ATOM     11  H   UNL     1       0.289   8.735  22.488  0.00  0.00    +0.000 HD
ENDROOT
BRANCH   7  12
ATOM     12  C   UNL     1       3.141   6.689  18.202  0.00  0.00    +0.000 A 
ATOM     13  C   UNL     1       4.242   7.120  17.446  0.00  0.00    +0.000 A 
ATOM     14  C   UNL     1       4.987   6.221  16.676  0.00  0.00    +0.000 A 
ATOM     15  C   UNL     1       4.630   4.879  16.643  0.00  0.00    +0.000 A 
ATOM     16 CL   UNL     1       5.526   3.778  15.673  0.00  0.00    +0.000 Cl
ATOM     17  C   UNL     1       3.547   4.426  17.391  0.00  0.00    +0.000 A 
ATOM     18  C   UNL     1       2.814   5.325  18.176  0.00  0.00    +0.000 A 
ENDBRANCH   7  12
BRANCH   1  19
ATOM     19  C   UNL     1      -0.166  11.288  18.721  0.00  0.00    +0.000 C 
BRANCH  19  20
ATOM     20  C   UNL     1      -1.527  10.808  18.243  0.00  0.00    +0.000 C 
ATOM     21  O   UNL     1      -2.581  11.214  18.721  0.00  0.00    +0.000 OA
BRANCH  20  23
ATOM     22  C   UNL     1      -2.560   9.897  16.348  0.00  0.00    +0.000 C 
ATOM     23  O   UNL     1      -1.439   9.901  17.230  0.00  0.00    +0.000 OA
ENDBRANCH  20  23
ENDBRANCH  19  20
ENDBRANCH   1  19
TORSDOF 4
ENDMDL
MODEL 4
REMARK VINA RESULT:      -7.0      1.813      3.631
REMARK  Name = 
REMARK  5 active torsions:
REMARK  status: ('A' for Active; 'I' for Inactive)
REMARK    1  A    between atoms: C_1  and  O_2
REMARK    2  A    between atoms: O_2  and  C_3
REMARK    3  A    between atoms: C_3  and  C_5
REMARK    4  A    between atoms: C_5  and  N_6
REMARK    5  A    between atoms: N_12  and  C_13
REMARK                            x       y       z     vdW  Elec       q    Type
REMARK                         _______ _______ _______ _____ _____    ______ ____
ROOT
ATOM      1  N   UNL     1       4.594   4.035  18.868  0.00  0.00    +0.000 N 
ATOM      2  C   UNL     1       4.263   2.970  19.736  0.00  0.00    +0.000 A 
ATOM      3  O   UNL     1       4.843   1.911  19.888  0.00  0.00    +0.000 OA
ATOM      4  N   UNL     1       3.131   3.415  20.476  0.00  0.00    +0.000 N 
ATOM      5  C   UNL     1       2.871   4.689  20.116  0.00  0.00    +0.000 A 
ATOM      6  C   UNL     1       2.039   5.694  20.381  0.00  0.00    +0.000 A 
ATOM      7  N   UNL     1       2.372   6.769  19.534  0.00  0.00    +0.000 N 
ATOM      8  C   UNL     1       3.506   6.354  18.701  0.00  0.00    +0.000 A 
ATOM      9  O   UNL     1       4.130   6.955  17.841  0.00  0.00    +0.000 OA
ATOM     10  N   UNL     1       3.756   5.066  19.172  0.00  0.00    +0.000 N 
ATOM     11  H   UNL     1       2.673   2.861  21.180  0.00  0.00    +0.000 HD
ENDROOT
BRANCH   7  12
ATOM     12  C   UNL     1       1.787   8.059  19.484  0.00  0.00    +0.000 A 
ATOM     13  C   UNL     1       1.217   8.641  20.626  0.00  0.00    +0.000 A 
ATOM     14  C   UNL     1       0.608   9.900  20.570  0.00  0.00    +0.000 A 
ATOM     15  C   UNL     1       0.550  10.586  19.363  0.00  0.00    +0.000 A 
ATOM     16 CL   UNL     1      -0.225  12.118  19.285  0.00  0.00    +0.000 Cl
ATOM     17  C   UNL     1       1.116  10.031  18.218  0.00  0.00    +0.000 A 
ATOM     18  C   UNL     1       1.742   8.780  18.281  0.00  0.00    +0.000 A 
ENDBRANCH   7  12
BRANCH   1  19
ATOM     19  C   UNL     1       5.866   4.297  18.238  0.00  0.00    +0.000 C 
BRANCH  19  20
ATOM     20  C   UNL     1       5.832   4.234  16.719  0.00  0.00    +0.000 C 
ATOM     21  O   UNL     1       4.804   4.016  16.085  0.00  0.00    +0.000 OA
BRANCH  20  23
ATOM     22  C   UNL     1       7.006   4.793  14.769  0.00  0.00    +0.000 C 
ATOM     23  O   UNL     1       7.053   4.457  16.156  0.00  0.00    +0.000 OA
ENDBRANCH  20  23
ENDBRANCH  19  20
ENDBRANCH   1  19
TORSDOF 4
ENDMDL
MODEL 5
REMARK VINA RESULT:      -7.0      1.560      1.876
REMARK  Name = 
REMARK  5 active torsions:
REMARK  status: ('A' for Active; 'I' for Inactive)
REMARK    1  A    between atoms: C_1  and  O_2
REMARK    2  A    between atoms: O_2  and  C_3
REMARK    3  A    between atoms: C_3  and  C_5
REMARK    4  A    between atoms: C_5  and  N_6
REMARK    5  A    between atoms: N_12  and  C_13
REMARK                            x       y       z     vdW  Elec       q    Type
REMARK                         _______ _______ _______ _____ _____    ______ ____
ROOT
ATOM      1  N   UNL     1       3.480   5.238  18.434  0.00  0.00    +0.000 N 
ATOM      2  C   UNL     1       4.118   5.575  17.219  0.00  0.00    +0.000 A 
ATOM      3  O   UNL     1       4.699   4.841  16.441  0.00  0.00    +0.000 OA
ATOM      4  N   UNL     1       3.882   6.968  17.034  0.00  0.00    +0.000 N 
ATOM      5  C   UNL     1       3.089   7.393  18.039  0.00  0.00    +0.000 A 
ATOM      6  C   UNL     1       2.476   8.488  18.486  0.00  0.00    +0.000 A 
ATOM      7  N   UNL     1       1.820   8.158  19.688  0.00  0.00    +0.000 N 
ATOM      8  C   UNL     1       2.069   6.739  19.966  0.00  0.00    +0.000 A 
ATOM      9  O   UNL     1       1.695   6.024  20.882  0.00  0.00    +0.000 OA
ATOM     10  N   UNL     1       2.831   6.357  18.863  0.00  0.00    +0.000 N 
ATOM     11  H   UNL     1       4.219   7.489  16.243  0.00  0.00    +0.000 HD
ENDROOT
BRANCH   7  12
ATOM     12  C   UNL     1       1.009   8.990  20.501  0.00  0.00    +0.000 A 
ATOM     13  C   UNL     1       1.029   8.878  21.899  0.00  0.00    +0.000 A 
ATOM     14  C   UNL     1       0.203   9.673  22.701  0.00  0.00    +0.000 A 
ATOM     15  C   UNL     1      -0.665  10.583  22.110  0.00  0.00    +0.000 A 
ATOM     16 CL   UNL     1      -1.703  11.539  23.092  0.00  0.00    +0.000 Cl
ATOM     17  C   UNL     1      -0.697  10.717  20.724  0.00  0.00    +0.000 A 
ATOM     18  C   UNL     1       0.145   9.933  19.925  0.00  0.00    +0.000 A 
ENDBRANCH   7  12
BRANCH   1  19
ATOM     19  C   UNL     1       3.036   3.933  18.865  0.00  0.00    +0.000 C 
BRANCH  19  20
ATOM     20  C   UNL     1       2.032   3.279  17.929  0.00  0.00    +0.000 C 
ATOM     21  O   UNL     1       1.132   3.904  17.376  0.00  0.00    +0.000 OA
BRANCH  20  23
ATOM     22  C   UNL     1       3.572   1.523  18.123  0.00  0.00    +0.000 C 
ATOM     23  O   UNL     1       2.255   1.944  17.770  0.00  0.00    +0.000 OA
ENDBRANCH  20  23
ENDBRANCH  19  20
ENDBRANCH   1  19
TORSDOF 4
ENDMDL
MODEL 6
REMARK VINA RESULT:      -6.9      1.241      1.387
REMARK  Name = 
REMARK  5 active torsions:
REMARK  status: ('A' for Active; 'I' for Inactive)
REMARK    1  A    between atoms: C_1  and  O_2
REMARK    2  A    between atoms: O_2  and  C_3
REMARK    3  A    between atoms: C_3  and  C_5
REMARK    4  A    between atoms: C_5  and  N_6
REMARK    5  A    between atoms: N_12  and  C_13
REMARK                            x       y       z     vdW  Elec       q    Type
REMARK                         _______ _______ _______ _____ _____    ______ ____
ROOT
ATOM      1  N   UNL     1       4.204   4.290  17.718  0.00  0.00    +0.000 N 
ATOM      2  C   UNL     1       5.197   4.467  16.728  0.00  0.00    +0.000 A 
ATOM      3  O   UNL     1       5.865   3.619  16.166  0.00  0.00    +0.000 OA
ATOM      4  N   UNL     1       5.219   5.864  16.451  0.00  0.00    +0.000 N 
ATOM      5  C   UNL     1       4.244   6.449  17.176  0.00  0.00    +0.000 A 
ATOM      6  C   UNL     1       3.689   7.638  17.403  0.00  0.00    +0.000 A 
ATOM      7  N   UNL     1       2.683   7.470  18.375  0.00  0.00    +0.000 N 
ATOM      8  C   UNL     1       2.644   6.050  18.745  0.00  0.00    +0.000 A 
ATOM      9  O   UNL     1       1.933   5.447  19.533  0.00  0.00    +0.000 OA
ATOM     10  N   UNL     1       3.624   5.507  17.916  0.00  0.00    +0.000 N 
ATOM     11  H   UNL     1       5.834   6.288  15.777  0.00  0.00    +0.000 HD
ENDROOT
BRANCH   7  12
ATOM     12  C   UNL     1       1.801   8.446  18.901  0.00  0.00    +0.000 A 
ATOM     13  C   UNL     1       1.511   8.496  20.273  0.00  0.00    +0.000 A 
ATOM     14  C   UNL     1       0.613   9.437  20.790  0.00  0.00    +0.000 A 
ATOM     15  C   UNL     1      -0.017  10.332  19.934  0.00  0.00    +0.000 A 
ATOM     16 CL   UNL     1      -1.144  11.469  20.562  0.00  0.00    +0.000 Cl
ATOM     17  C   UNL     1       0.261  10.307  18.570  0.00  0.00    +0.000 A 
ATOM     18  C   UNL     1       1.175   9.377  18.059  0.00  0.00    +0.000 A 
ENDBRANCH   7  12
BRANCH   1  19
ATOM     19  C   UNL     1       3.480   3.082  18.034  0.00  0.00    +0.000 C 
BRANCH  19  20
ATOM     20  C   UNL     1       3.747   2.545  19.431  0.00  0.00    +0.000 C 
ATOM     21  O   UNL     1       4.876   2.449  19.903  0.00  0.00    +0.000 OA
BRANCH  20  23
ATOM     22  C   UNL     1       2.539   2.679  21.434  0.00  0.00    +0.000 C 
ATOM     23  O   UNL     1       2.605   2.203  20.090  0.00  0.00    +0.000 OA
ENDBRANCH  20  23
ENDBRANCH  19  20
ENDBRANCH   1  19
TORSDOF 4
ENDMDL
MODEL 7
REMARK VINA RESULT:      -6.9      1.260      1.749
REMARK  Name = 
REMARK  5 active torsions:
REMARK  status: ('A' for Active; 'I' for Inactive)
REMARK    1  A    between atoms: C_1  and  O_2
REMARK    2  A    between atoms: O_2  and  C_3
REMARK    3  A    between atoms: C_3  and  C_5
REMARK    4  A    between atoms: C_5  and  N_6
REMARK    5  A    between atoms: N_12  and  C_13
REMARK                            x       y       z     vdW  Elec       q    Type
REMARK                         _______ _______ _______ _____ _____    ______ ____
ROOT
ATOM      1  N   UNL     1       4.285   4.282  17.710  0.00  0.00    +0.000 N 
ATOM      2  C   UNL     1       5.283   4.475  16.727  0.00  0.00    +0.000 A 
ATOM      3  O   UNL     1       5.966   3.636  16.170  0.00  0.00    +0.000 OA
ATOM      4  N   UNL     1       5.288   5.872  16.452  0.00  0.00    +0.000 N 
ATOM      5  C   UNL     1       4.300   6.442  17.172  0.00  0.00    +0.000 A 
ATOM      6  C   UNL     1       3.728   7.623  17.396  0.00  0.00    +0.000 A 
ATOM      7  N   UNL     1       2.717   7.441  18.360  0.00  0.00    +0.000 N 
ATOM      8  C   UNL     1       2.695   6.020  18.728  0.00  0.00    +0.000 A 
ATOM      9  O   UNL     1       1.985   5.407  19.510  0.00  0.00    +0.000 OA
ATOM     10  N   UNL     1       3.688   5.491  17.905  0.00  0.00    +0.000 N 
ATOM     11  H   UNL     1       5.903   6.305  15.784  0.00  0.00    +0.000 HD
ENDROOT
BRANCH   7  12
ATOM     12  C   UNL     1       1.818   8.405  18.882  0.00  0.00    +0.000 A 
ATOM     13  C   UNL     1       1.211   9.356  18.048  0.00  0.00    +0.000 A 
ATOM     14  C   UNL     1       0.352  10.330  18.567  0.00  0.00    +0.000 A 
ATOM     15  C   UNL     1       0.100  10.373  19.933  0.00  0.00    +0.000 A 
ATOM     16 CL   UNL     1      -0.931  11.588  20.577  0.00  0.00    +0.000 Cl
ATOM     17  C   UNL     1       0.686   9.434  20.779  0.00  0.00    +0.000 A 
ATOM     18  C   UNL     1       1.530   8.448  20.254  0.00  0.00    +0.000 A 
ENDBRANCH   7  12
BRANCH   1  19
ATOM     19  C   UNL     1       3.575   3.064  18.019  0.00  0.00    +0.000 C 
BRANCH  19  20
ATOM     20  C   UNL     1       3.812   2.547  19.429  0.00  0.00    +0.000 C 
ATOM     21  O   UNL     1       4.932   2.454  19.924  0.00  0.00    +0.000 OA
BRANCH  20  23
ATOM     22  C   UNL     1       2.586   2.673  21.421  0.00  0.00    +0.000 C 
ATOM     23  O   UNL     1       2.656   2.218  20.070  0.00  0.00    +0.000 OA
ENDBRANCH  20  23
ENDBRANCH  19  20
ENDBRANCH   1  19
TORSDOF 4
ENDMDL
MODEL 8
REMARK VINA RESULT:      -6.9      0.945      1.397
REMARK  Name = 
REMARK  5 active torsions:
REMARK  status: ('A' for Active; 'I' for Inactive)
REMARK    1  A    between atoms: C_1  and  O_2
REMARK    2  A    between atoms: O_2  and  C_3
REMARK    3  A    between atoms: C_3  and  C_5
REMARK    4  A    between atoms: C_5  and  N_6
REMARK    5  A    between atoms: N_12  and  C_13
REMARK                            x       y       z     vdW  Elec       q    Type
REMARK                         _______ _______ _______ _____ _____    ______ ____
ROOT
ATOM      1  N   UNL     1       3.824   5.043  17.909  0.00  0.00    +0.000 N 
ATOM      2  C   UNL     1       4.533   5.469  16.763  0.00  0.00    +0.000 A 
ATOM      3  O   UNL     1       5.146   4.792  15.958  0.00  0.00    +0.000 OA
ATOM      4  N   UNL     1       4.328   6.877  16.684  0.00  0.00    +0.000 N 
ATOM      5  C   UNL     1       3.487   7.231  17.678  0.00  0.00    +0.000 A 
ATOM      6  C   UNL     1       2.866   8.296  18.182  0.00  0.00    +0.000 A 
ATOM      7  N   UNL     1       2.139   7.879  19.314  0.00  0.00    +0.000 N 
ATOM      8  C   UNL     1       2.352   6.437  19.483  0.00  0.00    +0.000 A 
ATOM      9  O   UNL     1       1.917   5.655  20.313  0.00  0.00    +0.000 OA
ATOM     10  N   UNL     1       3.169   6.135  18.395  0.00  0.00    +0.000 N 
ATOM     11  H   UNL     1       4.717   7.456  15.960  0.00  0.00    +0.000 HD
ENDROOT
BRANCH   7  12
ATOM     12  C   UNL     1       1.297   8.655  20.149  0.00  0.00    +0.000 A 
ATOM     13  C   UNL     1       0.462   9.648  19.615  0.00  0.00    +0.000 A 
ATOM     14  C   UNL     1      -0.344  10.438  20.441  0.00  0.00    +0.000 A 
ATOM     15  C   UNL     1      -0.312  10.253  21.818  0.00  0.00    +0.000 A 
ATOM     16 CL   UNL     1      -1.279  11.244  22.838  0.00  0.00    +0.000 Cl
ATOM     17  C   UNL     1       0.502   9.269  22.371  0.00  0.00    +0.000 A 
ATOM     18  C   UNL     1       1.293   8.465  21.539  0.00  0.00    +0.000 A 
ENDBRANCH   7  12
BRANCH   1  19
ATOM     19  C   UNL     1       3.338   3.716  18.202  0.00  0.00    +0.000 C 
BRANCH  19  20
ATOM     20  C   UNL     1       4.026   3.049  19.383  0.00  0.00    +0.000 C 
ATOM     21  O   UNL     1       5.212   3.220  19.644  0.00  0.00    +0.000 OA
BRANCH  20  23
ATOM     22  C   UNL     1       1.836   2.254  19.633  0.00  0.00    +0.000 C 
ATOM     23  O   UNL     1       3.181   2.266  20.110  0.00  0.00    +0.000 OA
ENDBRANCH  20  23
ENDBRANCH  19  20
ENDBRANCH   1  19
TORSDOF 4
ENDMDL
MODEL 9
REMARK VINA RESULT:      -6.9      1.603      1.953
REMARK  Name = 
REMARK  5 active torsions:
REMARK  status: ('A' for Active; 'I' for Inactive)
REMARK    1  A    between atoms: C_1  and  O_2
REMARK    2  A    between atoms: O_2  and  C_3
REMARK    3  A    between atoms: C_3  and  C_5
REMARK    4  A    between atoms: C_5  and  N_6
REMARK    5  A    between atoms: N_12  and  C_13
REMARK                            x       y       z     vdW  Elec       q    Type
REMARK                         _______ _______ _______ _____ _____    ______ ____
ROOT
ATOM      1  N   UNL     1       3.936   3.909  17.194  0.00  0.00    +0.000 N 
ATOM      2  C   UNL     1       5.091   4.089  16.399  0.00  0.00    +0.000 A 
ATOM      3  O   UNL     1       5.709   3.254  15.765  0.00  0.00    +0.000 OA
ATOM      4  N   UNL     1       5.361   5.487  16.423  0.00  0.00    +0.000 N 
ATOM      5  C   UNL     1       4.377   6.090  17.122  0.00  0.00    +0.000 A 
ATOM      6  C   UNL     1       3.972   7.296  17.517  0.00  0.00    +0.000 A 
ATOM      7  N   UNL     1       2.809   7.131  18.294  0.00  0.00    +0.000 N 
ATOM      8  C   UNL     1       2.505   5.696  18.354  0.00  0.00    +0.000 A 
ATOM      9  O   UNL     1       1.595   5.093  18.901  0.00  0.00    +0.000 OA
ATOM     10  N   UNL     1       3.516   5.152  17.564  0.00  0.00    +0.000 N 
ATOM     11  H   UNL     1       6.131   5.914  15.937  0.00  0.00    +0.000 HD
ENDROOT
BRANCH   7  12
ATOM     12  C   UNL     1       2.006   8.133  18.894  0.00  0.00    +0.000 A 
ATOM     13  C   UNL     1       1.702   8.095  20.263  0.00  0.00    +0.000 A 
ATOM     14  C   UNL     1       0.880   9.064  20.849  0.00  0.00    +0.000 A 
ATOM     15  C   UNL     1       0.340  10.077  20.066  0.00  0.00    +0.000 A 
ATOM     16 CL   UNL     1      -0.695  11.251  20.778  0.00  0.00    +0.000 Cl
ATOM     17  C   UNL     1       0.634  10.139  18.707  0.00  0.00    +0.000 A 
ATOM     18  C   UNL     1       1.473   9.180  18.126  0.00  0.00    +0.000 A 
ENDBRANCH   7  12
BRANCH   1  19
ATOM     19  C   UNL     1       3.002   2.810  17.156  0.00  0.00    +0.000 C 
BRANCH  19  20
ATOM     20  C   UNL     1       2.906   2.031  18.459  0.00  0.00    +0.000 C 
ATOM     21  O   UNL     1       1.835   1.754  18.991  0.00  0.00    +0.000 OA
BRANCH  20  23
ATOM     22  C   UNL     1       4.421   2.205  20.238  0.00  0.00    +0.000 C 
ATOM     23  O   UNL     1       4.126   1.671  18.947  0.00  0.00    +0.000 OA
ENDBRANCH  20  23
ENDBRANCH  19  20
ENDBRANCH   1  19
TORSDOF 4
ENDMDL
