MODEL 1
REMARK VINA RESULT:      -6.5      0.000      0.000
REMARK  Name = 
REMARK  9 active torsions:
REMARK  status: ('A' for Active; 'I' for Inactive)
REMARK    1  A    between atoms: C_1  and  C_2
REMARK    2  A    between atoms: C_7  and  C_8
REMARK    3  A    between atoms: C_7  and  C_9
REMARK    4  A    between atoms: C_10  and  C_11
REMARK    5  A    between atoms: C_11  and  C_12
REMARK    6  A    between atoms: C_12  and  C_13
REMARK    7  A    between atoms: C_13  and  O_14
REMARK    8  A    between atoms: C_13  and  C_15
REMARK    9  A    between atoms: C_15  and  O_16
REMARK                            x       y       z     vdW  Elec       q    Type
REMARK                         _______ _______ _______ _____ _____    ______ ____
ROOT
ATOM      1  C   UNL     1       2.539   8.014  17.974  0.00  0.00    +0.000 C 
ATOM      2  C   UNL     1       3.484   6.844  17.831  0.00  0.00    +0.000 C 
ATOM      3  C   UNL     1       4.578   7.080  17.094  0.00  0.00    +0.000 C 
ATOM      4  C   UNL     1       5.531   6.047  16.700  0.00  0.00    +0.000 C 
ATOM      5  O   UNL     1       6.534   6.382  16.071  0.00  0.00    +0.000 OA
ATOM      6  C   UNL     1       5.251   4.611  17.011  0.00  0.00    +0.000 C 
ATOM      7  C   UNL     1       4.011   4.247  17.875  0.00  0.00    +0.000 C 
ATOM      8  C   UNL     1       3.095   3.340  17.004  0.00  0.00    +0.000 C 
ATOM      9  C   UNL     1       4.548   3.317  19.002  0.00  0.00    +0.000 C 
ATOM     10  C   UNL     1       3.103   5.476  18.397  0.00  0.00    +0.000 C 
ENDROOT
BRANCH  10  11
ATOM     11  C   UNL     1       2.924   5.437  19.950  0.00  0.00    +0.000 C 
BRANCH  11  12
ATOM     12  C   UNL     1       1.617   4.919  20.563  0.00  0.00    +0.000 C 
BRANCH  12  13
ATOM     13  C   UNL     1       1.371   3.412  20.456  0.00  0.00    +0.000 C 
BRANCH  13  14
ATOM     14  O   UNL     1       0.049   3.183  19.942  0.00  0.00    +0.000 OA
ATOM     15  H   UNL     1      -0.368   4.048  19.776  0.00  0.00    +0.000 HD
ENDBRANCH  13  14
BRANCH  13  16
ATOM     16  C   UNL     1       1.498   2.671  21.789  0.00  0.00    +0.000 C 
BRANCH  16  17
ATOM     17  O   UNL     1       2.877   2.392  22.039  0.00  0.00    +0.000 OA
ATOM     18  H   UNL     1       3.319   2.435  21.166  0.00  0.00    +0.000 HD
ENDBRANCH  16  17
ENDBRANCH  13  16
ENDBRANCH  12  13
ENDBRANCH  11  12
ENDBRANCH  10  11
TORSDOF 6
ENDMDL
MODEL 2
REMARK VINA RESULT:      -6.3      1.886      2.840
REMARK  Name = 
REMARK  9 active torsions:
REMARK  status: ('A' for Active; 'I' for Inactive)
REMARK    1  A    between atoms: C_1  and  C_2
REMARK    2  A    between atoms: C_7  and  C_8
REMARK    3  A    between atoms: C_7  and  C_9
REMARK    4  A    between atoms: C_10  and  C_11
REMARK    5  A    between atoms: C_11  and  C_12
REMARK    6  A    between atoms: C_12  and  C_13
REMARK    7  A    between atoms: C_13  and  O_14
REMARK    8  A    between atoms: C_13  and  C_15
REMARK    9  A    between atoms: C_15  and  O_16
REMARK                            x       y       z     vdW  Elec       q    Type
REMARK                         _______ _______ _______ _____ _____    ______ ____
ROOT
ATOM      1  C   UNL     1       3.359   5.649  19.651  0.00  0.00    +0.000 C 
ATOM      2  C   UNL     1       4.515   5.258  18.760  0.00  0.00    +0.000 C 
ATOM      3  C   UNL     1       5.728   5.363  19.319  0.00  0.00    +0.000 C 
ATOM      4  C   UNL     1       6.978   5.191  18.586  0.00  0.00    +0.000 C 
ATOM      5  O   UNL     1       8.038   5.251  19.207  0.00  0.00    +0.000 OA
ATOM      6  C   UNL     1       6.957   5.003  17.102  0.00  0.00    +0.000 C 
ATOM      7  C   UNL     1       5.591   4.856  16.372  0.00  0.00    +0.000 C 
ATOM      8  C   UNL     1       5.483   6.030  15.358  0.00  0.00    +0.000 C 
ATOM      9  C   UNL     1       5.724   3.575  15.498  0.00  0.00    +0.000 C 
ATOM     10  C   UNL     1       4.266   4.902  17.295  0.00  0.00    +0.000 C 
ENDROOT
BRANCH  10  11
ATOM     11  C   UNL     1       3.368   3.643  17.069  0.00  0.00    +0.000 C 
BRANCH  11  12
ATOM     12  C   UNL     1       3.289   2.550  18.143  0.00  0.00    +0.000 C 
BRANCH  12  13
ATOM     13  C   UNL     1       1.892   2.235  18.685  0.00  0.00    +0.000 C 
BRANCH  13  14
ATOM     14  O   UNL     1       0.932   3.095  18.051  0.00  0.00    +0.000 OA
ATOM     15  H   UNL     1       1.404   3.658  17.410  0.00  0.00    +0.000 HD
ENDBRANCH  13  14
BRANCH  13  16
ATOM     16  C   UNL     1       1.764   2.415  20.199  0.00  0.00    +0.000 C 
BRANCH  16  17
ATOM     17  O   UNL     1       0.583   3.164  20.483  0.00  0.00    +0.000 OA
ATOM     18  H   UNL     1       0.344   3.611  19.646  0.00  0.00    +0.000 HD
ENDBRANCH  16  17
ENDBRANCH  13  16
ENDBRANCH  12  13
ENDBRANCH  11  12
ENDBRANCH  10  11
TORSDOF 6
ENDMDL
MODEL 3
REMARK VINA RESULT:      -6.2      2.117      5.580
REMARK  Name = 
REMARK  9 active torsions:
REMARK  status: ('A' for Active; 'I' for Inactive)
REMARK    1  A    between atoms: C_1  and  C_2
REMARK    2  A    between atoms: C_7  and  C_8
REMARK    3  A    between atoms: C_7  and  C_9
REMARK    4  A    between atoms: C_10  and  C_11
REMARK    5  A    between atoms: C_11  and  C_12
REMARK    6  A    between atoms: C_12  and  C_13
REMARK    7  A    between atoms: C_13  and  O_14
REMARK    8  A    between atoms: C_13  and  C_15
REMARK    9  A    between atoms: C_15  and  O_16
REMARK                            x       y       z     vdW  Elec       q    Type
REMARK                         _______ _______ _______ _____ _____    ______ ____
ROOT
ATOM      1  C   UNL     1       4.105   1.159  18.549  0.00  0.00    +0.000 C 
ATOM      2  C   UNL     1       3.546   2.462  19.070  0.00  0.00    +0.000 C 
ATOM      3  C   UNL     1       3.057   2.417  20.316  0.00  0.00    +0.000 C 
ATOM      4  C   UNL     1       2.331   3.515  20.945  0.00  0.00    +0.000 C 
ATOM      5  O   UNL     1       1.974   3.391  22.116  0.00  0.00    +0.000 OA
ATOM      6  C   UNL     1       1.985   4.736  20.153  0.00  0.00    +0.000 C 
ATOM      7  C   UNL     1       2.526   4.880  18.702  0.00  0.00    +0.000 C 
ATOM      8  C   UNL     1       1.292   4.974  17.759  0.00  0.00    +0.000 C 
ATOM      9  C   UNL     1       3.189   6.287  18.643  0.00  0.00    +0.000 C 
ATOM     10  C   UNL     1       3.454   3.679  18.150  0.00  0.00    +0.000 C 
ENDROOT
BRANCH  10  11
ATOM     11  C   UNL     1       4.828   4.211  17.627  0.00  0.00    +0.000 C 
BRANCH  11  12
ATOM     12  C   UNL     1       6.012   4.365  18.590  0.00  0.00    +0.000 C 
BRANCH  12  13
ATOM     13  C   UNL     1       7.258   5.052  18.026  0.00  0.00    +0.000 C 
BRANCH  13  14
ATOM     14  O   UNL     1       8.227   4.055  17.665  0.00  0.00    +0.000 OA
ATOM     15  H   UNL     1       8.287   3.410  18.393  0.00  0.00    +0.000 HD
ENDBRANCH  13  14
BRANCH  13  16
ATOM     16  C   UNL     1       7.919   6.028  19.001  0.00  0.00    +0.000 C 
BRANCH  16  17
ATOM     17  O   UNL     1       7.866   5.479  20.319  0.00  0.00    +0.000 OA
ATOM     18  H   UNL     1       7.206   6.014  20.803  0.00  0.00    +0.000 HD
ENDBRANCH  16  17
ENDBRANCH  13  16
ENDBRANCH  12  13
ENDBRANCH  11  12
ENDBRANCH  10  11
TORSDOF 6
ENDMDL
MODEL 4
REMARK VINA RESULT:      -6.1      0.765      1.137
REMARK  Name = 
REMARK  9 active torsions:
REMARK  status: ('A' for Active; 'I' for Inactive)
REMARK    1  A    between atoms: C_1  and  C_2
REMARK    2  A    between atoms: C_7  and  C_8
REMARK    3  A    between atoms: C_7  and  C_9
REMARK    4  A    between atoms: C_10  and  C_11
REMARK    5  A    between atoms: C_11  and  C_12
REMARK    6  A    between atoms: C_12  and  C_13
REMARK    7  A    between atoms: C_13  and  O_14
REMARK    8  A    between atoms: C_13  and  C_15
REMARK    9  A    between atoms: C_15  and  O_16
REMARK                            x       y       z     vdW  Elec       q    Type
REMARK                         _______ _______ _______ _____ _____    ______ ____
ROOT
ATOM      1  C   UNL     1       2.759   7.977  17.957  0.00  0.00    +0.000 C 
ATOM      2  C   UNL     1       3.609   6.748  17.735  0.00  0.00    +0.000 C 
ATOM      3  C   UNL     1       4.647   6.913  16.903  0.00  0.00    +0.000 C 
ATOM      4  C   UNL     1       5.492   5.821  16.431  0.00  0.00    +0.000 C 
ATOM      5  O   UNL     1       6.455   6.090  15.715  0.00  0.00    +0.000 OA
ATOM      6  C   UNL     1       5.148   4.406  16.773  0.00  0.00    +0.000 C 
ATOM      7  C   UNL     1       3.968   4.122  17.745  0.00  0.00    +0.000 C 
ATOM      8  C   UNL     1       2.922   3.278  16.963  0.00  0.00    +0.000 C 
ATOM      9  C   UNL     1       4.541   3.159  18.824  0.00  0.00    +0.000 C 
ATOM     10  C   UNL     1       3.192   5.408  18.340  0.00  0.00    +0.000 C 
ENDROOT
BRANCH  10  11
ATOM     11  C   UNL     1       3.150   5.379  19.902  0.00  0.00    +0.000 C 
BRANCH  11  12
ATOM     12  C   UNL     1       1.803   5.344  20.637  0.00  0.00    +0.000 C 
BRANCH  12  13
ATOM     13  C   UNL     1       1.318   3.966  21.094  0.00  0.00    +0.000 C 
BRANCH  13  14
ATOM     14  O   UNL     1       2.376   3.303  21.804  0.00  0.00    +0.000 OA
ATOM     15  H   UNL     1       2.216   3.409  22.759  0.00  0.00    +0.000 HD
ENDBRANCH  13  14
BRANCH  13  16
ATOM     16  C   UNL     1       0.872   3.058  19.947  0.00  0.00    +0.000 C 
BRANCH  16  17
ATOM     17  O   UNL     1       1.687   1.885  19.935  0.00  0.00    +0.000 OA
ATOM     18  H   UNL     1       1.140   1.178  20.332  0.00  0.00    +0.000 HD
ENDBRANCH  16  17
ENDBRANCH  13  16
ENDBRANCH  12  13
ENDBRANCH  11  12
ENDBRANCH  10  11
TORSDOF 6
ENDMDL
MODEL 5
REMARK VINA RESULT:      -6.0      2.110      3.059
REMARK  Name = 
REMARK  9 active torsions:
REMARK  status: ('A' for Active; 'I' for Inactive)
REMARK    1  A    between atoms: C_1  and  C_2
REMARK    2  A    between atoms: C_7  and  C_8
REMARK    3  A    between atoms: C_7  and  C_9
REMARK    4  A    between atoms: C_10  and  C_11
REMARK    5  A    between atoms: C_11  and  C_12
REMARK    6  A    between atoms: C_12  and  C_13
REMARK    7  A    between atoms: C_13  and  O_14
REMARK    8  A    between atoms: C_13  and  C_15
REMARK    9  A    between atoms: C_15  and  O_16
REMARK                            x       y       z     vdW  Elec       q    Type
REMARK                         _______ _______ _______ _____ _____    ______ ____
ROOT
ATOM      1  C   UNL     1       3.354   5.463  19.702  0.00  0.00    +0.000 C 
ATOM      2  C   UNL     1       4.509   5.237  18.756  0.00  0.00    +0.000 C 
ATOM      3  C   UNL     1       5.727   5.338  19.305  0.00  0.00    +0.000 C 
ATOM      4  C   UNL     1       6.969   5.315  18.539  0.00  0.00    +0.000 C 
ATOM      5  O   UNL     1       8.036   5.357  19.148  0.00  0.00    +0.000 OA
ATOM      6  C   UNL     1       6.927   5.298  17.044  0.00  0.00    +0.000 C 
ATOM      7  C   UNL     1       5.556   5.165  16.322  0.00  0.00    +0.000 C 
ATOM      8  C   UNL     1       5.370   6.441  15.452  0.00  0.00    +0.000 C 
ATOM      9  C   UNL     1       5.733   4.002  15.304  0.00  0.00    +0.000 C 
ATOM     10  C   UNL     1       4.249   5.039  17.262  0.00  0.00    +0.000 C 
ENDROOT
BRANCH  10  11
ATOM     11  C   UNL     1       3.409   3.769  16.906  0.00  0.00    +0.000 C 
BRANCH  11  12
ATOM     12  C   UNL     1       2.149   3.427  17.713  0.00  0.00    +0.000 C 
BRANCH  12  13
ATOM     13  C   UNL     1       2.202   2.135  18.532  0.00  0.00    +0.000 C 
BRANCH  13  14
ATOM     14  O   UNL     1       1.347   2.266  19.679  0.00  0.00    +0.000 OA
ATOM     15  H   UNL     1       1.615   3.063  20.170  0.00  0.00    +0.000 HD
ENDBRANCH  13  14
BRANCH  13  16
ATOM     16  C   UNL     1       3.605   1.773  19.022  0.00  0.00    +0.000 C 
BRANCH  16  17
ATOM     17  O   UNL     1       4.044   0.590  18.353  0.00  0.00    +0.000 OA
ATOM     18  H   UNL     1       3.497  -0.137  18.714  0.00  0.00    +0.000 HD
ENDBRANCH  16  17
ENDBRANCH  13  16
ENDBRANCH  12  13
ENDBRANCH  11  12
ENDBRANCH  10  11
TORSDOF 6
ENDMDL
MODEL 6
REMARK VINA RESULT:      -6.0      1.667      6.103
REMARK  Name = 
REMARK  9 active torsions:
REMARK  status: ('A' for Active; 'I' for Inactive)
REMARK    1  A    between atoms: C_1  and  C_2
REMARK    2  A    between atoms: C_7  and  C_8
REMARK    3  A    between atoms: C_7  and  C_9
REMARK    4  A    between atoms: C_10  and  C_11
REMARK    5  A    between atoms: C_11  and  C_12
REMARK    6  A    between atoms: C_12  and  C_13
REMARK    7  A    between atoms: C_13  and  O_14
REMARK    8  A    between atoms: C_13  and  C_15
REMARK    9  A    between atoms: C_15  and  O_16
REMARK                            x       y       z     vdW  Elec       q    Type
REMARK                         _______ _______ _______ _____ _____    ______ ____
ROOT
ATOM      1  C   UNL     1       3.852   1.251  18.283  0.00  0.00    +0.000 C 
ATOM      2  C   UNL     1       3.462   2.543  18.962  0.00  0.00    +0.000 C 
ATOM      3  C   UNL     1       2.976   2.413  20.203  0.00  0.00    +0.000 C 
ATOM      4  C   UNL     1       2.396   3.511  20.969  0.00  0.00    +0.000 C 
ATOM      5  O   UNL     1       2.031   3.295  22.123  0.00  0.00    +0.000 OA
ATOM      6  C   UNL     1       2.201   4.849  20.329  0.00  0.00    +0.000 C 
ATOM      7  C   UNL     1       2.749   5.095  18.895  0.00  0.00    +0.000 C 
ATOM      8  C   UNL     1       1.533   5.449  17.993  0.00  0.00    +0.000 C 
ATOM      9  C   UNL     1       3.582   6.406  18.986  0.00  0.00    +0.000 C 
ATOM     10  C   UNL     1       3.518   3.861  18.190  0.00  0.00    +0.000 C 
ENDROOT
BRANCH  10  11
ATOM     11  C   UNL     1       4.945   4.278  17.707  0.00  0.00    +0.000 C 
BRANCH  11  12
ATOM     12  C   UNL     1       5.202   4.570  16.223  0.00  0.00    +0.000 C 
BRANCH  12  13
ATOM     13  C   UNL     1       6.550   4.106  15.666  0.00  0.00    +0.000 C 
BRANCH  13  14
ATOM     14  O   UNL     1       7.609   4.671  16.455  0.00  0.00    +0.000 OA
ATOM     15  H   UNL     1       8.451   4.522  15.988  0.00  0.00    +0.000 HD
ENDBRANCH  13  14
BRANCH  13  16
ATOM     16  C   UNL     1       6.782   4.499  14.206  0.00  0.00    +0.000 C 
BRANCH  16  17
ATOM     17  O   UNL     1       7.765   5.534  14.151  0.00  0.00    +0.000 OA
ATOM     18  H   UNL     1       8.102   5.531  13.232  0.00  0.00    +0.000 HD
ENDBRANCH  16  17
ENDBRANCH  13  16
ENDBRANCH  12  13
ENDBRANCH  11  12
ENDBRANCH  10  11
TORSDOF 6
ENDMDL
MODEL 7
REMARK VINA RESULT:      -5.9      2.697      5.722
REMARK  Name = 
REMARK  9 active torsions:
REMARK  status: ('A' for Active; 'I' for Inactive)
REMARK    1  A    between atoms: C_1  and  C_2
REMARK    2  A    between atoms: C_7  and  C_8
REMARK    3  A    between atoms: C_7  and  C_9
REMARK    4  A    between atoms: C_10  and  C_11
REMARK    5  A    between atoms: C_11  and  C_12
REMARK    6  A    between atoms: C_12  and  C_13
REMARK    7  A    between atoms: C_13  and  O_14
REMARK    8  A    between atoms: C_13  and  C_15
REMARK    9  A    between atoms: C_15  and  O_16
REMARK                            x       y       z     vdW  Elec       q    Type
REMARK                         _______ _______ _______ _____ _____    ______ ____
ROOT
ATOM      1  C   UNL     1       6.874   6.362  17.548  0.00  0.00    +0.000 C 
ATOM      2  C   UNL     1       5.403   6.021  17.594  0.00  0.00    +0.000 C 
ATOM      3  C   UNL     1       4.576   7.069  17.713  0.00  0.00    +0.000 C 
ATOM      4  C   UNL     1       3.139   6.949  17.935  0.00  0.00    +0.000 C 
ATOM      5  O   UNL     1       2.462   7.975  17.972  0.00  0.00    +0.000 OA
ATOM      6  C   UNL     1       2.527   5.605  18.170  0.00  0.00    +0.000 C 
ATOM      7  C   UNL     1       3.409   4.332  18.037  0.00  0.00    +0.000 C 
ATOM      8  C   UNL     1       3.400   3.620  19.419  0.00  0.00    +0.000 C 
ATOM      9  C   UNL     1       2.627   3.381  17.086  0.00  0.00    +0.000 C 
ATOM     10  C   UNL     1       4.956   4.560  17.631  0.00  0.00    +0.000 C 
ENDROOT
BRANCH  10  11
ATOM     11  C   UNL     1       5.346   3.723  16.369  0.00  0.00    +0.000 C 
BRANCH  11  12
ATOM     12  C   UNL     1       5.417   4.394  14.991  0.00  0.00    +0.000 C 
BRANCH  12  13
ATOM     13  C   UNL     1       6.718   4.194  14.209  0.00  0.00    +0.000 C 
BRANCH  13  14
ATOM     14  O   UNL     1       7.537   5.366  14.343  0.00  0.00    +0.000 OA
ATOM     15  H   UNL     1       7.203   6.044  13.729  0.00  0.00    +0.000 HD
ENDBRANCH  13  14
BRANCH  13  16
ATOM     16  C   UNL     1       6.505   3.931  12.717  0.00  0.00    +0.000 C 
BRANCH  16  17
ATOM     17  O   UNL     1       6.182   2.553  12.526  0.00  0.00    +0.000 OA
ATOM     18  H   UNL     1       7.030   2.105  12.331  0.00  0.00    +0.000 HD
ENDBRANCH  16  17
ENDBRANCH  13  16
ENDBRANCH  12  13
ENDBRANCH  11  12
ENDBRANCH  10  11
TORSDOF 6
ENDMDL
MODEL 8
REMARK VINA RESULT:      -5.9      2.365      3.122
REMARK  Name = 
REMARK  9 active torsions:
REMARK  status: ('A' for Active; 'I' for Inactive)
REMARK    1  A    between atoms: C_1  and  C_2
REMARK    2  A    between atoms: C_7  and  C_8
REMARK    3  A    between atoms: C_7  and  C_9
REMARK    4  A    between atoms: C_10  and  C_11
REMARK    5  A    between atoms: C_11  and  C_12
REMARK    6  A    between atoms: C_12  and  C_13
REMARK    7  A    between atoms: C_13  and  O_14
REMARK    8  A    between atoms: C_13  and  C_15
REMARK    9  A    between atoms: C_15  and  O_16
REMARK                            x       y       z     vdW  Elec       q    Type
REMARK                         _______ _______ _______ _____ _____    ______ ____
ROOT
ATOM      1  C   UNL     1       3.283   5.735  19.623  0.00  0.00    +0.000 C 
ATOM      2  C   UNL     1       4.461   5.341  18.764  0.00  0.00    +0.000 C 
ATOM      3  C   UNL     1       5.661   5.465  19.348  0.00  0.00    +0.000 C 
ATOM      4  C   UNL     1       6.928   5.291  18.646  0.00  0.00    +0.000 C 
ATOM      5  O   UNL     1       7.973   5.370  19.290  0.00  0.00    +0.000 OA
ATOM      6  C   UNL     1       6.942   5.081  17.165  0.00  0.00    +0.000 C 
ATOM      7  C   UNL     1       5.594   4.910  16.407  0.00  0.00    +0.000 C 
ATOM      8  C   UNL     1       5.500   6.067  15.373  0.00  0.00    +0.000 C 
ATOM      9  C   UNL     1       5.757   3.618  15.556  0.00  0.00    +0.000 C 
ATOM     10  C   UNL     1       4.249   4.960  17.299  0.00  0.00    +0.000 C 
ENDROOT
BRANCH  10  11
ATOM     11  C   UNL     1       3.366   3.690  17.074  0.00  0.00    +0.000 C 
BRANCH  11  12
ATOM     12  C   UNL     1       2.952   2.817  18.266  0.00  0.00    +0.000 C 
BRANCH  12  13
ATOM     13  C   UNL     1       4.071   2.018  18.940  0.00  0.00    +0.000 C 
BRANCH  13  14
ATOM     14  O   UNL     1       4.007   0.652  18.502  0.00  0.00    +0.000 OA
ATOM     15  H   UNL     1       3.419   0.165  19.107  0.00  0.00    +0.000 HD
ENDBRANCH  13  14
BRANCH  13  16
ATOM     16  C   UNL     1       4.003   2.033  20.468  0.00  0.00    +0.000 C 
BRANCH  16  17
ATOM     17  O   UNL     1       5.278   1.665  20.996  0.00  0.00    +0.000 OA
ATOM     18  H   UNL     1       5.916   1.798  20.266  0.00  0.00    +0.000 HD
ENDBRANCH  16  17
ENDBRANCH  13  16
ENDBRANCH  12  13
ENDBRANCH  11  12
ENDBRANCH  10  11
TORSDOF 6
ENDMDL
MODEL 9
REMARK VINA RESULT:      -5.9      1.732      5.827
REMARK  Name = 
REMARK  9 active torsions:
REMARK  status: ('A' for Active; 'I' for Inactive)
REMARK    1  A    between atoms: C_1  and  C_2
REMARK    2  A    between atoms: C_7  and  C_8
REMARK    3  A    between atoms: C_7  and  C_9
REMARK    4  A    between atoms: C_10  and  C_11
REMARK    5  A    between atoms: C_11  and  C_12
REMARK    6  A    between atoms: C_12  and  C_13
REMARK    7  A    between atoms: C_13  and  O_14
REMARK    8  A    between atoms: C_13  and  C_15
REMARK    9  A    between atoms: C_15  and  O_16
REMARK                            x       y       z     vdW  Elec       q    Type
REMARK                         _______ _______ _______ _____ _____    ______ ____
ROOT
ATOM      1  C   UNL     1       4.823   1.649  19.693  0.00  0.00    +0.000 C 
ATOM      2  C   UNL     1       3.741   2.669  19.956  0.00  0.00    +0.000 C 
ATOM      3  C   UNL     1       2.918   2.381  20.974  0.00  0.00    +0.000 C 
ATOM      4  C   UNL     1       1.718   3.147  21.291  0.00  0.00    +0.000 C 
ATOM      5  O   UNL     1       1.064   2.830  22.284  0.00  0.00    +0.000 OA
ATOM      6  C   UNL     1       1.273   4.253  20.388  0.00  0.00    +0.000 C 
ATOM      7  C   UNL     1       2.175   4.666  19.190  0.00  0.00    +0.000 C 
ATOM      8  C   UNL     1       1.348   4.437  17.893  0.00  0.00    +0.000 C 
ATOM      9  C   UNL     1       2.334   6.210  19.302  0.00  0.00    +0.000 C 
ATOM     10  C   UNL     1       3.564   3.861  19.015  0.00  0.00    +0.000 C 
ENDROOT
BRANCH  10  11
ATOM     11  C   UNL     1       4.786   4.834  18.953  0.00  0.00    +0.000 C 
BRANCH  11  12
ATOM     12  C   UNL     1       5.439   5.168  17.606  0.00  0.00    +0.000 C 
BRANCH  12  13
ATOM     13  C   UNL     1       6.764   5.931  17.668  0.00  0.00    +0.000 C 
BRANCH  13  14
ATOM     14  O   UNL     1       7.261   6.127  16.334  0.00  0.00    +0.000 OA
ATOM     15  H   UNL     1       8.235   6.126  16.368  0.00  0.00    +0.000 HD
ENDBRANCH  13  14
BRANCH  13  16
ATOM     16  C   UNL     1       7.848   5.219  18.480  0.00  0.00    +0.000 C 
BRANCH  16  17
ATOM     17  O   UNL     1       8.284   4.063  17.764  0.00  0.00    +0.000 OA
ATOM     18  H   UNL     1       7.714   3.329  18.071  0.00  0.00    +0.000 HD
ENDBRANCH  16  17
ENDBRANCH  13  16
ENDBRANCH  12  13
ENDBRANCH  11  12
ENDBRANCH  10  11
TORSDOF 6
ENDMDL
