MODEL 1
REMARK VINA RESULT:      -9.7      0.000      0.000
REMARK  Name = 
REMARK  3 active torsions:
REMARK  status: ('A' for Active; 'I' for Inactive)
REMARK    1  A    between atoms: C_2  and  C_13
REMARK    2  A    between atoms: N_3  and  N_4
REMARK    3  A    between atoms: C_5  and  C_6
REMARK                            x       y       z     vdW  Elec       q    Type
REMARK                         _______ _______ _______ _____ _____    ______ ____
ROOT
ATOM      1  C   UNL     1       6.554   5.273  17.645  0.00  0.00    +0.000 A 
ATOM      2  N   UNL     1       6.766   4.514  16.535  0.00  0.00    +0.000 NA
ATOM      3  N   UNL     1       5.660   3.711  16.456  0.00  0.00    +0.000 N 
ATOM      4  C   UNL     1       4.791   3.952  17.455  0.00  0.00    +0.000 A 
ATOM      5  C   UNL     1       5.315   4.949  18.224  0.00  0.00    +0.000 A 
ATOM      6  C   UNL     1       4.467   5.338  19.385  0.00  0.00    +0.000 C 
ATOM      7  C   UNL     1       3.327   4.333  19.128  0.00  0.00    +0.000 A 
ATOM      8  C   UNL     1       2.184   4.171  19.894  0.00  0.00    +0.000 A 
ATOM      9  C   UNL     1       1.277   3.188  19.500  0.00  0.00    +0.000 A 
ATOM     10  F   UNL     1       0.161   3.006  20.219  0.00  0.00    +0.000 F 
ATOM     11  C   UNL     1       1.500   2.380  18.372  0.00  0.00    +0.000 A 
ATOM     12  C   UNL     1       2.651   2.539  17.590  0.00  0.00    +0.000 A 
ATOM     13  C   UNL     1       3.545   3.514  17.979  0.00  0.00    +0.000 A 
ATOM     14  H   UNL     1       5.594   3.040  15.698  0.00  0.00    +0.000 HD
ENDROOT
BRANCH   1  16
ATOM     15  O   UNL     1       8.206   6.035  19.138  0.00  0.00    +0.000 OA
ATOM     16  C   UNL     1       7.501   6.273  18.160  0.00  0.00    +0.000 C 
ATOM     17  N   UNL     1       7.519   7.469  17.449  0.00  0.00    +0.000 N 
ATOM     18  H   UNL     1       6.891   7.580  16.660  0.00  0.00    +0.000 HD
BRANCH  17  19
ATOM     19  N   UNL     1       8.376   8.448  17.848  0.00  0.00    +0.000 NA
ATOM     20  C   UNL     1       7.945   9.665  17.900  0.00  0.00    +0.000 C 
BRANCH  20  21
ATOM     21  C   UNL     1       8.857  10.746  18.350  0.00  0.00    +0.000 A 
ATOM     22  C   UNL     1       9.711  10.530  19.441  0.00  0.00    +0.000 A 
ATOM     23  C   UNL     1      10.543  11.555  19.898  0.00  0.00    +0.000 A 
ATOM     24  C   UNL     1      10.522  12.794  19.264  0.00  0.00    +0.000 A 
ATOM     25 CL   UNL     1      11.527  14.065  19.842  0.00  0.00    +0.000 Cl
ATOM     26  C   UNL     1       9.685  13.013  18.167  0.00  0.00    +0.000 A 
ATOM     27  C   UNL     1       8.850  11.986  17.705  0.00  0.00    +0.000 A 
ENDBRANCH  20  21
ENDBRANCH  17  19
ENDBRANCH   1  16
TORSDOF 3
ENDMDL
MODEL 2
REMARK VINA RESULT:      -9.3      1.504      1.812
REMARK  Name = 
REMARK  3 active torsions:
REMARK  status: ('A' for Active; 'I' for Inactive)
REMARK    1  A    between atoms: C_2  and  C_13
REMARK    2  A    between atoms: N_3  and  N_4
REMARK    3  A    between atoms: C_5  and  C_6
REMARK                            x       y       z     vdW  Elec       q    Type
REMARK                         _______ _______ _______ _____ _____    ______ ____
ROOT
ATOM      1  C   UNL     1       6.616   5.852  17.945  0.00  0.00    +0.000 A 
ATOM      2  N   UNL     1       7.470   4.893  18.399  0.00  0.00    +0.000 NA
ATOM      3  N   UNL     1       6.659   3.833  18.706  0.00  0.00    +0.000 N 
ATOM      4  C   UNL     1       5.365   4.101  18.454  0.00  0.00    +0.000 A 
ATOM      5  C   UNL     1       5.296   5.369  17.954  0.00  0.00    +0.000 A 
ATOM      6  C   UNL     1       3.917   5.823  17.621  0.00  0.00    +0.000 C 
ATOM      7  C   UNL     1       3.188   4.534  18.050  0.00  0.00    +0.000 A 
ATOM      8  C   UNL     1       1.823   4.305  17.998  0.00  0.00    +0.000 A 
ATOM      9  C   UNL     1       1.358   3.071  18.451  0.00  0.00    +0.000 A 
ATOM     10  F   UNL     1       0.043   2.818  18.415  0.00  0.00    +0.000 F 
ATOM     11  C   UNL     1       2.228   2.086  18.948  0.00  0.00    +0.000 A 
ATOM     12  C   UNL     1       3.610   2.307  19.000  0.00  0.00    +0.000 A 
ATOM     13  C   UNL     1       4.068   3.527  18.548  0.00  0.00    +0.000 A 
ATOM     14  H   UNL     1       7.078   2.988  19.078  0.00  0.00    +0.000 HD
ENDROOT
BRANCH   1  16
ATOM     15  O   UNL     1       6.467   7.771  16.592  0.00  0.00    +0.000 OA
ATOM     16  C   UNL     1       7.029   7.198  17.523  0.00  0.00    +0.000 C 
ATOM     17  N   UNL     1       8.077   7.738  18.261  0.00  0.00    +0.000 N 
ATOM     18  H   UNL     1       8.488   7.185  19.007  0.00  0.00    +0.000 HD
BRANCH  17  19
ATOM     19  N   UNL     1       8.517   8.987  17.948  0.00  0.00    +0.000 NA
ATOM     20  C   UNL     1       9.012   9.723  18.887  0.00  0.00    +0.000 C 
BRANCH  20  21
ATOM     21  C   UNL     1       9.515  11.082  18.564  0.00  0.00    +0.000 A 
ATOM     22  C   UNL     1       8.688  11.990  17.886  0.00  0.00    +0.000 A 
ATOM     23  C   UNL     1       9.167  13.256  17.541  0.00  0.00    +0.000 A 
ATOM     24  C   UNL     1      10.470  13.614  17.873  0.00  0.00    +0.000 A 
ATOM     25 CL   UNL     1      11.070  15.163  17.424  0.00  0.00    +0.000 Cl
ATOM     26  C   UNL     1      11.296  12.721  18.560  0.00  0.00    +0.000 A 
ATOM     27  C   UNL     1      10.818  11.450  18.910  0.00  0.00    +0.000 A 
ENDBRANCH  20  21
ENDBRANCH  17  19
ENDBRANCH   1  16
TORSDOF 3
ENDMDL
MODEL 3
REMARK VINA RESULT:      -8.9      1.246      1.535
REMARK  Name = 
REMARK  3 active torsions:
REMARK  status: ('A' for Active; 'I' for Inactive)
REMARK    1  A    between atoms: C_2  and  C_13
REMARK    2  A    between atoms: N_3  and  N_4
REMARK    3  A    between atoms: C_5  and  C_6
REMARK                            x       y       z     vdW  Elec       q    Type
REMARK                         _______ _______ _______ _____ _____    ______ ____
ROOT
ATOM      1  C   UNL     1       6.428   5.952  17.178  0.00  0.00    +0.000 A 
ATOM      2  N   UNL     1       7.233   4.919  16.805  0.00  0.00    +0.000 NA
ATOM      3  N   UNL     1       6.454   3.805  16.969  0.00  0.00    +0.000 N 
ATOM      4  C   UNL     1       5.222   4.114  17.414  0.00  0.00    +0.000 A 
ATOM      5  C   UNL     1       5.160   5.470  17.545  0.00  0.00    +0.000 A 
ATOM      6  C   UNL     1       3.848   5.979  18.034  0.00  0.00    +0.000 C 
ATOM      7  C   UNL     1       3.156   4.609  18.171  0.00  0.00    +0.000 A 
ATOM      8  C   UNL     1       1.861   4.380  18.608  0.00  0.00    +0.000 A 
ATOM      9  C   UNL     1       1.427   3.057  18.677  0.00  0.00    +0.000 A 
ATOM     10  F   UNL     1       0.181   2.802  19.097  0.00  0.00    +0.000 F 
ATOM     11  C   UNL     1       2.259   1.983  18.320  0.00  0.00    +0.000 A 
ATOM     12  C   UNL     1       3.568   2.204  17.873  0.00  0.00    +0.000 A 
ATOM     13  C   UNL     1       3.994   3.513  17.803  0.00  0.00    +0.000 A 
ATOM     14  H   UNL     1       6.849   2.895  16.757  0.00  0.00    +0.000 HD
ENDROOT
BRANCH   1  16
ATOM     15  O   UNL     1       6.228   8.217  16.570  0.00  0.00    +0.000 OA
ATOM     16  C   UNL     1       6.845   7.362  17.203  0.00  0.00    +0.000 C 
ATOM     17  N   UNL     1       7.963   7.619  17.989  0.00  0.00    +0.000 N 
ATOM     18  H   UNL     1       8.416   6.846  18.466  0.00  0.00    +0.000 HD
BRANCH  17  19
ATOM     19  N   UNL     1       8.412   8.900  18.080  0.00  0.00    +0.000 NA
ATOM     20  C   UNL     1       8.984   9.280  19.175  0.00  0.00    +0.000 C 
BRANCH  20  21
ATOM     21  C   UNL     1       9.498  10.668  19.288  0.00  0.00    +0.000 A 
ATOM     22  C   UNL     1       9.779  11.406  18.129  0.00  0.00    +0.000 A 
ATOM     23  C   UNL     1      10.303  12.697  18.226  0.00  0.00    +0.000 A 
ATOM     24  C   UNL     1      10.544  13.250  19.480  0.00  0.00    +0.000 A 
ATOM     25 CL   UNL     1      11.214  14.831  19.600  0.00  0.00    +0.000 Cl
ATOM     26  C   UNL     1      10.254  12.528  20.640  0.00  0.00    +0.000 A 
ATOM     27  C   UNL     1       9.727  11.232  20.546  0.00  0.00    +0.000 A 
ENDBRANCH  20  21
ENDBRANCH  17  19
ENDBRANCH   1  16
TORSDOF 3
ENDMDL
MODEL 4
REMARK VINA RESULT:      -8.8      1.603      1.883
REMARK  Name = 
REMARK  3 active torsions:
REMARK  status: ('A' for Active; 'I' for Inactive)
REMARK    1  A    between atoms: C_2  and  C_13
REMARK    2  A    between atoms: N_3  and  N_4
REMARK    3  A    between atoms: C_5  and  C_6
REMARK                            x       y       z     vdW  Elec       q    Type
REMARK                         _______ _______ _______ _____ _____    ______ ____
ROOT
ATOM      1  C   UNL     1       6.870   5.735  17.876  0.00  0.00    +0.000 A 
ATOM      2  N   UNL     1       7.526   4.551  18.025  0.00  0.00    +0.000 NA
ATOM      3  N   UNL     1       6.598   3.716  18.586  0.00  0.00    +0.000 N 
ATOM      4  C   UNL     1       5.416   4.332  18.775  0.00  0.00    +0.000 A 
ATOM      5  C   UNL     1       5.543   5.612  18.323  0.00  0.00    +0.000 A 
ATOM      6  C   UNL     1       4.310   6.437  18.462  0.00  0.00    +0.000 C 
ATOM      7  C   UNL     1       3.432   5.350  19.112  0.00  0.00    +0.000 A 
ATOM      8  C   UNL     1       2.113   5.489  19.514  0.00  0.00    +0.000 A 
ATOM      9  C   UNL     1       1.497   4.383  20.100  0.00  0.00    +0.000 A 
ATOM     10  F   UNL     1       0.223   4.484  20.501  0.00  0.00    +0.000 F 
ATOM     11  C   UNL     1       2.175   3.166  20.284  0.00  0.00    +0.000 A 
ATOM     12  C   UNL     1       3.507   3.015  19.876  0.00  0.00    +0.000 A 
ATOM     13  C   UNL     1       4.112   4.108  19.294  0.00  0.00    +0.000 A 
ATOM     14  H   UNL     1       6.864   2.762  18.802  0.00  0.00    +0.000 HD
ENDROOT
BRANCH   1  16
ATOM     15  O   UNL     1       7.731   7.068  16.139  0.00  0.00    +0.000 OA
ATOM     16  C   UNL     1       7.479   6.960  17.337  0.00  0.00    +0.000 C 
ATOM     17  N   UNL     1       7.728   7.946  18.286  0.00  0.00    +0.000 N 
ATOM     18  H   UNL     1       7.497   7.762  19.257  0.00  0.00    +0.000 HD
BRANCH  17  19
ATOM     19  N   UNL     1       8.280   9.119  17.874  0.00  0.00    +0.000 NA
ATOM     20  C   UNL     1       8.931   9.833  18.732  0.00  0.00    +0.000 C 
BRANCH  20  21
ATOM     21  C   UNL     1       9.557  11.107  18.299  0.00  0.00    +0.000 A 
ATOM     22  C   UNL     1       8.750  12.191  17.925  0.00  0.00    +0.000 A 
ATOM     23  C   UNL     1       9.330  13.380  17.476  0.00  0.00    +0.000 A 
ATOM     24  C   UNL     1      10.716  13.485  17.403  0.00  0.00    +0.000 A 
ATOM     25 CL   UNL     1      11.432  14.940  16.825  0.00  0.00    +0.000 Cl
ATOM     26  C   UNL     1      11.528  12.416  17.787  0.00  0.00    +0.000 A 
ATOM     27  C   UNL     1      10.949  11.222  18.240  0.00  0.00    +0.000 A 
ENDBRANCH  20  21
ENDBRANCH  17  19
ENDBRANCH   1  16
TORSDOF 3
ENDMDL
MODEL 5
REMARK VINA RESULT:      -8.7      1.806      2.145
REMARK  Name = 
REMARK  3 active torsions:
REMARK  status: ('A' for Active; 'I' for Inactive)
REMARK    1  A    between atoms: C_2  and  C_13
REMARK    2  A    between atoms: N_3  and  N_4
REMARK    3  A    between atoms: C_5  and  C_6
REMARK                            x       y       z     vdW  Elec       q    Type
REMARK                         _______ _______ _______ _____ _____    ______ ____
ROOT
ATOM      1  C   UNL     1       7.201   6.353  18.499  0.00  0.00    +0.000 A 
ATOM      2  N   UNL     1       7.895   5.579  19.378  0.00  0.00    +0.000 NA
ATOM      3  N   UNL     1       7.009   4.601  19.743  0.00  0.00    +0.000 N 
ATOM      4  C   UNL     1       5.822   4.741  19.123  0.00  0.00    +0.000 A 
ATOM      5  C   UNL     1       5.908   5.834  18.312  0.00  0.00    +0.000 A 
ATOM      6  C   UNL     1       4.664   6.131  17.548  0.00  0.00    +0.000 C 
ATOM      7  C   UNL     1       3.822   4.966  18.105  0.00  0.00    +0.000 A 
ATOM      8  C   UNL     1       2.506   4.675  17.784  0.00  0.00    +0.000 A 
ATOM      9  C   UNL     1       1.915   3.581  18.414  0.00  0.00    +0.000 A 
ATOM     10  F   UNL     1       0.643   3.272  18.127  0.00  0.00    +0.000 F 
ATOM     11  C   UNL     1       2.614   2.792  19.345  0.00  0.00    +0.000 A 
ATOM     12  C   UNL     1       3.945   3.077  19.672  0.00  0.00    +0.000 A 
ATOM     13  C   UNL     1       4.529   4.157  19.045  0.00  0.00    +0.000 A 
ATOM     14  H   UNL     1       7.303   3.897  20.411  0.00  0.00    +0.000 HD
ENDROOT
BRANCH   1  16
ATOM     15  O   UNL     1       7.642   7.730  16.643  0.00  0.00    +0.000 OA
ATOM     16  C   UNL     1       7.736   7.562  17.857  0.00  0.00    +0.000 C 
ATOM     17  N   UNL     1       8.334   8.463  18.732  0.00  0.00    +0.000 N 
ATOM     18  H   UNL     1       8.377   8.234  19.719  0.00  0.00    +0.000 HD
BRANCH  17  19
ATOM     19  N   UNL     1       8.847   9.618  18.225  0.00  0.00    +0.000 NA
ATOM     20  C   UNL     1       9.522  10.392  19.009  0.00  0.00    +0.000 C 
BRANCH  20  21
ATOM     21  C   UNL     1      10.106  11.646  18.472  0.00  0.00    +0.000 A 
ATOM     22  C   UNL     1      11.485  11.729  18.232  0.00  0.00    +0.000 A 
ATOM     23  C   UNL     1      12.050  12.919  17.767  0.00  0.00    +0.000 A 
ATOM     24  C   UNL     1      11.236  14.025  17.540  0.00  0.00    +0.000 A 
ATOM     25 CL   UNL     1      11.934  15.499  16.992  0.00  0.00    +0.000 Cl
ATOM     26  C   UNL     1       9.859  13.947  17.762  0.00  0.00    +0.000 A 
ATOM     27  C   UNL     1       9.290  12.754  18.228  0.00  0.00    +0.000 A 
ENDBRANCH  20  21
ENDBRANCH  17  19
ENDBRANCH   1  16
TORSDOF 3
ENDMDL
MODEL 6
REMARK VINA RESULT:      -8.6      1.193      1.194
REMARK  Name = 
REMARK  3 active torsions:
REMARK  status: ('A' for Active; 'I' for Inactive)
REMARK    1  A    between atoms: C_2  and  C_13
REMARK    2  A    between atoms: N_3  and  N_4
REMARK    3  A    between atoms: C_5  and  C_6
REMARK                            x       y       z     vdW  Elec       q    Type
REMARK                         _______ _______ _______ _____ _____    ______ ____
ROOT
ATOM      1  C   UNL     1       5.973   5.714  16.973  0.00  0.00    +0.000 A 
ATOM      2  N   UNL     1       6.731   4.689  16.493  0.00  0.00    +0.000 NA
ATOM      3  N   UNL     1       5.968   3.573  16.708  0.00  0.00    +0.000 N 
ATOM      4  C   UNL     1       4.790   3.872  17.285  0.00  0.00    +0.000 A 
ATOM      5  C   UNL     1       4.747   5.224  17.456  0.00  0.00    +0.000 A 
ATOM      6  C   UNL     1       3.495   5.723  18.090  0.00  0.00    +0.000 C 
ATOM      7  C   UNL     1       2.815   4.351  18.262  0.00  0.00    +0.000 A 
ATOM      8  C   UNL     1       1.571   4.114  18.825  0.00  0.00    +0.000 A 
ATOM      9  C   UNL     1       1.140   2.791  18.904  0.00  0.00    +0.000 A 
ATOM     10  F   UNL     1      -0.058   2.527  19.444  0.00  0.00    +0.000 F 
ATOM     11  C   UNL     1       1.926   1.724  18.437  0.00  0.00    +0.000 A 
ATOM     12  C   UNL     1       3.183   1.954  17.863  0.00  0.00    +0.000 A 
ATOM     13  C   UNL     1       3.605   3.264  17.782  0.00  0.00    +0.000 A 
ATOM     14  H   UNL     1       6.336   2.668  16.433  0.00  0.00    +0.000 HD
ENDROOT
BRANCH   1  16
ATOM     15  O   UNL     1       5.626   8.020  16.658  0.00  0.00    +0.000 OA
ATOM     16  C   UNL     1       6.397   7.121  16.990  0.00  0.00    +0.000 C 
ATOM     17  N   UNL     1       7.707   7.324  17.409  0.00  0.00    +0.000 N 
ATOM     18  H   UNL     1       8.275   6.519  17.653  0.00  0.00    +0.000 HD
BRANCH  17  19
ATOM     19  N   UNL     1       8.180   8.599  17.468  0.00  0.00    +0.000 NA
ATOM     20  C   UNL     1       8.591   9.055  18.605  0.00  0.00    +0.000 C 
BRANCH  20  21
ATOM     21  C   UNL     1       9.128  10.437  18.687  0.00  0.00    +0.000 A 
ATOM     22  C   UNL     1      10.043  10.772  19.696  0.00  0.00    +0.000 A 
ATOM     23  C   UNL     1      10.522  12.079  19.807  0.00  0.00    +0.000 A 
ATOM     24  C   UNL     1      10.088  13.050  18.910  0.00  0.00    +0.000 A 
ATOM     25 CL   UNL     1      10.657  14.667  19.062  0.00  0.00    +0.000 Cl
ATOM     26  C   UNL     1       9.189  12.722  17.893  0.00  0.00    +0.000 A 
ATOM     27  C   UNL     1       8.707  11.411  17.778  0.00  0.00    +0.000 A 
ENDBRANCH  20  21
ENDBRANCH  17  19
ENDBRANCH   1  16
TORSDOF 3
ENDMDL
MODEL 7
REMARK VINA RESULT:      -8.1      6.075      7.653
REMARK  Name = 
REMARK  3 active torsions:
REMARK  status: ('A' for Active; 'I' for Inactive)
REMARK    1  A    between atoms: C_2  and  C_13
REMARK    2  A    between atoms: N_3  and  N_4
REMARK    3  A    between atoms: C_5  and  C_6
REMARK                            x       y       z     vdW  Elec       q    Type
REMARK                         _______ _______ _______ _____ _____    ______ ____
ROOT
ATOM      1  C   UNL     1       2.874   4.419  19.445  0.00  0.00    +0.000 A 
ATOM      2  N   UNL     1       3.128   3.116  19.749  0.00  0.00    +0.000 NA
ATOM      3  N   UNL     1       4.017   2.710  18.790  0.00  0.00    +0.000 N 
ATOM      4  C   UNL     1       4.318   3.701  17.931  0.00  0.00    +0.000 A 
ATOM      5  C   UNL     1       3.624   4.809  18.322  0.00  0.00    +0.000 A 
ATOM      6  C   UNL     1       3.847   6.006  17.465  0.00  0.00    +0.000 C 
ATOM      7  C   UNL     1       4.825   5.346  16.473  0.00  0.00    +0.000 A 
ATOM      8  C   UNL     1       5.423   5.952  15.380  0.00  0.00    +0.000 A 
ATOM      9  C   UNL     1       6.269   5.172  14.593  0.00  0.00    +0.000 A 
ATOM     10  F   UNL     1       6.863   5.727  13.527  0.00  0.00    +0.000 F 
ATOM     11  C   UNL     1       6.515   3.819  14.882  0.00  0.00    +0.000 A 
ATOM     12  C   UNL     1       5.918   3.199  15.987  0.00  0.00    +0.000 A 
ATOM     13  C   UNL     1       5.085   3.973  16.766  0.00  0.00    +0.000 A 
ATOM     14  H   UNL     1       4.352   1.753  18.806  0.00  0.00    +0.000 HD
ENDROOT
BRANCH   1  16
ATOM     15  O   UNL     1       0.897   4.820  20.656  0.00  0.00    +0.000 OA
ATOM     16  C   UNL     1       1.937   5.276  20.186  0.00  0.00    +0.000 C 
ATOM     17  N   UNL     1       2.337   6.603  20.299  0.00  0.00    +0.000 N 
ATOM     18  H   UNL     1       3.209   6.892  19.867  0.00  0.00    +0.000 HD
BRANCH  17  19
ATOM     19  N   UNL     1       1.536   7.467  20.981  0.00  0.00    +0.000 NA
ATOM     20  C   UNL     1       1.269   8.614  20.450  0.00  0.00    +0.000 C 
BRANCH  20  21
ATOM     21  C   UNL     1       0.382   9.563  21.168  0.00  0.00    +0.000 A 
ATOM     22  C   UNL     1      -0.002  10.763  20.552  0.00  0.00    +0.000 A 
ATOM     23  C   UNL     1      -0.803  11.682  21.236  0.00  0.00    +0.000 A 
ATOM     24  C   UNL     1      -1.219  11.400  22.533  0.00  0.00    +0.000 A 
ATOM     25 CL   UNL     1      -2.183  12.542  23.387  0.00  0.00    +0.000 Cl
ATOM     26  C   UNL     1      -0.853  10.201  23.150  0.00  0.00    +0.000 A 
ATOM     27  C   UNL     1      -0.052   9.277  22.466  0.00  0.00    +0.000 A 
ENDBRANCH  20  21
ENDBRANCH  17  19
ENDBRANCH   1  16
TORSDOF 3
ENDMDL
MODEL 8
REMARK VINA RESULT:      -8.1      1.022      1.028
REMARK  Name = 
REMARK  3 active torsions:
REMARK  status: ('A' for Active; 'I' for Inactive)
REMARK    1  A    between atoms: C_2  and  C_13
REMARK    2  A    between atoms: N_3  and  N_4
REMARK    3  A    between atoms: C_5  and  C_6
REMARK                            x       y       z     vdW  Elec       q    Type
REMARK                         _______ _______ _______ _____ _____    ______ ____
ROOT
ATOM      1  C   UNL     1       5.979   5.316  16.740  0.00  0.00    +0.000 A 
ATOM      2  N   UNL     1       5.788   4.536  15.641  0.00  0.00    +0.000 NA
ATOM      3  N   UNL     1       4.728   3.735  15.973  0.00  0.00    +0.000 N 
ATOM      4  C   UNL     1       4.267   3.998  17.210  0.00  0.00    +0.000 A 
ATOM      5  C   UNL     1       5.025   5.008  17.725  0.00  0.00    +0.000 A 
ATOM      6  C   UNL     1       4.640   5.422  19.103  0.00  0.00    +0.000 C 
ATOM      7  C   UNL     1       3.487   4.415  19.284  0.00  0.00    +0.000 A 
ATOM      8  C   UNL     1       2.688   4.272  20.407  0.00  0.00    +0.000 A 
ATOM      9  C   UNL     1       1.704   3.285  20.378  0.00  0.00    +0.000 A 
ATOM     10  F   UNL     1       0.914   3.120  21.447  0.00  0.00    +0.000 F 
ATOM     11  C   UNL     1       1.517   2.455  19.259  0.00  0.00    +0.000 A 
ATOM     12  C   UNL     1       2.318   2.595  18.118  0.00  0.00    +0.000 A 
ATOM     13  C   UNL     1       3.288   3.574  18.148  0.00  0.00    +0.000 A 
ATOM     14  H   UNL     1       4.402   3.050  15.300  0.00  0.00    +0.000 HD
ENDROOT
BRANCH   1  16
ATOM     15  O   UNL     1       7.871   6.487  15.974  0.00  0.00    +0.000 OA
ATOM     16  C   UNL     1       7.043   6.323  16.868  0.00  0.00    +0.000 C 
ATOM     17  N   UNL     1       7.014   7.045  18.056  0.00  0.00    +0.000 N 
ATOM     18  H   UNL     1       6.298   6.831  18.743  0.00  0.00    +0.000 HD
BRANCH  17  19
ATOM     19  N   UNL     1       7.956   8.008  18.255  0.00  0.00    +0.000 NA
ATOM     20  C   UNL     1       7.641   9.239  18.022  0.00  0.00    +0.000 C 
BRANCH  20  21
ATOM     21  C   UNL     1       8.647  10.306  18.250  0.00  0.00    +0.000 A 
ATOM     22  C   UNL     1       9.666  10.116  19.193  0.00  0.00    +0.000 A 
ATOM     23  C   UNL     1      10.593  11.131  19.445  0.00  0.00    +0.000 A 
ATOM     24  C   UNL     1      10.500  12.335  18.752  0.00  0.00    +0.000 A 
ATOM     25 CL   UNL     1      11.624  13.596  19.079  0.00  0.00    +0.000 Cl
ATOM     26  C   UNL     1       9.496  12.528  17.800  0.00  0.00    +0.000 A 
ATOM     27  C   UNL     1       8.566  11.511  17.545  0.00  0.00    +0.000 A 
ENDBRANCH  20  21
ENDBRANCH  17  19
ENDBRANCH   1  16
TORSDOF 3
ENDMDL
MODEL 9
REMARK VINA RESULT:      -7.9      5.252     10.754
REMARK  Name = 
REMARK  3 active torsions:
REMARK  status: ('A' for Active; 'I' for Inactive)
REMARK    1  A    between atoms: C_2  and  C_13
REMARK    2  A    between atoms: N_3  and  N_4
REMARK    3  A    between atoms: C_5  and  C_6
REMARK                            x       y       z     vdW  Elec       q    Type
REMARK                         _______ _______ _______ _____ _____    ______ ____
ROOT
ATOM      1  C   UNL     1      10.430  11.518  18.476  0.00  0.00    +0.000 A 
ATOM      2  N   UNL     1      11.758  11.243  18.358  0.00  0.00    +0.000 NA
ATOM      3  N   UNL     1      12.329  12.450  18.053  0.00  0.00    +0.000 N 
ATOM      4  C   UNL     1      11.416  13.436  17.989  0.00  0.00    +0.000 A 
ATOM      5  C   UNL     1      10.198  12.889  18.266  0.00  0.00    +0.000 A 
ATOM      6  C   UNL     1       9.068  13.858  18.234  0.00  0.00    +0.000 C 
ATOM      7  C   UNL     1       9.900  15.101  17.863  0.00  0.00    +0.000 A 
ATOM      8  C   UNL     1       9.418  16.385  17.665  0.00  0.00    +0.000 A 
ATOM      9  C   UNL     1      10.338  17.373  17.317  0.00  0.00    +0.000 A 
ATOM     10  F   UNL     1       9.904  18.625  17.117  0.00  0.00    +0.000 F 
ATOM     11  C   UNL     1      11.707  17.094  17.165  0.00  0.00    +0.000 A 
ATOM     12  C   UNL     1      12.204  15.800  17.367  0.00  0.00    +0.000 A 
ATOM     13  C   UNL     1      11.293  14.826  17.716  0.00  0.00    +0.000 A 
ATOM     14  H   UNL     1      13.332  12.495  17.907  0.00  0.00    +0.000 HD
ENDROOT
BRANCH   1  16
ATOM     15  O   UNL     1       9.179  10.143  19.918  0.00  0.00    +0.000 OA
ATOM     16  C   UNL     1       9.397  10.513  18.766  0.00  0.00    +0.000 C 
ATOM     17  N   UNL     1       8.717  10.045  17.647  0.00  0.00    +0.000 N 
ATOM     18  H   UNL     1       8.975  10.400  16.732  0.00  0.00    +0.000 HD
BRANCH  17  19
ATOM     19  N   UNL     1       7.734   9.120  17.824  0.00  0.00    +0.000 NA
ATOM     20  C   UNL     1       8.002   7.879  17.586  0.00  0.00    +0.000 C 
BRANCH  20  21
ATOM     21  C   UNL     1       6.951   6.851  17.791  0.00  0.00    +0.000 A 
ATOM     22  C   UNL     1       7.128   5.852  18.758  0.00  0.00    +0.000 A 
ATOM     23  C   UNL     1       6.163   4.857  18.929  0.00  0.00    +0.000 A 
ATOM     24  C   UNL     1       5.021   4.861  18.134  0.00  0.00    +0.000 A 
ATOM     25 CL   UNL     1       3.844   3.621  18.325  0.00  0.00    +0.000 Cl
ATOM     26  C   UNL     1       4.829   5.861  17.178  0.00  0.00    +0.000 A 
ATOM     27  C   UNL     1       5.795   6.862  17.005  0.00  0.00    +0.000 A 
ENDBRANCH  20  21
ENDBRANCH  17  19
ENDBRANCH   1  16
TORSDOF 3
ENDMDL
