MODEL 1
REMARK VINA RESULT:      -7.4      0.000      0.000
REMARK  Name = 
REMARK  4 active torsions:
REMARK  status: ('A' for Active; 'I' for Inactive)
REMARK    1  A    between atoms: C_2  and  C_3
REMARK    2  A    between atoms: N_14  and  C_15
REMARK    3  A    between atoms: C_18  and  C_19
REMARK    4  A    between atoms: C_26  and  C_27
REMARK                            x       y       z     vdW  Elec       q    Type
REMARK                         _______ _______ _______ _____ _____    ______ ____
ROOT
ATOM      1  O   UNL     1       2.406   7.849  18.043  0.00  0.00    +0.000 OA
ATOM      2  C   UNL     1       2.046   7.576  19.190  0.00  0.00    +0.000 C 
ATOM      3  N   UNL     1       1.302   8.473  19.938  0.00  0.00    +0.000 N 
ATOM      4  C   UNL     1       0.731   8.234  21.281  0.00  0.00    +0.000 C 
ATOM      5  C   UNL     1       0.951   9.379  22.294  0.00  0.00    +0.000 C 
ATOM      6  N   UNL     1       0.687  10.694  21.691  0.00  0.00    +0.000 N 
ATOM      7  C   UNL     1       1.407  10.919  20.422  0.00  0.00    +0.000 C 
ATOM      8  C   UNL     1       1.070   9.830  19.358  0.00  0.00    +0.000 C 
ENDROOT
BRANCH   2   9
ATOM      9  C   UNL     1       2.436   6.216  19.790  0.00  0.00    +0.000 C 
ATOM     10  C   UNL     1       3.962   5.980  19.713  0.00  0.00    +0.000 C 
ATOM     11  C   UNL     1       4.519   5.708  18.320  0.00  0.00    +0.000 C 
ATOM     12  S   UNL     1       3.728   4.313  17.563  0.00  0.00    +0.000 S 
ATOM     13  O   UNL     1       4.047   4.318  16.149  0.00  0.00    +0.000 OA
ATOM     14  O   UNL     1       3.997   3.145  18.380  0.00  0.00    +0.000 OA
ATOM     15  C   UNL     1       2.006   4.723  17.741  0.00  0.00    +0.000 C 
ATOM     16  C   UNL     1       1.640   5.049  19.185  0.00  0.00    +0.000 C 
ENDBRANCH   2   9
BRANCH   6  17
ATOM     17  C   UNL     1      -0.290  11.545  22.168  0.00  0.00    +0.000 A 
ATOM     18  C   UNL     1      -1.370  11.076  22.929  0.00  0.00    +0.000 A 
ATOM     19  C   UNL     1      -2.376  11.927  23.417  0.00  0.00    +0.000 A 
ATOM     20  C   UNL     1      -2.330  13.300  23.167  0.00  0.00    +0.000 A 
ATOM     21  C   UNL     1      -1.258  13.794  22.423  0.00  0.00    +0.000 A 
ATOM     22  C   UNL     1      -0.261  12.931  21.951  0.00  0.00    +0.000 A 
BRANCH  20  23
ATOM     23  C   UNL     1      -3.394  14.233  23.681  0.00  0.00    +0.000 C 
ATOM     24  F   UNL     1      -3.480  15.400  22.983  0.00  0.00    +0.000 F 
ATOM     25  F   UNL     1      -4.638  13.680  23.634  0.00  0.00    +0.000 F 
ATOM     26  F   UNL     1      -3.194  14.590  24.980  0.00  0.00    +0.000 F 
ENDBRANCH  20  23
ENDBRANCH   6  17
BRANCH   8  27
ATOM     27  C   UNL     1      -0.290  10.043  18.689  0.00  0.00    +0.000 A 
ATOM     28  C   UNL     1      -0.545   9.413  17.453  0.00  0.00    +0.000 A 
ATOM     29  C   UNL     1      -1.724   9.655  16.742  0.00  0.00    +0.000 A 
ATOM     30  C   UNL     1      -2.687  10.510  17.265  0.00  0.00    +0.000 A 
ATOM     31  C   UNL     1      -2.483  11.094  18.511  0.00  0.00    +0.000 A 
ATOM     32  C   UNL     1      -1.305  10.849  19.222  0.00  0.00    +0.000 A 
ENDBRANCH   8  27
TORSDOF 4
ENDMDL
MODEL 2
REMARK VINA RESULT:      -7.3      0.542      1.162
REMARK  Name = 
REMARK  4 active torsions:
REMARK  status: ('A' for Active; 'I' for Inactive)
REMARK    1  A    between atoms: C_2  and  C_3
REMARK    2  A    between atoms: N_14  and  C_15
REMARK    3  A    between atoms: C_18  and  C_19
REMARK    4  A    between atoms: C_26  and  C_27
REMARK                            x       y       z     vdW  Elec       q    Type
REMARK                         _______ _______ _______ _____ _____    ______ ____
ROOT
ATOM      1  O   UNL     1       2.646   7.937  18.231  0.00  0.00    +0.000 OA
ATOM      2  C   UNL     1       2.089   7.623  19.286  0.00  0.00    +0.000 C 
ATOM      3  N   UNL     1       1.306   8.530  19.979  0.00  0.00    +0.000 N 
ATOM      4  C   UNL     1       0.515   8.257  21.197  0.00  0.00    +0.000 C 
ATOM      5  C   UNL     1       0.657   9.311  22.317  0.00  0.00    +0.000 C 
ATOM      6  N   UNL     1       0.592  10.679  21.784  0.00  0.00    +0.000 N 
ATOM      7  C   UNL     1       1.518  10.923  20.660  0.00  0.00    +0.000 C 
ATOM      8  C   UNL     1       1.272   9.938  19.477  0.00  0.00    +0.000 C 
ENDROOT
BRANCH   2   9
ATOM      9  C   UNL     1       2.276   6.199  19.831  0.00  0.00    +0.000 C 
ATOM     10  C   UNL     1       3.772   5.826  19.943  0.00  0.00    +0.000 C 
ATOM     11  C   UNL     1       4.495   5.590  18.621  0.00  0.00    +0.000 C 
ATOM     12  S   UNL     1       3.703   4.323  17.664  0.00  0.00    +0.000 S 
ATOM     13  O   UNL     1       4.217   4.384  16.311  0.00  0.00    +0.000 OA
ATOM     14  O   UNL     1       3.757   3.087  18.423  0.00  0.00    +0.000 OA
ATOM     15  C   UNL     1       2.014   4.880  17.640  0.00  0.00    +0.000 C 
ATOM     16  C   UNL     1       1.478   5.150  19.041  0.00  0.00    +0.000 C 
ENDBRANCH   2   9
BRANCH   6  17
ATOM     17  C   UNL     1      -0.381  11.579  22.171  0.00  0.00    +0.000 A 
ATOM     18  C   UNL     1      -1.512  11.177  22.896  0.00  0.00    +0.000 A 
ATOM     19  C   UNL     1      -2.513  12.078  23.293  0.00  0.00    +0.000 A 
ATOM     20  C   UNL     1      -2.413  13.437  22.983  0.00  0.00    +0.000 A 
ATOM     21  C   UNL     1      -1.290  13.864  22.274  0.00  0.00    +0.000 A 
ATOM     22  C   UNL     1      -0.298  12.952  21.893  0.00  0.00    +0.000 A 
BRANCH  20  23
ATOM     23  C   UNL     1      -3.472  14.422  23.399  0.00  0.00    +0.000 C 
ATOM     24  F   UNL     1      -4.043  14.135  24.602  0.00  0.00    +0.000 F 
ATOM     25  F   UNL     1      -2.988  15.691  23.511  0.00  0.00    +0.000 F 
ATOM     26  F   UNL     1      -4.500  14.493  22.508  0.00  0.00    +0.000 F 
ENDBRANCH  20  23
ENDBRANCH   6  17
BRANCH   8  27
ATOM     27  C   UNL     1       0.054  10.310  18.627  0.00  0.00    +0.000 A 
ATOM     28  C   UNL     1      -0.423  11.637  18.669  0.00  0.00    +0.000 A 
ATOM     29  C   UNL     1      -1.592  12.011  18.000  0.00  0.00    +0.000 A 
ATOM     30  C   UNL     1      -2.295  11.072  17.253  0.00  0.00    +0.000 A 
ATOM     31  C   UNL     1      -1.809   9.774  17.149  0.00  0.00    +0.000 A 
ATOM     32  C   UNL     1      -0.637   9.401  17.815  0.00  0.00    +0.000 A 
ENDBRANCH   8  27
TORSDOF 4
ENDMDL
MODEL 3
REMARK VINA RESULT:      -7.3      6.232      9.422
REMARK  Name = 
REMARK  4 active torsions:
REMARK  status: ('A' for Active; 'I' for Inactive)
REMARK    1  A    between atoms: C_2  and  C_3
REMARK    2  A    between atoms: N_14  and  C_15
REMARK    3  A    between atoms: C_18  and  C_19
REMARK    4  A    between atoms: C_26  and  C_27
REMARK                            x       y       z     vdW  Elec       q    Type
REMARK                         _______ _______ _______ _____ _____    ______ ____
ROOT
ATOM      1  O   UNL     1      -1.804  14.468  21.085  0.00  0.00    +0.000 OA
ATOM      2  C   UNL     1      -1.526  13.517  21.820  0.00  0.00    +0.000 C 
ATOM      3  N   UNL     1      -0.787  12.444  21.352  0.00  0.00    +0.000 N 
ATOM      4  C   UNL     1      -0.309  11.294  22.148  0.00  0.00    +0.000 C 
ATOM      5  C   UNL     1      -0.535   9.912  21.495  0.00  0.00    +0.000 C 
ATOM      6  N   UNL     1      -0.175   9.921  20.070  0.00  0.00    +0.000 N 
ATOM      7  C   UNL     1      -0.806  11.015  19.305  0.00  0.00    +0.000 C 
ATOM      8  C   UNL     1      -0.457  12.416  19.895  0.00  0.00    +0.000 C 
ENDROOT
BRANCH   2   9
ATOM      9  C   UNL     1      -2.014  13.534  23.277  0.00  0.00    +0.000 C 
ATOM     10  C   UNL     1      -3.553  13.668  23.357  0.00  0.00    +0.000 C 
ATOM     11  C   UNL     1      -4.119  15.033  22.981  0.00  0.00    +0.000 C 
ATOM     12  S   UNL     1      -3.422  16.323  23.979  0.00  0.00    +0.000 S 
ATOM     13  O   UNL     1      -3.730  17.596  23.360  0.00  0.00    +0.000 OA
ATOM     14  O   UNL     1      -3.778  16.064  25.361  0.00  0.00    +0.000 OA
ATOM     15  C   UNL     1      -1.677  16.029  23.797  0.00  0.00    +0.000 C 
ATOM     16  C   UNL     1      -1.299  14.591  24.132  0.00  0.00    +0.000 C 
ENDBRANCH   2   9
BRANCH   6  17
ATOM     17  C   UNL     1       0.811   9.106  19.550  0.00  0.00    +0.000 A 
ATOM     18  C   UNL     1       1.342   9.313  18.270  0.00  0.00    +0.000 A 
ATOM     19  C   UNL     1       2.341   8.491  17.724  0.00  0.00    +0.000 A 
ATOM     20  C   UNL     1       2.861   7.421  18.455  0.00  0.00    +0.000 A 
ATOM     21  C   UNL     1       2.359   7.201  19.738  0.00  0.00    +0.000 A 
ATOM     22  C   UNL     1       1.368   8.036  20.269  0.00  0.00    +0.000 A 
BRANCH  20  23
ATOM     23  C   UNL     1       3.933   6.526  17.893  0.00  0.00    +0.000 C 
ATOM     24  F   UNL     1       3.449   5.501  17.138  0.00  0.00    +0.000 F 
ATOM     25  F   UNL     1       4.805   7.199  17.091  0.00  0.00    +0.000 F 
ATOM     26  F   UNL     1       4.693   5.946  18.864  0.00  0.00    +0.000 F 
ENDBRANCH  20  23
ENDBRANCH   6  17
BRANCH   8  27
ATOM     27  C   UNL     1       0.949  12.893  19.523  0.00  0.00    +0.000 A 
ATOM     28  C   UNL     1       1.793  13.379  20.543  0.00  0.00    +0.000 A 
ATOM     29  C   UNL     1       3.046  13.927  20.251  0.00  0.00    +0.000 A 
ATOM     30  C   UNL     1       3.493  13.976  18.935  0.00  0.00    +0.000 A 
ATOM     31  C   UNL     1       2.702  13.446  17.921  0.00  0.00    +0.000 A 
ATOM     32  C   UNL     1       1.451  12.895  18.215  0.00  0.00    +0.000 A 
ENDBRANCH   8  27
TORSDOF 4
ENDMDL
MODEL 4
REMARK VINA RESULT:      -7.3      0.404      1.207
REMARK  Name = 
REMARK  4 active torsions:
REMARK  status: ('A' for Active; 'I' for Inactive)
REMARK    1  A    between atoms: C_2  and  C_3
REMARK    2  A    between atoms: N_14  and  C_15
REMARK    3  A    between atoms: C_18  and  C_19
REMARK    4  A    between atoms: C_26  and  C_27
REMARK                            x       y       z     vdW  Elec       q    Type
REMARK                         _______ _______ _______ _____ _____    ______ ____
ROOT
ATOM      1  O   UNL     1       2.650   7.981  18.180  0.00  0.00    +0.000 OA
ATOM      2  C   UNL     1       2.116   7.658  19.244  0.00  0.00    +0.000 C 
ATOM      3  N   UNL     1       1.332   8.553  19.951  0.00  0.00    +0.000 N 
ATOM      4  C   UNL     1       0.565   8.266  21.182  0.00  0.00    +0.000 C 
ATOM      5  C   UNL     1       0.711   9.322  22.300  0.00  0.00    +0.000 C 
ATOM      6  N   UNL     1       0.616  10.689  21.770  0.00  0.00    +0.000 N 
ATOM      7  C   UNL     1       1.518  10.948  20.631  0.00  0.00    +0.000 C 
ATOM      8  C   UNL     1       1.267   9.960  19.451  0.00  0.00    +0.000 C 
ENDROOT
BRANCH   2   9
ATOM      9  C   UNL     1       2.334   6.236  19.785  0.00  0.00    +0.000 C 
ATOM     10  C   UNL     1       3.838   5.884  19.864  0.00  0.00    +0.000 C 
ATOM     11  C   UNL     1       4.535   5.657  18.526  0.00  0.00    +0.000 C 
ATOM     12  S   UNL     1       3.739   4.380  17.587  0.00  0.00    +0.000 S 
ATOM     13  O   UNL     1       4.222   4.448  16.223  0.00  0.00    +0.000 OA
ATOM     14  O   UNL     1       3.826   3.145  18.344  0.00  0.00    +0.000 OA
ATOM     15  C   UNL     1       2.042   4.914  17.599  0.00  0.00    +0.000 C 
ATOM     16  C   UNL     1       1.534   5.177  19.012  0.00  0.00    +0.000 C 
ENDBRANCH   2   9
BRANCH   6  17
ATOM     17  C   UNL     1      -0.365  11.574  22.174  0.00  0.00    +0.000 A 
ATOM     18  C   UNL     1      -0.280  12.946  21.898  0.00  0.00    +0.000 A 
ATOM     19  C   UNL     1      -1.265  13.860  22.306  0.00  0.00    +0.000 A 
ATOM     20  C   UNL     1      -2.393  13.426  23.007  0.00  0.00    +0.000 A 
ATOM     21  C   UNL     1      -2.508  12.063  23.282  0.00  0.00    +0.000 A 
ATOM     22  C   UNL     1      -1.519  11.165  22.861  0.00  0.00    +0.000 A 
BRANCH  20  23
ATOM     23  C   UNL     1      -3.464  14.386  23.453  0.00  0.00    +0.000 C 
ATOM     24  F   UNL     1      -3.504  15.536  22.725  0.00  0.00    +0.000 F 
ATOM     25  F   UNL     1      -4.713  13.848  23.368  0.00  0.00    +0.000 F 
ATOM     26  F   UNL     1      -3.312  14.772  24.751  0.00  0.00    +0.000 F 
ENDBRANCH  20  23
ENDBRANCH   6  17
BRANCH   8  27
ATOM     27  C   UNL     1       0.030  10.314  18.622  0.00  0.00    +0.000 A 
ATOM     28  C   UNL     1      -0.491  11.622  18.704  0.00  0.00    +0.000 A 
ATOM     29  C   UNL     1      -1.678  11.975  18.056  0.00  0.00    +0.000 A 
ATOM     30  C   UNL     1      -2.357  11.034  17.290  0.00  0.00    +0.000 A 
ATOM     31  C   UNL     1      -1.830   9.755  17.147  0.00  0.00    +0.000 A 
ATOM     32  C   UNL     1      -0.640   9.405  17.792  0.00  0.00    +0.000 A 
ENDBRANCH   8  27
TORSDOF 4
ENDMDL
MODEL 5
REMARK VINA RESULT:      -7.2      6.147      9.103
REMARK  Name = 
REMARK  4 active torsions:
REMARK  status: ('A' for Active; 'I' for Inactive)
REMARK    1  A    between atoms: C_2  and  C_3
REMARK    2  A    between atoms: N_14  and  C_15
REMARK    3  A    between atoms: C_18  and  C_19
REMARK    4  A    between atoms: C_26  and  C_27
REMARK                            x       y       z     vdW  Elec       q    Type
REMARK                         _______ _______ _______ _____ _____    ______ ____
ROOT
ATOM      1  O   UNL     1      -2.785  14.173  20.599  0.00  0.00    +0.000 OA
ATOM      2  C   UNL     1      -1.580  14.257  20.351  0.00  0.00    +0.000 C 
ATOM      3  N   UNL     1      -0.832  13.131  20.054  0.00  0.00    +0.000 N 
ATOM      4  C   UNL     1       0.590  13.103  19.651  0.00  0.00    +0.000 C 
ATOM      5  C   UNL     1       1.452  12.044  20.376  0.00  0.00    +0.000 C 
ATOM      6  N   UNL     1       0.765  10.748  20.453  0.00  0.00    +0.000 N 
ATOM      7  C   UNL     1      -0.603  10.832  21.002  0.00  0.00    +0.000 C 
ATOM      8  C   UNL     1      -1.504  11.802  20.178  0.00  0.00    +0.000 C 
ENDROOT
BRANCH   2   9
ATOM      9  C   UNL     1      -0.908  15.638  20.377  0.00  0.00    +0.000 C 
ATOM     10  C   UNL     1      -0.114  15.857  21.686  0.00  0.00    +0.000 C 
ATOM     11  C   UNL     1      -0.953  16.061  22.943  0.00  0.00    +0.000 C 
ATOM     12  S   UNL     1      -2.069  17.429  22.764  0.00  0.00    +0.000 S 
ATOM     13  O   UNL     1      -3.051  17.359  23.827  0.00  0.00    +0.000 OA
ATOM     14  O   UNL     1      -1.279  18.630  22.562  0.00  0.00    +0.000 OA
ATOM     15  C   UNL     1      -2.885  17.043  21.231  0.00  0.00    +0.000 C 
ATOM     16  C   UNL     1      -1.893  16.785  20.103  0.00  0.00    +0.000 C 
ENDBRANCH   2   9
BRANCH   6  17
ATOM     17  C   UNL     1       1.280   9.601  19.881  0.00  0.00    +0.000 A 
ATOM     18  C   UNL     1       1.344   8.390  20.584  0.00  0.00    +0.000 A 
ATOM     19  C   UNL     1       1.869   7.216  20.019  0.00  0.00    +0.000 A 
ATOM     20  C   UNL     1       2.347   7.209  18.707  0.00  0.00    +0.000 A 
ATOM     21  C   UNL     1       2.282   8.399  17.981  0.00  0.00    +0.000 A 
ATOM     22  C   UNL     1       1.748   9.557  18.558  0.00  0.00    +0.000 A 
BRANCH  20  23
ATOM     23  C   UNL     1       2.913   5.963  18.079  0.00  0.00    +0.000 C 
ATOM     24  F   UNL     1       3.781   6.212  17.058  0.00  0.00    +0.000 F 
ATOM     25  F   UNL     1       3.600   5.196  18.971  0.00  0.00    +0.000 F 
ATOM     26  F   UNL     1       1.948   5.155  17.558  0.00  0.00    +0.000 F 
ENDBRANCH  20  23
ENDBRANCH   6  17
BRANCH   8  27
ATOM     27  C   UNL     1      -2.009  11.189  18.869  0.00  0.00    +0.000 A 
ATOM     28  C   UNL     1      -3.327  11.469  18.452  0.00  0.00    +0.000 A 
ATOM     29  C   UNL     1      -3.880  10.854  17.325  0.00  0.00    +0.000 A 
ATOM     30  C   UNL     1      -3.117   9.966  16.575  0.00  0.00    +0.000 A 
ATOM     31  C   UNL     1      -1.796   9.721  16.934  0.00  0.00    +0.000 A 
ATOM     32  C   UNL     1      -1.243  10.340  18.059  0.00  0.00    +0.000 A 
ENDBRANCH   8  27
TORSDOF 4
ENDMDL
MODEL 6
REMARK VINA RESULT:      -7.2      6.246      9.430
REMARK  Name = 
REMARK  4 active torsions:
REMARK  status: ('A' for Active; 'I' for Inactive)
REMARK    1  A    between atoms: C_2  and  C_3
REMARK    2  A    between atoms: N_14  and  C_15
REMARK    3  A    between atoms: C_18  and  C_19
REMARK    4  A    between atoms: C_26  and  C_27
REMARK                            x       y       z     vdW  Elec       q    Type
REMARK                         _______ _______ _______ _____ _____    ______ ____
ROOT
ATOM      1  O   UNL     1      -1.778  14.643  21.135  0.00  0.00    +0.000 OA
ATOM      2  C   UNL     1      -1.527  13.685  21.870  0.00  0.00    +0.000 C 
ATOM      3  N   UNL     1      -0.806  12.598  21.407  0.00  0.00    +0.000 N 
ATOM      4  C   UNL     1      -0.360  11.436  22.204  0.00  0.00    +0.000 C 
ATOM      5  C   UNL     1      -0.608  10.061  21.545  0.00  0.00    +0.000 C 
ATOM      6  N   UNL     1      -0.233  10.066  20.124  0.00  0.00    +0.000 N 
ATOM      7  C   UNL     1      -0.833  11.175  19.356  0.00  0.00    +0.000 C 
ATOM      8  C   UNL     1      -0.462  12.566  19.953  0.00  0.00    +0.000 C 
ENDROOT
BRANCH   2   9
ATOM      9  C   UNL     1      -2.030  13.708  23.322  0.00  0.00    +0.000 C 
ATOM     10  C   UNL     1      -3.566  13.869  23.387  0.00  0.00    +0.000 C 
ATOM     11  C   UNL     1      -4.104  15.244  23.007  0.00  0.00    +0.000 C 
ATOM     12  S   UNL     1      -3.395  16.520  24.014  0.00  0.00    +0.000 S 
ATOM     13  O   UNL     1      -3.675  17.800  23.394  0.00  0.00    +0.000 OA
ATOM     14  O   UNL     1      -3.770  16.266  25.393  0.00  0.00    +0.000 OA
ATOM     15  C   UNL     1      -1.653  16.196  23.850  0.00  0.00    +0.000 C 
ATOM     16  C   UNL     1      -1.305  14.751  24.186  0.00  0.00    +0.000 C 
ENDBRANCH   2   9
BRANCH   6  17
ATOM     17  C   UNL     1       0.742   9.232  19.612  0.00  0.00    +0.000 A 
ATOM     18  C   UNL     1       1.282   8.179  20.364  0.00  0.00    +0.000 A 
ATOM     19  C   UNL     1       2.277   7.325  19.861  0.00  0.00    +0.000 A 
ATOM     20  C   UNL     1       2.767   7.489  18.563  0.00  0.00    +0.000 A 
ATOM     21  C   UNL     1       2.235   8.521  17.789  0.00  0.00    +0.000 A 
ATOM     22  C   UNL     1       1.238   9.358  18.305  0.00  0.00    +0.000 A 
BRANCH  20  23
ATOM     23  C   UNL     1       3.831   6.585  18.000  0.00  0.00    +0.000 C 
ATOM     24  F   UNL     1       4.599   5.986  18.953  0.00  0.00    +0.000 F 
ATOM     25  F   UNL     1       3.312   5.573  17.250  0.00  0.00    +0.000 F 
ATOM     26  F   UNL     1       4.700   7.245  17.184  0.00  0.00    +0.000 F 
ENDBRANCH  20  23
ENDBRANCH   6  17
BRANCH   8  27
ATOM     27  C   UNL     1       0.958  13.015  19.597  0.00  0.00    +0.000 A 
ATOM     28  C   UNL     1       1.809  13.460  20.630  0.00  0.00    +0.000 A 
ATOM     29  C   UNL     1       3.076  13.982  20.354  0.00  0.00    +0.000 A 
ATOM     30  C   UNL     1       3.531  14.045  19.042  0.00  0.00    +0.000 A 
ATOM     31  C   UNL     1       2.732  13.556  18.014  0.00  0.00    +0.000 A 
ATOM     32  C   UNL     1       1.466  13.030  18.291  0.00  0.00    +0.000 A 
ENDBRANCH   8  27
TORSDOF 4
ENDMDL
MODEL 7
REMARK VINA RESULT:      -7.2      6.149      9.152
REMARK  Name = 
REMARK  4 active torsions:
REMARK  status: ('A' for Active; 'I' for Inactive)
REMARK    1  A    between atoms: C_2  and  C_3
REMARK    2  A    between atoms: N_14  and  C_15
REMARK    3  A    between atoms: C_18  and  C_19
REMARK    4  A    between atoms: C_26  and  C_27
REMARK                            x       y       z     vdW  Elec       q    Type
REMARK                         _______ _______ _______ _____ _____    ______ ____
ROOT
ATOM      1  O   UNL     1      -2.970  14.187  20.561  0.00  0.00    +0.000 OA
ATOM      2  C   UNL     1      -1.757  14.285  20.358  0.00  0.00    +0.000 C 
ATOM      3  N   UNL     1      -0.987  13.170  20.077  0.00  0.00    +0.000 N 
ATOM      4  C   UNL     1       0.449  13.162  19.726  0.00  0.00    +0.000 C 
ATOM      5  C   UNL     1       1.295  12.104  20.470  0.00  0.00    +0.000 C 
ATOM      6  N   UNL     1       0.619  10.800  20.507  0.00  0.00    +0.000 N 
ATOM      7  C   UNL     1      -0.768  10.864  21.007  0.00  0.00    +0.000 C 
ATOM      8  C   UNL     1      -1.649  11.834  20.161  0.00  0.00    +0.000 C 
ENDROOT
BRANCH   2   9
ATOM      9  C   UNL     1      -1.101  15.673  20.424  0.00  0.00    +0.000 C 
ATOM     10  C   UNL     1      -0.340  15.878  21.755  0.00  0.00    +0.000 C 
ATOM     11  C   UNL     1      -1.210  16.050  22.995  0.00  0.00    +0.000 C 
ATOM     12  S   UNL     1      -2.337  17.409  22.815  0.00  0.00    +0.000 S 
ATOM     13  O   UNL     1      -3.343  17.309  23.853  0.00  0.00    +0.000 OA
ATOM     14  O   UNL     1      -1.557  18.621  22.652  0.00  0.00    +0.000 OA
ATOM     15  C   UNL     1      -3.113  17.041  21.257  0.00  0.00    +0.000 C 
ATOM     16  C   UNL     1      -2.093  16.814  20.147  0.00  0.00    +0.000 C 
ENDBRANCH   2   9
BRANCH   6  17
ATOM     17  C   UNL     1       1.168   9.665  19.942  0.00  0.00    +0.000 A 
ATOM     18  C   UNL     1       1.581   9.633  18.603  0.00  0.00    +0.000 A 
ATOM     19  C   UNL     1       2.136   8.487  18.011  0.00  0.00    +0.000 A 
ATOM     20  C   UNL     1       2.309   7.315  18.753  0.00  0.00    +0.000 A 
ATOM     21  C   UNL     1       1.918   7.326  20.092  0.00  0.00    +0.000 A 
ATOM     22  C   UNL     1       1.374   8.480  20.667  0.00  0.00    +0.000 A 
BRANCH  20  23
ATOM     23  C   UNL     1       2.903   6.074  18.142  0.00  0.00    +0.000 C 
ATOM     24  F   UNL     1       3.501   5.252  19.049  0.00  0.00    +0.000 F 
ATOM     25  F   UNL     1       1.972   5.310  17.505  0.00  0.00    +0.000 F 
ATOM     26  F   UNL     1       3.856   6.354  17.209  0.00  0.00    +0.000 F 
ENDBRANCH  20  23
ENDBRANCH   6  17
BRANCH   8  27
ATOM     27  C   UNL     1      -2.099  11.230  18.828  0.00  0.00    +0.000 A 
ATOM     28  C   UNL     1      -3.374  11.566  18.327  0.00  0.00    +0.000 A 
ATOM     29  C   UNL     1      -3.883  10.964  17.172  0.00  0.00    +0.000 A 
ATOM     30  C   UNL     1      -3.117  10.034  16.479  0.00  0.00    +0.000 A 
ATOM     31  C   UNL     1      -1.834   9.734  16.922  0.00  0.00    +0.000 A 
ATOM     32  C   UNL     1      -1.324  10.339  18.075  0.00  0.00    +0.000 A 
ENDBRANCH   8  27
TORSDOF 4
ENDMDL
MODEL 8
REMARK VINA RESULT:      -7.1      6.246      9.435
REMARK  Name = 
REMARK  4 active torsions:
REMARK  status: ('A' for Active; 'I' for Inactive)
REMARK    1  A    between atoms: C_2  and  C_3
REMARK    2  A    between atoms: N_14  and  C_15
REMARK    3  A    between atoms: C_18  and  C_19
REMARK    4  A    between atoms: C_26  and  C_27
REMARK                            x       y       z     vdW  Elec       q    Type
REMARK                         _______ _______ _______ _____ _____    ______ ____
ROOT
ATOM      1  O   UNL     1      -1.916  14.750  21.154  0.00  0.00    +0.000 OA
ATOM      2  C   UNL     1      -1.643  13.812  21.907  0.00  0.00    +0.000 C 
ATOM      3  N   UNL     1      -0.925  12.718  21.456  0.00  0.00    +0.000 N 
ATOM      4  C   UNL     1      -0.456  11.579  22.273  0.00  0.00    +0.000 C 
ATOM      5  C   UNL     1      -0.709  10.186  21.654  0.00  0.00    +0.000 C 
ATOM      6  N   UNL     1      -0.363  10.158  20.226  0.00  0.00    +0.000 N 
ATOM      7  C   UNL     1      -0.986  11.244  19.443  0.00  0.00    +0.000 C 
ATOM      8  C   UNL     1      -0.611  12.652  19.997  0.00  0.00    +0.000 C 
ENDROOT
BRANCH   2   9
ATOM      9  C   UNL     1      -2.116  13.869  23.369  0.00  0.00    +0.000 C 
ATOM     10  C   UNL     1      -3.659  13.908  23.464  0.00  0.00    +0.000 C 
ATOM     11  C   UNL     1      -4.316  15.214  23.030  0.00  0.00    +0.000 C 
ATOM     12  S   UNL     1      -3.692  16.593  23.955  0.00  0.00    +0.000 S 
ATOM     13  O   UNL     1      -4.089  17.813  23.280  0.00  0.00    +0.000 OA
ATOM     14  O   UNL     1      -4.017  16.380  25.353  0.00  0.00    +0.000 OA
ATOM     15  C   UNL     1      -1.934  16.403  23.764  0.00  0.00    +0.000 C 
ATOM     16  C   UNL     1      -1.461  15.010  24.162  0.00  0.00    +0.000 C 
ENDBRANCH   2   9
BRANCH   6  17
ATOM     17  C   UNL     1       0.606   9.317  19.715  0.00  0.00    +0.000 A 
ATOM     18  C   UNL     1       1.079   9.448  18.402  0.00  0.00    +0.000 A 
ATOM     19  C   UNL     1       2.060   8.599  17.864  0.00  0.00    +0.000 A 
ATOM     20  C   UNL     1       2.619   7.577  18.636  0.00  0.00    +0.000 A 
ATOM     21  C   UNL     1       2.174   7.435  19.951  0.00  0.00    +0.000 A 
ATOM     22  C   UNL     1       1.201   8.296  20.472  0.00  0.00    +0.000 A 
BRANCH  20  23
ATOM     23  C   UNL     1       3.672   6.655  18.084  0.00  0.00    +0.000 C 
ATOM     24  F   UNL     1       4.458   6.088  19.042  0.00  0.00    +0.000 F 
ATOM     25  F   UNL     1       3.139   5.619  17.379  0.00  0.00    +0.000 F 
ATOM     26  F   UNL     1       4.525   7.287  17.230  0.00  0.00    +0.000 F 
ENDBRANCH  20  23
ENDBRANCH   6  17
BRANCH   8  27
ATOM     27  C   UNL     1       0.798  13.100  19.600  0.00  0.00    +0.000 A 
ATOM     28  C   UNL     1       1.224  12.899  18.270  0.00  0.00    +0.000 A 
ATOM     29  C   UNL     1       2.534  13.188  17.875  0.00  0.00    +0.000 A 
ATOM     30  C   UNL     1       3.437  13.709  18.794  0.00  0.00    +0.000 A 
ATOM     31  C   UNL     1       3.021  13.971  20.094  0.00  0.00    +0.000 A 
ATOM     32  C   UNL     1       1.709  13.686  20.488  0.00  0.00    +0.000 A 
ENDBRANCH   8  27
TORSDOF 4
ENDMDL
MODEL 9
REMARK VINA RESULT:      -7.1      6.256      9.419
REMARK  Name = 
REMARK  4 active torsions:
REMARK  status: ('A' for Active; 'I' for Inactive)
REMARK    1  A    between atoms: C_2  and  C_3
REMARK    2  A    between atoms: N_14  and  C_15
REMARK    3  A    between atoms: C_18  and  C_19
REMARK    4  A    between atoms: C_26  and  C_27
REMARK                            x       y       z     vdW  Elec       q    Type
REMARK                         _______ _______ _______ _____ _____    ______ ____
ROOT
ATOM      1  O   UNL     1      -1.856  14.799  21.188  0.00  0.00    +0.000 OA
ATOM      2  C   UNL     1      -1.586  13.850  21.927  0.00  0.00    +0.000 C 
ATOM      3  N   UNL     1      -0.877  12.758  21.459  0.00  0.00    +0.000 N 
ATOM      4  C   UNL     1      -0.411  11.605  22.259  0.00  0.00    +0.000 C 
ATOM      5  C   UNL     1      -0.676  10.222  21.623  0.00  0.00    +0.000 C 
ATOM      6  N   UNL     1      -0.336  10.210  20.193  0.00  0.00    +0.000 N 
ATOM      7  C   UNL     1      -0.956  11.310  19.427  0.00  0.00    +0.000 C 
ATOM      8  C   UNL     1      -0.570  12.709  19.998  0.00  0.00    +0.000 C 
ENDROOT
BRANCH   2   9
ATOM      9  C   UNL     1      -2.053  13.891  23.391  0.00  0.00    +0.000 C 
ATOM     10  C   UNL     1      -3.592  13.990  23.493  0.00  0.00    +0.000 C 
ATOM     11  C   UNL     1      -4.197  15.331  23.093  0.00  0.00    +0.000 C 
ATOM     12  S   UNL     1      -3.516  16.662  24.048  0.00  0.00    +0.000 S 
ATOM     13  O   UNL     1      -3.865  17.912  23.403  0.00  0.00    +0.000 OA
ATOM     14  O   UNL     1      -3.845  16.429  25.442  0.00  0.00    +0.000 OA
ATOM     15  C   UNL     1      -1.767  16.406  23.846  0.00  0.00    +0.000 C 
ATOM     16  C   UNL     1      -1.350  14.985  24.209  0.00  0.00    +0.000 C 
ENDBRANCH   2   9
BRANCH   6  17
ATOM     17  C   UNL     1       0.625   9.370  19.667  0.00  0.00    +0.000 A 
ATOM     18  C   UNL     1       1.167   8.312  20.410  0.00  0.00    +0.000 A 
ATOM     19  C   UNL     1       2.149   7.451  19.892  0.00  0.00    +0.000 A 
ATOM     20  C   UNL     1       2.622   7.614  18.588  0.00  0.00    +0.000 A 
ATOM     21  C   UNL     1       2.088   8.651  17.823  0.00  0.00    +0.000 A 
ATOM     22  C   UNL     1       1.105   9.495  18.354  0.00  0.00    +0.000 A 
BRANCH  20  23
ATOM     23  C   UNL     1       3.672   6.703  18.009  0.00  0.00    +0.000 C 
ATOM     24  F   UNL     1       4.499   7.319  17.119  0.00  0.00    +0.000 F 
ATOM     25  F   UNL     1       4.485   6.171  18.965  0.00  0.00    +0.000 F 
ATOM     26  F   UNL     1       3.135   5.642  17.344  0.00  0.00    +0.000 F 
ENDBRANCH  20  23
ENDBRANCH   6  17
BRANCH   8  27
ATOM     27  C   UNL     1       0.840  13.152  19.600  0.00  0.00    +0.000 A 
ATOM     28  C   UNL     1       1.258  12.972  18.265  0.00  0.00    +0.000 A 
ATOM     29  C   UNL     1       2.567  13.258  17.867  0.00  0.00    +0.000 A 
ATOM     30  C   UNL     1       3.480  13.755  18.790  0.00  0.00    +0.000 A 
ATOM     31  C   UNL     1       3.073  13.998  20.097  0.00  0.00    +0.000 A 
ATOM     32  C   UNL     1       1.762  13.716  20.493  0.00  0.00    +0.000 A 
ENDBRANCH   8  27
TORSDOF 4
ENDMDL
