MODEL 1
REMARK VINA RESULT:      -8.1      0.000      0.000
REMARK  Name = 
REMARK  11 active torsions:
REMARK  status: ('A' for Active; 'I' for Inactive)
REMARK    1  A    between atoms: C_1  and  C_2
REMARK    2  A    between atoms: C_2  and  C_3
REMARK    3  A    between atoms: C_3  and  C_4
REMARK    4  A    between atoms: C_4  and  N_5
REMARK    5  A    between atoms: N_5  and  C_6
REMARK    6  A    between atoms: C_6  and  C_7
REMARK    7  A    between atoms: C_7  and  C_8
REMARK    8  A    between atoms: C_8  and  C_9
REMARK    9  A    between atoms: C_10  and  C_12
REMARK   10  A    between atoms: C_12  and  C_14
REMARK   11  A    between atoms: C_15  and  C_16
REMARK                            x       y       z     vdW  Elec       q    Type
REMARK                         _______ _______ _______ _____ _____    ______ ____
ROOT
ATOM      1  C   UNL     1       3.413   5.604  18.979  0.00  0.00    +0.000 A 
ATOM      2  C   UNL     1       2.490   6.459  19.598  0.00  0.00    +0.000 A 
ATOM      3  N   UNL     1       1.943   5.747  20.648  0.00  0.00    +0.000 N 
ATOM      4  C   UNL     1       2.488   4.494  20.753  0.00  0.00    +0.000 A 
ATOM      5  C   UNL     1       2.234   3.484  21.690  0.00  0.00    +0.000 A 
ATOM      6  C   UNL     1       2.957   2.293  21.579  0.00  0.00    +0.000 A 
ATOM      7  C   UNL     1       3.891   2.126  20.562  0.00  0.00    +0.000 A 
ATOM      8  C   UNL     1       4.125   3.146  19.631  0.00  0.00    +0.000 A 
ATOM      9  C   UNL     1       3.409   4.363  19.716  0.00  0.00    +0.000 A 
ATOM     10  H   UNL     1       1.228   6.098  21.268  0.00  0.00    +0.000 HD
ENDROOT
BRANCH   2  11
ATOM     11  C   UNL     1       2.037   7.835  19.302  0.00  0.00    +0.000 A 
ATOM     12  C   UNL     1       1.474   8.646  20.298  0.00  0.00    +0.000 A 
ATOM     13  C   UNL     1       1.019   9.939  20.022  0.00  0.00    +0.000 A 
ATOM     14  C   UNL     1       1.155  10.445  18.741  0.00  0.00    +0.000 A 
ATOM     15  F   UNL     1       0.725  11.685  18.472  0.00  0.00    +0.000 F 
ATOM     16  C   UNL     1       1.729   9.683  17.735  0.00  0.00    +0.000 A 
ATOM     17  C   UNL     1       2.162   8.378  18.011  0.00  0.00    +0.000 A 
ENDBRANCH   2  11
BRANCH   1  18
ATOM     18  C   UNL     1       4.241   5.930  17.806  0.00  0.00    +0.000 C 
ATOM     19  O   UNL     1       4.751   7.031  17.626  0.00  0.00    +0.000 OA
BRANCH  18  21
ATOM     20  N   UNL     1       5.793   4.709  16.217  0.00  0.00    +0.000 N 
ATOM     21  C   UNL     1       4.478   4.893  16.705  0.00  0.00    +0.000 C 
ATOM     22  O   UNL     1       3.502   4.256  16.320  0.00  0.00    +0.000 OA
BRANCH  20  23
ATOM     23  C   UNL     1       5.979   3.661  15.203  0.00  0.00    +0.000 C 
BRANCH  23  24
ATOM     24  C   UNL     1       6.320   4.077  13.767  0.00  0.00    +0.000 C 
BRANCH  24  26
ATOM     25  C   UNL     1       6.183   2.478  11.776  0.00  0.00    +0.000 C 
ATOM     26  C   UNL     1       5.466   3.502  12.638  0.00  0.00    +0.000 C 
ENDBRANCH  24  26
ENDBRANCH  23  24
ENDBRANCH  20  23
BRANCH  20  27
ATOM     27  C   UNL     1       6.921   5.474  16.762  0.00  0.00    +0.000 C 
BRANCH  27  28
ATOM     28  C   UNL     1       7.643   4.988  18.022  0.00  0.00    +0.000 C 
BRANCH  28  29
ATOM     29  C   UNL     1       7.900   6.041  19.099  0.00  0.00    +0.000 C 
ATOM     30  C   UNL     1       8.133   7.399  18.444  0.00  0.00    +0.000 C 
ENDBRANCH  28  29
ENDBRANCH  27  28
ENDBRANCH  20  27
ENDBRANCH  18  21
ENDBRANCH   1  18
TORSDOF 9
ENDMDL
MODEL 2
REMARK VINA RESULT:      -7.7      1.435      1.845
REMARK  Name = 
REMARK  11 active torsions:
REMARK  status: ('A' for Active; 'I' for Inactive)
REMARK    1  A    between atoms: C_1  and  C_2
REMARK    2  A    between atoms: C_2  and  C_3
REMARK    3  A    between atoms: C_3  and  C_4
REMARK    4  A    between atoms: C_4  and  N_5
REMARK    5  A    between atoms: N_5  and  C_6
REMARK    6  A    between atoms: C_6  and  C_7
REMARK    7  A    between atoms: C_7  and  C_8
REMARK    8  A    between atoms: C_8  and  C_9
REMARK    9  A    between atoms: C_10  and  C_12
REMARK   10  A    between atoms: C_12  and  C_14
REMARK   11  A    between atoms: C_15  and  C_16
REMARK                            x       y       z     vdW  Elec       q    Type
REMARK                         _______ _______ _______ _____ _____    ______ ____
ROOT
ATOM      1  C   UNL     1       3.442   5.907  18.006  0.00  0.00    +0.000 A 
ATOM      2  C   UNL     1       2.341   6.405  18.718  0.00  0.00    +0.000 A 
ATOM      3  N   UNL     1       1.617   5.305  19.135  0.00  0.00    +0.000 N 
ATOM      4  C   UNL     1       2.211   4.130  18.754  0.00  0.00    +0.000 A 
ATOM      5  C   UNL     1       1.819   2.808  19.002  0.00  0.00    +0.000 A 
ATOM      6  C   UNL     1       2.631   1.782  18.511  0.00  0.00    +0.000 A 
ATOM      7  C   UNL     1       3.786   2.077  17.794  0.00  0.00    +0.000 A 
ATOM      8  C   UNL     1       4.157   3.407  17.551  0.00  0.00    +0.000 A 
ATOM      9  C   UNL     1       3.355   4.467  18.035  0.00  0.00    +0.000 A 
ATOM     10  H   UNL     1       0.754   5.350  19.657  0.00  0.00    +0.000 HD
ENDROOT
BRANCH   2  11
ATOM     11  C   UNL     1       1.872   7.774  19.019  0.00  0.00    +0.000 A 
ATOM     12  C   UNL     1       1.685   8.720  18.000  0.00  0.00    +0.000 A 
ATOM     13  C   UNL     1       1.267  10.025  18.276  0.00  0.00    +0.000 A 
ATOM     14  C   UNL     1       1.001  10.387  19.585  0.00  0.00    +0.000 A 
ATOM     15  F   UNL     1       0.595  11.635  19.855  0.00  0.00    +0.000 F 
ATOM     16  C   UNL     1       1.149   9.474  20.617  0.00  0.00    +0.000 A 
ATOM     17  C   UNL     1       1.592   8.173  20.338  0.00  0.00    +0.000 A 
ENDBRANCH   2  11
BRANCH   1  18
ATOM     18  C   UNL     1       4.494   6.715  17.368  0.00  0.00    +0.000 C 
ATOM     19  O   UNL     1       4.780   7.853  17.724  0.00  0.00    +0.000 OA
BRANCH  18  21
ATOM     20  N   UNL     1       6.544   5.583  16.397  0.00  0.00    +0.000 N 
ATOM     21  C   UNL     1       5.278   6.171  16.170  0.00  0.00    +0.000 C 
ATOM     22  O   UNL     1       4.742   6.258  15.069  0.00  0.00    +0.000 OA
BRANCH  20  23
ATOM     23  C   UNL     1       7.230   5.023  15.225  0.00  0.00    +0.000 C 
BRANCH  23  24
ATOM     24  C   UNL     1       6.522   3.937  14.406  0.00  0.00    +0.000 C 
BRANCH  24  26
ATOM     25  C   UNL     1       5.628   3.135  12.148  0.00  0.00    +0.000 C 
ATOM     26  C   UNL     1       6.625   4.012  12.883  0.00  0.00    +0.000 C 
ENDBRANCH  24  26
ENDBRANCH  23  24
ENDBRANCH  20  23
BRANCH  20  27
ATOM     27  C   UNL     1       7.099   5.470  17.752  0.00  0.00    +0.000 C 
BRANCH  27  28
ATOM     28  C   UNL     1       7.833   6.654  18.385  0.00  0.00    +0.000 C 
BRANCH  28  29
ATOM     29  C   UNL     1       7.990   7.895  17.507  0.00  0.00    +0.000 C 
ATOM     30  C   UNL     1       8.450   9.073  18.362  0.00  0.00    +0.000 C 
ENDBRANCH  28  29
ENDBRANCH  27  28
ENDBRANCH  20  27
ENDBRANCH  18  21
ENDBRANCH   1  18
TORSDOF 9
ENDMDL
MODEL 3
REMARK VINA RESULT:      -7.7      0.781      1.371
REMARK  Name = 
REMARK  11 active torsions:
REMARK  status: ('A' for Active; 'I' for Inactive)
REMARK    1  A    between atoms: C_1  and  C_2
REMARK    2  A    between atoms: C_2  and  C_3
REMARK    3  A    between atoms: C_3  and  C_4
REMARK    4  A    between atoms: C_4  and  N_5
REMARK    5  A    between atoms: N_5  and  C_6
REMARK    6  A    between atoms: C_6  and  C_7
REMARK    7  A    between atoms: C_7  and  C_8
REMARK    8  A    between atoms: C_8  and  C_9
REMARK    9  A    between atoms: C_10  and  C_12
REMARK   10  A    between atoms: C_12  and  C_14
REMARK   11  A    between atoms: C_15  and  C_16
REMARK                            x       y       z     vdW  Elec       q    Type
REMARK                         _______ _______ _______ _____ _____    ______ ____
ROOT
ATOM      1  C   UNL     1       3.279   5.900  19.135  0.00  0.00    +0.000 A 
ATOM      2  C   UNL     1       2.292   6.650  19.790  0.00  0.00    +0.000 A 
ATOM      3  N   UNL     1       1.748   5.822  20.753  0.00  0.00    +0.000 N 
ATOM      4  C   UNL     1       2.354   4.593  20.769  0.00  0.00    +0.000 A 
ATOM      5  C   UNL     1       2.123   3.493  21.604  0.00  0.00    +0.000 A 
ATOM      6  C   UNL     1       2.910   2.353  21.418  0.00  0.00    +0.000 A 
ATOM      7  C   UNL     1       3.885   2.323  20.427  0.00  0.00    +0.000 A 
ATOM      8  C   UNL     1       4.097   3.433  19.597  0.00  0.00    +0.000 A 
ATOM      9  C   UNL     1       3.316   4.600  19.761  0.00  0.00    +0.000 A 
ATOM     10  H   UNL     1       0.995   6.081  21.373  0.00  0.00    +0.000 HD
ENDROOT
BRANCH   2  11
ATOM     11  C   UNL     1       1.778   8.023  19.598  0.00  0.00    +0.000 A 
ATOM     12  C   UNL     1       1.751   8.619  18.329  0.00  0.00    +0.000 A 
ATOM     13  C   UNL     1       1.291   9.926  18.141  0.00  0.00    +0.000 A 
ATOM     14  C   UNL     1       0.821  10.641  19.228  0.00  0.00    +0.000 A 
ATOM     15  F   UNL     1       0.374  11.892  19.053  0.00  0.00    +0.000 F 
ATOM     16  C   UNL     1       0.807  10.077  20.495  0.00  0.00    +0.000 A 
ATOM     17  C   UNL     1       1.292   8.775  20.682  0.00  0.00    +0.000 A 
ENDBRANCH   2  11
BRANCH   1  18
ATOM     18  C   UNL     1       4.128   6.370  18.027  0.00  0.00    +0.000 C 
ATOM     19  O   UNL     1       4.408   7.549  17.846  0.00  0.00    +0.000 OA
BRANCH  18  21
ATOM     20  N   UNL     1       6.085   5.202  16.917  0.00  0.00    +0.000 N 
ATOM     21  C   UNL     1       4.684   5.383  16.997  0.00  0.00    +0.000 C 
ATOM     22  O   UNL     1       3.868   4.779  16.307  0.00  0.00    +0.000 OA
BRANCH  20  23
ATOM     23  C   UNL     1       6.566   4.201  15.954  0.00  0.00    +0.000 C 
BRANCH  23  24
ATOM     24  C   UNL     1       7.146   4.682  14.619  0.00  0.00    +0.000 C 
BRANCH  24  26
ATOM     25  C   UNL     1       5.183   3.784  13.246  0.00  0.00    +0.000 C 
ATOM     26  C   UNL     1       6.687   3.971  13.346  0.00  0.00    +0.000 C 
ENDBRANCH  24  26
ENDBRANCH  23  24
ENDBRANCH  20  23
BRANCH  20  27
ATOM     27  C   UNL     1       6.997   5.924  17.812  0.00  0.00    +0.000 C 
BRANCH  27  28
ATOM     28  C   UNL     1       7.608   7.258  17.376  0.00  0.00    +0.000 C 
BRANCH  28  29
ATOM     29  C   UNL     1       8.331   8.054  18.461  0.00  0.00    +0.000 C 
ATOM     30  C   UNL     1       8.385   9.527  18.068  0.00  0.00    +0.000 C 
ENDBRANCH  28  29
ENDBRANCH  27  28
ENDBRANCH  20  27
ENDBRANCH  18  21
ENDBRANCH   1  18
TORSDOF 9
ENDMDL
MODEL 4
REMARK VINA RESULT:      -7.5      2.883      6.870
REMARK  Name = 
REMARK  11 active torsions:
REMARK  status: ('A' for Active; 'I' for Inactive)
REMARK    1  A    between atoms: C_1  and  C_2
REMARK    2  A    between atoms: C_2  and  C_3
REMARK    3  A    between atoms: C_3  and  C_4
REMARK    4  A    between atoms: C_4  and  N_5
REMARK    5  A    between atoms: N_5  and  C_6
REMARK    6  A    between atoms: C_6  and  C_7
REMARK    7  A    between atoms: C_7  and  C_8
REMARK    8  A    between atoms: C_8  and  C_9
REMARK    9  A    between atoms: C_10  and  C_12
REMARK   10  A    between atoms: C_12  and  C_14
REMARK   11  A    between atoms: C_15  and  C_16
REMARK                            x       y       z     vdW  Elec       q    Type
REMARK                         _______ _______ _______ _____ _____    ______ ____
ROOT
ATOM      1  C   UNL     1       3.496   5.029  18.088  0.00  0.00    +0.000 A 
ATOM      2  C   UNL     1       4.054   4.214  17.092  0.00  0.00    +0.000 A 
ATOM      3  N   UNL     1       3.433   2.985  17.201  0.00  0.00    +0.000 N 
ATOM      4  C   UNL     1       2.486   2.979  18.192  0.00  0.00    +0.000 A 
ATOM      5  C   UNL     1       1.623   1.953  18.597  0.00  0.00    +0.000 A 
ATOM      6  C   UNL     1       0.727   2.224  19.634  0.00  0.00    +0.000 A 
ATOM      7  C   UNL     1       0.707   3.475  20.241  0.00  0.00    +0.000 A 
ATOM      8  C   UNL     1       1.583   4.487  19.825  0.00  0.00    +0.000 A 
ATOM      9  C   UNL     1       2.502   4.242  18.778  0.00  0.00    +0.000 A 
ATOM     10  H   UNL     1       3.644   2.183  16.626  0.00  0.00    +0.000 HD
ENDROOT
BRANCH   2  11
ATOM     11  C   UNL     1       5.115   4.437  16.087  0.00  0.00    +0.000 A 
ATOM     12  C   UNL     1       6.380   4.916  16.458  0.00  0.00    +0.000 A 
ATOM     13  C   UNL     1       7.382   5.154  15.512  0.00  0.00    +0.000 A 
ATOM     14  C   UNL     1       7.131   4.883  14.179  0.00  0.00    +0.000 A 
ATOM     15  F   UNL     1       8.090   5.105  13.269  0.00  0.00    +0.000 F 
ATOM     16  C   UNL     1       5.902   4.385  13.775  0.00  0.00    +0.000 A 
ATOM     17  C   UNL     1       4.893   4.170  14.725  0.00  0.00    +0.000 A 
ENDBRANCH   2  11
BRANCH   1  18
ATOM     18  C   UNL     1       3.852   6.432  18.356  0.00  0.00    +0.000 C 
ATOM     19  O   UNL     1       4.843   6.766  18.996  0.00  0.00    +0.000 OA
BRANCH  18  21
ATOM     20  N   UNL     1       2.058   8.173  18.780  0.00  0.00    +0.000 N 
ATOM     21  C   UNL     1       2.955   7.572  17.865  0.00  0.00    +0.000 C 
ATOM     22  O   UNL     1       3.085   7.919  16.695  0.00  0.00    +0.000 OA
BRANCH  20  23
ATOM     23  C   UNL     1       1.261   9.301  18.277  0.00  0.00    +0.000 C 
BRANCH  23  24
ATOM     24  C   UNL     1       1.753  10.728  18.547  0.00  0.00    +0.000 C 
BRANCH  24  26
ATOM     25  C   UNL     1       1.325  12.411  20.425  0.00  0.00    +0.000 C 
ATOM     26  C   UNL     1       0.776  11.707  19.197  0.00  0.00    +0.000 C 
ENDBRANCH  24  26
ENDBRANCH  23  24
ENDBRANCH  20  23
BRANCH  20  27
ATOM     27  C   UNL     1       1.994   7.737  20.180  0.00  0.00    +0.000 C 
BRANCH  27  28
ATOM     28  C   UNL     1       0.838   8.188  21.075  0.00  0.00    +0.000 C 
BRANCH  28  29
ATOM     29  C   UNL     1       1.208   9.093  22.249  0.00  0.00    +0.000 C 
ATOM     30  C   UNL     1      -0.052   9.743  22.814  0.00  0.00    +0.000 C 
ENDBRANCH  28  29
ENDBRANCH  27  28
ENDBRANCH  20  27
ENDBRANCH  18  21
ENDBRANCH   1  18
TORSDOF 9
ENDMDL
MODEL 5
REMARK VINA RESULT:      -7.5      0.478      1.099
REMARK  Name = 
REMARK  11 active torsions:
REMARK  status: ('A' for Active; 'I' for Inactive)
REMARK    1  A    between atoms: C_1  and  C_2
REMARK    2  A    between atoms: C_2  and  C_3
REMARK    3  A    between atoms: C_3  and  C_4
REMARK    4  A    between atoms: C_4  and  N_5
REMARK    5  A    between atoms: N_5  and  C_6
REMARK    6  A    between atoms: C_6  and  C_7
REMARK    7  A    between atoms: C_7  and  C_8
REMARK    8  A    between atoms: C_8  and  C_9
REMARK    9  A    between atoms: C_10  and  C_12
REMARK   10  A    between atoms: C_12  and  C_14
REMARK   11  A    between atoms: C_15  and  C_16
REMARK                            x       y       z     vdW  Elec       q    Type
REMARK                         _______ _______ _______ _____ _____    ______ ____
ROOT
ATOM      1  C   UNL     1       3.275   5.670  19.009  0.00  0.00    +0.000 A 
ATOM      2  C   UNL     1       2.360   6.512  19.658  0.00  0.00    +0.000 A 
ATOM      3  N   UNL     1       1.843   5.786  20.714  0.00  0.00    +0.000 N 
ATOM      4  C   UNL     1       2.401   4.536  20.793  0.00  0.00    +0.000 A 
ATOM      5  C   UNL     1       2.177   3.515  21.726  0.00  0.00    +0.000 A 
ATOM      6  C   UNL     1       2.906   2.331  21.587  0.00  0.00    +0.000 A 
ATOM      7  C   UNL     1       3.817   2.181  20.546  0.00  0.00    +0.000 A 
ATOM      8  C   UNL     1       4.021   3.212  19.620  0.00  0.00    +0.000 A 
ATOM      9  C   UNL     1       3.298   4.422  19.734  0.00  0.00    +0.000 A 
ATOM     10  H   UNL     1       1.141   6.125  21.354  0.00  0.00    +0.000 HD
ENDROOT
BRANCH   2  11
ATOM     11  C   UNL     1       1.890   7.887  19.387  0.00  0.00    +0.000 A 
ATOM     12  C   UNL     1       1.973   8.445  18.103  0.00  0.00    +0.000 A 
ATOM     13  C   UNL     1       1.555   9.753  17.842  0.00  0.00    +0.000 A 
ATOM     14  C   UNL     1       1.017  10.509  18.868  0.00  0.00    +0.000 A 
ATOM     15  F   UNL     1       0.610  11.762  18.622  0.00  0.00    +0.000 F 
ATOM     16  C   UNL     1       0.894   9.985  20.145  0.00  0.00    +0.000 A 
ATOM     17  C   UNL     1       1.337   8.680  20.408  0.00  0.00    +0.000 A 
ENDBRANCH   2  11
BRANCH   1  18
ATOM     18  C   UNL     1       4.073   6.015  17.820  0.00  0.00    +0.000 C 
ATOM     19  O   UNL     1       4.612   7.104  17.663  0.00  0.00    +0.000 OA
BRANCH  18  21
ATOM     20  N   UNL     1       5.460   4.990  15.962  0.00  0.00    +0.000 N 
ATOM     21  C   UNL     1       4.238   5.013  16.674  0.00  0.00    +0.000 C 
ATOM     22  O   UNL     1       3.293   4.261  16.452  0.00  0.00    +0.000 OA
BRANCH  20  23
ATOM     23  C   UNL     1       5.591   3.972  14.911  0.00  0.00    +0.000 C 
BRANCH  23  24
ATOM     24  C   UNL     1       6.731   4.105  13.894  0.00  0.00    +0.000 C 
BRANCH  24  26
ATOM     25  C   UNL     1       5.013   3.275  12.191  0.00  0.00    +0.000 C 
ATOM     26  C   UNL     1       6.450   3.688  12.451  0.00  0.00    +0.000 C 
ENDBRANCH  24  26
ENDBRANCH  23  24
ENDBRANCH  20  23
BRANCH  20  27
ATOM     27  C   UNL     1       6.565   5.888  16.319  0.00  0.00    +0.000 C 
BRANCH  27  28
ATOM     28  C   UNL     1       7.615   5.447  17.341  0.00  0.00    +0.000 C 
BRANCH  28  29
ATOM     29  C   UNL     1       7.786   6.348  18.563  0.00  0.00    +0.000 C 
ATOM     30  C   UNL     1       7.489   5.554  19.832  0.00  0.00    +0.000 C 
ENDBRANCH  28  29
ENDBRANCH  27  28
ENDBRANCH  20  27
ENDBRANCH  18  21
ENDBRANCH   1  18
TORSDOF 9
ENDMDL
MODEL 6
REMARK VINA RESULT:      -7.5      2.866      6.877
REMARK  Name = 
REMARK  11 active torsions:
REMARK  status: ('A' for Active; 'I' for Inactive)
REMARK    1  A    between atoms: C_1  and  C_2
REMARK    2  A    between atoms: C_2  and  C_3
REMARK    3  A    between atoms: C_3  and  C_4
REMARK    4  A    between atoms: C_4  and  N_5
REMARK    5  A    between atoms: N_5  and  C_6
REMARK    6  A    between atoms: C_6  and  C_7
REMARK    7  A    between atoms: C_7  and  C_8
REMARK    8  A    between atoms: C_8  and  C_9
REMARK    9  A    between atoms: C_10  and  C_12
REMARK   10  A    between atoms: C_12  and  C_14
REMARK   11  A    between atoms: C_15  and  C_16
REMARK                            x       y       z     vdW  Elec       q    Type
REMARK                         _______ _______ _______ _____ _____    ______ ____
ROOT
ATOM      1  C   UNL     1       3.455   5.078  18.150  0.00  0.00    +0.000 A 
ATOM      2  C   UNL     1       4.025   4.269  17.155  0.00  0.00    +0.000 A 
ATOM      3  N   UNL     1       3.417   3.033  17.262  0.00  0.00    +0.000 N 
ATOM      4  C   UNL     1       2.468   3.017  18.250  0.00  0.00    +0.000 A 
ATOM      5  C   UNL     1       1.614   1.981  18.653  0.00  0.00    +0.000 A 
ATOM      6  C   UNL     1       0.712   2.242  19.687  0.00  0.00    +0.000 A 
ATOM      7  C   UNL     1       0.677   3.493  20.295  0.00  0.00    +0.000 A 
ATOM      8  C   UNL     1       1.544   4.514  19.881  0.00  0.00    +0.000 A 
ATOM      9  C   UNL     1       2.468   4.280  18.837  0.00  0.00    +0.000 A 
ATOM     10  H   UNL     1       3.638   2.234  16.687  0.00  0.00    +0.000 HD
ENDROOT
BRANCH   2  11
ATOM     11  C   UNL     1       5.087   4.503  16.154  0.00  0.00    +0.000 A 
ATOM     12  C   UNL     1       4.878   4.234  14.794  0.00  0.00    +0.000 A 
ATOM     13  C   UNL     1       5.884   4.428  13.843  0.00  0.00    +0.000 A 
ATOM     14  C   UNL     1       7.109   4.927  14.247  0.00  0.00    +0.000 A 
ATOM     15  F   UNL     1       8.076   5.119  13.339  0.00  0.00    +0.000 F 
ATOM     16  C   UNL     1       7.348   5.229  15.579  0.00  0.00    +0.000 A 
ATOM     17  C   UNL     1       6.343   5.010  16.532  0.00  0.00    +0.000 A 
ENDBRANCH   2  11
BRANCH   1  18
ATOM     18  C   UNL     1       3.796   6.484  18.419  0.00  0.00    +0.000 C 
ATOM     19  O   UNL     1       4.765   6.827  19.088  0.00  0.00    +0.000 OA
BRANCH  18  21
ATOM     20  N   UNL     1       2.017   8.252  18.791  0.00  0.00    +0.000 N 
ATOM     21  C   UNL     1       2.909   7.616  17.895  0.00  0.00    +0.000 C 
ATOM     22  O   UNL     1       3.041   7.926  16.714  0.00  0.00    +0.000 OA
BRANCH  20  23
ATOM     23  C   UNL     1       1.230   9.371  18.254  0.00  0.00    +0.000 C 
BRANCH  23  24
ATOM     24  C   UNL     1       1.345  10.743  18.929  0.00  0.00    +0.000 C 
BRANCH  24  26
ATOM     25  C   UNL     1      -1.212  10.710  18.987  0.00  0.00    +0.000 C 
ATOM     26  C   UNL     1       0.055  11.525  19.174  0.00  0.00    +0.000 C 
ENDBRANCH  24  26
ENDBRANCH  23  24
ENDBRANCH  20  23
BRANCH  20  27
ATOM     27  C   UNL     1       1.951   7.860  20.204  0.00  0.00    +0.000 C 
BRANCH  27  28
ATOM     28  C   UNL     1       0.727   8.225  21.047  0.00  0.00    +0.000 C 
BRANCH  28  29
ATOM     29  C   UNL     1       0.994   9.069  22.292  0.00  0.00    +0.000 C 
ATOM     30  C   UNL     1      -0.288   9.781  22.714  0.00  0.00    +0.000 C 
ENDBRANCH  28  29
ENDBRANCH  27  28
ENDBRANCH  20  27
ENDBRANCH  18  21
ENDBRANCH   1  18
TORSDOF 9
ENDMDL
MODEL 7
REMARK VINA RESULT:      -7.4      5.782      9.748
REMARK  Name = 
REMARK  11 active torsions:
REMARK  status: ('A' for Active; 'I' for Inactive)
REMARK    1  A    between atoms: C_1  and  C_2
REMARK    2  A    between atoms: C_2  and  C_3
REMARK    3  A    between atoms: C_3  and  C_4
REMARK    4  A    between atoms: C_4  and  N_5
REMARK    5  A    between atoms: N_5  and  C_6
REMARK    6  A    between atoms: C_6  and  C_7
REMARK    7  A    between atoms: C_7  and  C_8
REMARK    8  A    between atoms: C_8  and  C_9
REMARK    9  A    between atoms: C_10  and  C_12
REMARK   10  A    between atoms: C_12  and  C_14
REMARK   11  A    between atoms: C_15  and  C_16
REMARK                            x       y       z     vdW  Elec       q    Type
REMARK                         _______ _______ _______ _____ _____    ______ ____
ROOT
ATOM      1  C   UNL     1      -0.511  11.234  19.689  0.00  0.00    +0.000 A 
ATOM      2  C   UNL     1      -0.426  11.287  21.089  0.00  0.00    +0.000 A 
ATOM      3  N   UNL     1       0.403  10.249  21.468  0.00  0.00    +0.000 N 
ATOM      4  C   UNL     1       0.877   9.554  20.386  0.00  0.00    +0.000 A 
ATOM      5  C   UNL     1       1.758   8.466  20.338  0.00  0.00    +0.000 A 
ATOM      6  C   UNL     1       2.099   7.956  19.083  0.00  0.00    +0.000 A 
ATOM      7  C   UNL     1       1.567   8.514  17.925  0.00  0.00    +0.000 A 
ATOM      8  C   UNL     1       0.683   9.599  17.995  0.00  0.00    +0.000 A 
ATOM      9  C   UNL     1       0.318  10.137  19.251  0.00  0.00    +0.000 A 
ATOM     10  H   UNL     1       0.636  10.021  22.423  0.00  0.00    +0.000 HD
ENDROOT
BRANCH   2  11
ATOM     11  C   UNL     1      -1.053  12.161  22.103  0.00  0.00    +0.000 A 
ATOM     12  C   UNL     1      -2.197  11.757  22.806  0.00  0.00    +0.000 A 
ATOM     13  C   UNL     1      -2.812  12.587  23.748  0.00  0.00    +0.000 A 
ATOM     14  C   UNL     1      -2.262  13.828  24.017  0.00  0.00    +0.000 A 
ATOM     15  F   UNL     1      -2.845  14.625  24.923  0.00  0.00    +0.000 F 
ATOM     16  C   UNL     1      -1.118  14.254  23.361  0.00  0.00    +0.000 A 
ATOM     17  C   UNL     1      -0.519  13.428  22.400  0.00  0.00    +0.000 A 
ENDBRANCH   2  11
BRANCH   1  18
ATOM     18  C   UNL     1      -1.290  12.148  18.837  0.00  0.00    +0.000 C 
ATOM     19  O   UNL     1      -0.790  13.074  18.208  0.00  0.00    +0.000 OA
BRANCH  18  21
ATOM     20  N   UNL     1      -3.350  11.400  17.563  0.00  0.00    +0.000 N 
ATOM     21  C   UNL     1      -2.810  12.003  18.723  0.00  0.00    +0.000 C 
ATOM     22  O   UNL     1      -3.480  12.404  19.670  0.00  0.00    +0.000 OA
BRANCH  20  23
ATOM     23  C   UNL     1      -4.809  11.230  17.527  0.00  0.00    +0.000 C 
BRANCH  23  24
ATOM     24  C   UNL     1      -5.678  12.413  17.083  0.00  0.00    +0.000 C 
BRANCH  24  26
ATOM     25  C   UNL     1      -7.252  12.006  19.058  0.00  0.00    +0.000 C 
ATOM     26  C   UNL     1      -7.104  12.493  17.627  0.00  0.00    +0.000 C 
ENDBRANCH  24  26
ENDBRANCH  23  24
ENDBRANCH  20  23
BRANCH  20  27
ATOM     27  C   UNL     1      -2.481  10.897  16.492  0.00  0.00    +0.000 C 
BRANCH  27  28
ATOM     28  C   UNL     1      -2.939   9.731  15.612  0.00  0.00    +0.000 C 
BRANCH  28  29
ATOM     29  C   UNL     1      -3.616  10.107  14.295  0.00  0.00    +0.000 C 
ATOM     30  C   UNL     1      -2.802   9.561  13.126  0.00  0.00    +0.000 C 
ENDBRANCH  28  29
ENDBRANCH  27  28
ENDBRANCH  20  27
ENDBRANCH  18  21
ENDBRANCH   1  18
TORSDOF 9
ENDMDL
MODEL 8
REMARK VINA RESULT:      -7.4      3.025      5.789
REMARK  Name = 
REMARK  11 active torsions:
REMARK  status: ('A' for Active; 'I' for Inactive)
REMARK    1  A    between atoms: C_1  and  C_2
REMARK    2  A    between atoms: C_2  and  C_3
REMARK    3  A    between atoms: C_3  and  C_4
REMARK    4  A    between atoms: C_4  and  N_5
REMARK    5  A    between atoms: N_5  and  C_6
REMARK    6  A    between atoms: C_6  and  C_7
REMARK    7  A    between atoms: C_7  and  C_8
REMARK    8  A    between atoms: C_8  and  C_9
REMARK    9  A    between atoms: C_10  and  C_12
REMARK   10  A    between atoms: C_12  and  C_14
REMARK   11  A    between atoms: C_15  and  C_16
REMARK                            x       y       z     vdW  Elec       q    Type
REMARK                         _______ _______ _______ _____ _____    ______ ____
ROOT
ATOM      1  C   UNL     1       2.375   6.898  18.675  0.00  0.00    +0.000 A 
ATOM      2  C   UNL     1       1.801   6.430  19.866  0.00  0.00    +0.000 A 
ATOM      3  N   UNL     1       1.265   7.534  20.500  0.00  0.00    +0.000 N 
ATOM      4  C   UNL     1       1.438   8.678  19.765  0.00  0.00    +0.000 A 
ATOM      5  C   UNL     1       1.018   9.987  20.036  0.00  0.00    +0.000 A 
ATOM      6  C   UNL     1       1.311  10.975  19.093  0.00  0.00    +0.000 A 
ATOM      7  C   UNL     1       2.004  10.658  17.929  0.00  0.00    +0.000 A 
ATOM      8  C   UNL     1       2.420   9.343  17.680  0.00  0.00    +0.000 A 
ATOM      9  C   UNL     1       2.139   8.321  18.616  0.00  0.00    +0.000 A 
ATOM     10  H   UNL     1       0.800   7.512  21.396  0.00  0.00    +0.000 HD
ENDROOT
BRANCH   2  11
ATOM     11  C   UNL     1       1.730   5.092  20.491  0.00  0.00    +0.000 A 
ATOM     12  C   UNL     1       2.528   4.761  21.596  0.00  0.00    +0.000 A 
ATOM     13  C   UNL     1       2.487   3.491  22.178  0.00  0.00    +0.000 A 
ATOM     14  C   UNL     1       1.615   2.543  21.672  0.00  0.00    +0.000 A 
ATOM     15  F   UNL     1       1.567   1.325  22.229  0.00  0.00    +0.000 F 
ATOM     16  C   UNL     1       0.791   2.839  20.597  0.00  0.00    +0.000 A 
ATOM     17  C   UNL     1       0.854   4.108  20.001  0.00  0.00    +0.000 A 
ENDBRANCH   2  11
BRANCH   1  18
ATOM     18  C   UNL     1       3.070   6.076  17.670  0.00  0.00    +0.000 C 
ATOM     19  O   UNL     1       2.593   5.054  17.189  0.00  0.00    +0.000 OA
BRANCH  18  21
ATOM     20  N   UNL     1       5.589   5.980  17.930  0.00  0.00    +0.000 N 
ATOM     21  C   UNL     1       4.476   6.450  17.194  0.00  0.00    +0.000 C 
ATOM     22  O   UNL     1       4.558   7.127  16.173  0.00  0.00    +0.000 OA
BRANCH  20  23
ATOM     23  C   UNL     1       6.919   6.315  17.400  0.00  0.00    +0.000 C 
BRANCH  23  24
ATOM     24  C   UNL     1       7.815   7.263  18.206  0.00  0.00    +0.000 C 
BRANCH  24  26
ATOM     25  C   UNL     1       8.772   9.597  18.629  0.00  0.00    +0.000 C 
ATOM     26  C   UNL     1       7.935   8.709  17.725  0.00  0.00    +0.000 C 
ENDBRANCH  24  26
ENDBRANCH  23  24
ENDBRANCH  20  23
BRANCH  20  27
ATOM     27  C   UNL     1       5.415   5.131  19.115  0.00  0.00    +0.000 C 
BRANCH  27  28
ATOM     28  C   UNL     1       5.605   3.616  19.011  0.00  0.00    +0.000 C 
BRANCH  28  29
ATOM     29  C   UNL     1       4.381   2.760  19.332  0.00  0.00    +0.000 C 
ATOM     30  C   UNL     1       3.751   2.257  18.035  0.00  0.00    +0.000 C 
ENDBRANCH  28  29
ENDBRANCH  27  28
ENDBRANCH  20  27
ENDBRANCH  18  21
ENDBRANCH   1  18
TORSDOF 9
ENDMDL
MODEL 9
REMARK VINA RESULT:      -7.4      6.417     10.052
REMARK  Name = 
REMARK  11 active torsions:
REMARK  status: ('A' for Active; 'I' for Inactive)
REMARK    1  A    between atoms: C_1  and  C_2
REMARK    2  A    between atoms: C_2  and  C_3
REMARK    3  A    between atoms: C_3  and  C_4
REMARK    4  A    between atoms: C_4  and  N_5
REMARK    5  A    between atoms: N_5  and  C_6
REMARK    6  A    between atoms: C_6  and  C_7
REMARK    7  A    between atoms: C_7  and  C_8
REMARK    8  A    between atoms: C_8  and  C_9
REMARK    9  A    between atoms: C_10  and  C_12
REMARK   10  A    between atoms: C_12  and  C_14
REMARK   11  A    between atoms: C_15  and  C_16
REMARK                            x       y       z     vdW  Elec       q    Type
REMARK                         _______ _______ _______ _____ _____    ______ ____
ROOT
ATOM      1  C   UNL     1      -0.864  11.538  20.727  0.00  0.00    +0.000 A 
ATOM      2  C   UNL     1      -1.017  11.615  22.119  0.00  0.00    +0.000 A 
ATOM      3  N   UNL     1      -0.326  10.542  22.647  0.00  0.00    +0.000 N 
ATOM      4  C   UNL     1       0.287   9.801  21.670  0.00  0.00    +0.000 A 
ATOM      5  C   UNL     1       1.101   8.666  21.787  0.00  0.00    +0.000 A 
ATOM      6  C   UNL     1       1.622   8.113  20.615  0.00  0.00    +0.000 A 
ATOM      7  C   UNL     1       1.330   8.675  19.377  0.00  0.00    +0.000 A 
ATOM      8  C   UNL     1       0.509   9.807  19.281  0.00  0.00    +0.000 A 
ATOM      9  C   UNL     1      -0.035  10.389  20.449  0.00  0.00    +0.000 A 
ATOM     10  H   UNL     1      -0.272  10.322  23.630  0.00  0.00    +0.000 HD
ENDROOT
BRANCH   2  11
ATOM     11  C   UNL     1      -1.759  12.542  23.000  0.00  0.00    +0.000 A 
ATOM     12  C   UNL     1      -3.037  12.224  23.480  0.00  0.00    +0.000 A 
ATOM     13  C   UNL     1      -3.757  13.106  24.293  0.00  0.00    +0.000 A 
ATOM     14  C   UNL     1      -3.182  14.310  24.659  0.00  0.00    +0.000 A 
ATOM     15  F   UNL     1      -3.866  15.156  25.442  0.00  0.00    +0.000 F 
ATOM     16  C   UNL     1      -1.910  14.650  24.225  0.00  0.00    +0.000 A 
ATOM     17  C   UNL     1      -1.202  13.773  23.391  0.00  0.00    +0.000 A 
ENDBRANCH   2  11
BRANCH   1  18
ATOM     18  C   UNL     1      -1.432  12.474  19.742  0.00  0.00    +0.000 C 
ATOM     19  O   UNL     1      -0.769  13.325  19.160  0.00  0.00    +0.000 OA
BRANCH  18  21
ATOM     20  N   UNL     1      -3.374  11.703  18.307  0.00  0.00    +0.000 N 
ATOM     21  C   UNL     1      -2.929  12.453  19.420  0.00  0.00    +0.000 C 
ATOM     22  O   UNL     1      -3.669  13.081  20.172  0.00  0.00    +0.000 OA
BRANCH  20  23
ATOM     23  C   UNL     1      -4.825  11.667  18.074  0.00  0.00    +0.000 C 
BRANCH  23  24
ATOM     24  C   UNL     1      -5.654  10.575  18.761  0.00  0.00    +0.000 C 
BRANCH  24  26
ATOM     25  C   UNL     1      -7.510   9.890  20.383  0.00  0.00    +0.000 C 
ATOM     26  C   UNL     1      -6.851  11.015  19.605  0.00  0.00    +0.000 C 
ENDBRANCH  24  26
ENDBRANCH  23  24
ENDBRANCH  20  23
BRANCH  20  27
ATOM     27  C   UNL     1      -2.433  10.936  17.482  0.00  0.00    +0.000 C 
BRANCH  27  28
ATOM     28  C   UNL     1      -2.950  10.061  16.337  0.00  0.00    +0.000 C 
BRANCH  28  29
ATOM     29  C   UNL     1      -3.130  10.756  14.988  0.00  0.00    +0.000 C 
ATOM     30  C   UNL     1      -3.074   9.722  13.866  0.00  0.00    +0.000 C 
ENDBRANCH  28  29
ENDBRANCH  27  28
ENDBRANCH  20  27
ENDBRANCH  18  21
ENDBRANCH   1  18
TORSDOF 9
ENDMDL
