MODEL 1
REMARK VINA RESULT:      -8.8      0.000      0.000
REMARK  Name = 
REMARK  3 active torsions:
REMARK  status: ('A' for Active; 'I' for Inactive)
REMARK    1  A    between atoms: C_2  and  C_15
REMARK    2  A    between atoms: N_3  and  C_4
REMARK    3  A    between atoms: C_4  and  C_5
REMARK                            x       y       z     vdW  Elec       q    Type
REMARK                         _______ _______ _______ _____ _____    ______ ____
ROOT
ATOM      1  O   UNL     1       4.974   5.301  19.879  0.00  0.00    +0.000 OA
ATOM      2  C   UNL     1       5.130   4.917  18.719  0.00  0.00    +0.000 C 
ATOM      3  N   UNL     1       4.081   4.728  17.840  0.00  0.00    +0.000 N 
ATOM      4  H   UNL     1       4.263   4.505  16.867  0.00  0.00    +0.000 HD
ENDROOT
BRANCH   2   5
ATOM      5  C   UNL     1       6.537   4.687  18.163  0.00  0.00    +0.000 C 
ATOM      6  C   UNL     1       7.493   5.759  18.682  0.00  0.00    +0.000 C 
ATOM      7  C   UNL     1       7.425   6.992  17.798  0.00  0.00    +0.000 C 
ATOM      8  O   UNL     1       7.796   6.700  16.452  0.00  0.00    +0.000 OA
ATOM      9  C   UNL     1       7.176   5.614  15.902  0.00  0.00    +0.000 A 
ATOM     10  N   UNL     1       7.196   5.601  14.558  0.00  0.00    +0.000 NA
ATOM     11  C   UNL     1       6.600   4.565  13.933  0.00  0.00    +0.000 A 
ATOM     12  C   UNL     1       5.976   3.525  14.598  0.00  0.00    +0.000 A 
ATOM     13  C   UNL     1       5.972   3.543  15.982  0.00  0.00    +0.000 A 
ATOM     14  C   UNL     1       6.584   4.609  16.661  0.00  0.00    +0.000 A 
ENDBRANCH   2   5
BRANCH   3  15
ATOM     15  C   UNL     1       2.713   5.018  18.181  0.00  0.00    +0.000 C 
ATOM     16  C   UNL     1       1.623   4.262  17.447  0.00  0.00    +0.000 C 
ATOM     17  C   UNL     1       1.889   3.953  18.884  0.00  0.00    +0.000 C 
BRANCH  15  18
ATOM     18  C   UNL     1       2.535   6.481  18.576  0.00  0.00    +0.000 A 
ATOM     19  C   UNL     1       2.691   7.479  17.592  0.00  0.00    +0.000 A 
ATOM     20  C   UNL     1       2.277   8.794  17.804  0.00  0.00    +0.000 A 
ATOM     21  C   UNL     1       1.707   9.145  19.021  0.00  0.00    +0.000 A 
ATOM     22 CL   UNL     1       1.065  10.726  19.236  0.00  0.00    +0.000 Cl
ATOM     23  C   UNL     1       1.611   8.211  20.047  0.00  0.00    +0.000 A 
ATOM     24  C   UNL     1       2.030   6.894  19.827  0.00  0.00    +0.000 A 
ATOM     25 CL   UNL     1       1.815   5.765  21.120  0.00  0.00    +0.000 Cl
ENDBRANCH  15  18
ENDBRANCH   3  15
TORSDOF 3
ENDMDL
MODEL 2
REMARK VINA RESULT:      -8.0      1.197      1.332
REMARK  Name = 
REMARK  3 active torsions:
REMARK  status: ('A' for Active; 'I' for Inactive)
REMARK    1  A    between atoms: C_2  and  C_15
REMARK    2  A    between atoms: N_3  and  C_4
REMARK    3  A    between atoms: C_4  and  C_5
REMARK                            x       y       z     vdW  Elec       q    Type
REMARK                         _______ _______ _______ _____ _____    ______ ____
ROOT
ATOM      1  O   UNL     1       3.490   4.795  17.178  0.00  0.00    +0.000 OA
ATOM      2  C   UNL     1       4.299   5.064  18.067  0.00  0.00    +0.000 C 
ATOM      3  N   UNL     1       3.938   5.651  19.264  0.00  0.00    +0.000 N 
ATOM      4  H   UNL     1       4.620   5.764  20.006  0.00  0.00    +0.000 HD
ENDROOT
BRANCH   2   5
ATOM      5  C   UNL     1       5.775   4.689  17.909  0.00  0.00    +0.000 C 
ATOM      6  C   UNL     1       6.653   5.654  18.703  0.00  0.00    +0.000 C 
ATOM      7  C   UNL     1       6.956   6.888  17.873  0.00  0.00    +0.000 C 
ATOM      8  O   UNL     1       7.651   6.562  16.671  0.00  0.00    +0.000 OA
ATOM      9  C   UNL     1       7.101   5.548  15.939  0.00  0.00    +0.000 A 
ATOM     10  N   UNL     1       7.488   5.536  14.651  0.00  0.00    +0.000 NA
ATOM     11  C   UNL     1       6.986   4.570  13.856  0.00  0.00    +0.000 A 
ATOM     12  C   UNL     1       6.102   3.600  14.293  0.00  0.00    +0.000 A 
ATOM     13  C   UNL     1       5.719   3.615  15.622  0.00  0.00    +0.000 A 
ATOM     14  C   UNL     1       6.225   4.609  16.476  0.00  0.00    +0.000 A 
ENDBRANCH   2   5
BRANCH   3  15
ATOM     15  C   UNL     1       2.571   5.950  19.606  0.00  0.00    +0.000 C 
ATOM     16  C   UNL     1       1.531   4.871  19.377  0.00  0.00    +0.000 C 
ATOM     17  C   UNL     1       1.930   5.221  20.773  0.00  0.00    +0.000 C 
BRANCH  15  18
ATOM     18  C   UNL     1       2.249   7.423  19.377  0.00  0.00    +0.000 A 
ATOM     19  C   UNL     1       2.502   7.991  18.111  0.00  0.00    +0.000 A 
ATOM     20  C   UNL     1       1.984   9.233  17.743  0.00  0.00    +0.000 A 
ATOM     21  C   UNL     1       1.209   9.947  18.647  0.00  0.00    +0.000 A 
ATOM     22 CL   UNL     1       0.451  11.409  18.150  0.00  0.00    +0.000 Cl
ATOM     23  C   UNL     1       1.004   9.461  19.934  0.00  0.00    +0.000 A 
ATOM     24  C   UNL     1       1.528   8.215  20.296  0.00  0.00    +0.000 A 
ATOM     25 CL   UNL     1       1.176   7.636  21.887  0.00  0.00    +0.000 Cl
ENDBRANCH  15  18
ENDBRANCH   3  15
TORSDOF 3
ENDMDL
MODEL 3
REMARK VINA RESULT:      -7.9      1.269      1.423
REMARK  Name = 
REMARK  3 active torsions:
REMARK  status: ('A' for Active; 'I' for Inactive)
REMARK    1  A    between atoms: C_2  and  C_15
REMARK    2  A    between atoms: N_3  and  C_4
REMARK    3  A    between atoms: C_4  and  C_5
REMARK                            x       y       z     vdW  Elec       q    Type
REMARK                         _______ _______ _______ _____ _____    ______ ____
ROOT
ATOM      1  O   UNL     1       4.043   5.751  16.384  0.00  0.00    +0.000 OA
ATOM      2  C   UNL     1       4.524   4.901  17.134  0.00  0.00    +0.000 C 
ATOM      3  N   UNL     1       3.814   4.312  18.162  0.00  0.00    +0.000 N 
ATOM      4  H   UNL     1       4.218   3.548  18.692  0.00  0.00    +0.000 HD
ENDROOT
BRANCH   2   5
ATOM      5  C   UNL     1       5.952   4.395  16.915  0.00  0.00    +0.000 C 
ATOM      6  C   UNL     1       6.928   5.166  17.800  0.00  0.00    +0.000 C 
ATOM      7  C   UNL     1       7.357   6.449  17.111  0.00  0.00    +0.000 C 
ATOM      8  O   UNL     1       8.013   6.191  15.871  0.00  0.00    +0.000 OA
ATOM      9  C   UNL     1       7.357   5.330  15.036  0.00  0.00    +0.000 A 
ATOM     10  N   UNL     1       7.739   5.424  13.750  0.00  0.00    +0.000 NA
ATOM     11  C   UNL     1       7.136   4.613  12.858  0.00  0.00    +0.000 A 
ATOM     12  C   UNL     1       6.155   3.697  13.194  0.00  0.00    +0.000 A 
ATOM     13  C   UNL     1       5.779   3.600  14.522  0.00  0.00    +0.000 A 
ATOM     14  C   UNL     1       6.388   4.433  15.476  0.00  0.00    +0.000 A 
ENDBRANCH   2   5
BRANCH   3  15
ATOM     15  C   UNL     1       2.425   4.598  18.416  0.00  0.00    +0.000 C 
ATOM     16  C   UNL     1       1.411   4.159  17.377  0.00  0.00    +0.000 C 
ATOM     17  C   UNL     1       1.476   3.444  18.687  0.00  0.00    +0.000 C 
BRANCH  15  18
ATOM     18  C   UNL     1       2.255   5.902  19.188  0.00  0.00    +0.000 A 
ATOM     19  C   UNL     1       2.152   7.113  18.472  0.00  0.00    +0.000 A 
ATOM     20  C   UNL     1       1.722   8.293  19.078  0.00  0.00    +0.000 A 
ATOM     21  C   UNL     1       1.397   8.291  20.428  0.00  0.00    +0.000 A 
ATOM     22 CL   UNL     1       0.730   9.705  21.146  0.00  0.00    +0.000 Cl
ATOM     23  C   UNL     1       1.563   7.139  21.189  0.00  0.00    +0.000 A 
ATOM     24  C   UNL     1       1.997   5.959  20.574  0.00  0.00    +0.000 A 
ATOM     25 CL   UNL     1       2.113   4.544  21.562  0.00  0.00    +0.000 Cl
ENDBRANCH  15  18
ENDBRANCH   3  15
TORSDOF 3
ENDMDL
MODEL 4
REMARK VINA RESULT:      -7.6      1.233      3.045
REMARK  Name = 
REMARK  3 active torsions:
REMARK  status: ('A' for Active; 'I' for Inactive)
REMARK    1  A    between atoms: C_2  and  C_15
REMARK    2  A    between atoms: N_3  and  C_4
REMARK    3  A    between atoms: C_4  and  C_5
REMARK                            x       y       z     vdW  Elec       q    Type
REMARK                         _______ _______ _______ _____ _____    ______ ____
ROOT
ATOM      1  O   UNL     1       5.054   5.356  19.938  0.00  0.00    +0.000 OA
ATOM      2  C   UNL     1       5.265   5.400  18.726  0.00  0.00    +0.000 C 
ATOM      3  N   UNL     1       4.329   5.845  17.812  0.00  0.00    +0.000 N 
ATOM      4  H   UNL     1       4.579   5.958  16.836  0.00  0.00    +0.000 HD
ENDROOT
BRANCH   2   5
ATOM      5  C   UNL     1       6.636   5.015  18.164  0.00  0.00    +0.000 C 
ATOM      6  C   UNL     1       7.679   6.063  18.550  0.00  0.00    +0.000 C 
ATOM      7  C   UNL     1       7.671   7.202  17.547  0.00  0.00    +0.000 C 
ATOM      8  O   UNL     1       7.981   6.751  16.230  0.00  0.00    +0.000 OA
ATOM      9  C   UNL     1       7.272   5.662  15.807  0.00  0.00    +0.000 A 
ATOM     10  N   UNL     1       7.251   5.513  14.471  0.00  0.00    +0.000 NA
ATOM     11  C   UNL     1       6.567   4.466  13.969  0.00  0.00    +0.000 A 
ATOM     12  C   UNL     1       5.892   3.545  14.751  0.00  0.00    +0.000 A 
ATOM     13  C   UNL     1       5.930   3.702  16.125  0.00  0.00    +0.000 A 
ATOM     14  C   UNL     1       6.634   4.784  16.678  0.00  0.00    +0.000 A 
ENDBRANCH   2   5
BRANCH   3  15
ATOM     15  C   UNL     1       3.039   6.353  18.201  0.00  0.00    +0.000 C 
ATOM     16  C   UNL     1       2.898   7.849  18.405  0.00  0.00    +0.000 C 
ATOM     17  C   UNL     1       2.259   7.207  17.217  0.00  0.00    +0.000 C 
BRANCH  15  18
ATOM     18  C   UNL     1       2.291   5.359  19.084  0.00  0.00    +0.000 A 
ATOM     19  C   UNL     1       2.250   4.002  18.703  0.00  0.00    +0.000 A 
ATOM     20  C   UNL     1       1.835   3.001  19.582  0.00  0.00    +0.000 A 
ATOM     21  C   UNL     1       1.435   3.342  20.868  0.00  0.00    +0.000 A 
ATOM     22 CL   UNL     1       1.060   2.102  21.999  0.00  0.00    +0.000 Cl
ATOM     23  C   UNL     1       1.382   4.677  21.256  0.00  0.00    +0.000 A 
ATOM     24  C   UNL     1       1.798   5.674  20.367  0.00  0.00    +0.000 A 
ATOM     25 CL   UNL     1       1.777   7.307  20.939  0.00  0.00    +0.000 Cl
ENDBRANCH  15  18
ENDBRANCH   3  15
TORSDOF 3
ENDMDL
MODEL 5
REMARK VINA RESULT:      -7.6      2.732      5.865
REMARK  Name = 
REMARK  3 active torsions:
REMARK  status: ('A' for Active; 'I' for Inactive)
REMARK    1  A    between atoms: C_2  and  C_15
REMARK    2  A    between atoms: N_3  and  C_4
REMARK    3  A    between atoms: C_4  and  C_5
REMARK                            x       y       z     vdW  Elec       q    Type
REMARK                         _______ _______ _______ _____ _____    ______ ____
ROOT
ATOM      1  O   UNL     1       4.911   4.845  18.864  0.00  0.00    +0.000 OA
ATOM      2  C   UNL     1       4.376   5.522  17.986  0.00  0.00    +0.000 C 
ATOM      3  N   UNL     1       5.060   6.020  16.894  0.00  0.00    +0.000 N 
ATOM      4  H   UNL     1       4.561   6.488  16.145  0.00  0.00    +0.000 HD
ENDROOT
BRANCH   2   5
ATOM      5  C   UNL     1       2.871   5.796  18.029  0.00  0.00    +0.000 C 
ATOM      6  C   UNL     1       2.592   7.100  18.774  0.00  0.00    +0.000 C 
ATOM      7  C   UNL     1       2.512   6.842  20.267  0.00  0.00    +0.000 C 
ATOM      8  O   UNL     1       1.466   5.928  20.592  0.00  0.00    +0.000 OA
ATOM      9  C   UNL     1       1.446   4.780  19.851  0.00  0.00    +0.000 A 
ATOM     10  N   UNL     1       0.762   3.775  20.424  0.00  0.00    +0.000 NA
ATOM     11  C   UNL     1       0.698   2.603  19.760  0.00  0.00    +0.000 A 
ATOM     12  C   UNL     1       1.294   2.385  18.530  0.00  0.00    +0.000 A 
ATOM     13  C   UNL     1       1.985   3.431  17.944  0.00  0.00    +0.000 A 
ATOM     14  C   UNL     1       2.071   4.664  18.612  0.00  0.00    +0.000 A 
ENDBRANCH   2   5
BRANCH   3  15
ATOM     15  C   UNL     1       6.453   5.744  16.653  0.00  0.00    +0.000 C 
ATOM     16  C   UNL     1       6.879   4.292  16.546  0.00  0.00    +0.000 C 
ATOM     17  C   UNL     1       6.864   5.145  15.319  0.00  0.00    +0.000 C 
BRANCH  15  18
ATOM     18  C   UNL     1       7.350   6.786  17.311  0.00  0.00    +0.000 A 
ATOM     19  C   UNL     1       7.350   8.104  16.810  0.00  0.00    +0.000 A 
ATOM     20  C   UNL     1       7.918   9.164  17.517  0.00  0.00    +0.000 A 
ATOM     21  C   UNL     1       8.518   8.921  18.746  0.00  0.00    +0.000 A 
ATOM     22 CL   UNL     1       9.092  10.242  19.688  0.00  0.00    +0.000 Cl
ATOM     23  C   UNL     1       8.614   7.624  19.239  0.00  0.00    +0.000 A 
ATOM     24  C   UNL     1       8.042   6.567  18.521  0.00  0.00    +0.000 A 
ATOM     25 CL   UNL     1       8.132   4.990  19.225  0.00  0.00    +0.000 Cl
ENDBRANCH  15  18
ENDBRANCH   3  15
TORSDOF 3
ENDMDL
MODEL 6
REMARK VINA RESULT:      -7.4      2.229      3.517
REMARK  Name = 
REMARK  3 active torsions:
REMARK  status: ('A' for Active; 'I' for Inactive)
REMARK    1  A    between atoms: C_2  and  C_15
REMARK    2  A    between atoms: N_3  and  C_4
REMARK    3  A    between atoms: C_4  and  C_5
REMARK                            x       y       z     vdW  Elec       q    Type
REMARK                         _______ _______ _______ _____ _____    ______ ____
ROOT
ATOM      1  O   UNL     1       5.559   4.736  19.984  0.00  0.00    +0.000 OA
ATOM      2  C   UNL     1       5.591   4.826  18.757  0.00  0.00    +0.000 C 
ATOM      3  N   UNL     1       4.480   5.125  17.992  0.00  0.00    +0.000 N 
ATOM      4  H   UNL     1       4.573   5.287  16.995  0.00  0.00    +0.000 HD
ENDROOT
BRANCH   2   5
ATOM      5  C   UNL     1       6.915   4.672  18.005  0.00  0.00    +0.000 C 
ATOM      6  C   UNL     1       7.871   5.803  18.379  0.00  0.00    +0.000 C 
ATOM      7  C   UNL     1       7.606   7.020  17.511  0.00  0.00    +0.000 C 
ATOM      8  O   UNL     1       7.797   6.735  16.127  0.00  0.00    +0.000 OA
ATOM      9  C   UNL     1       7.170   5.609  15.673  0.00  0.00    +0.000 A 
ATOM     10  N   UNL     1       6.998   5.583  14.340  0.00  0.00    +0.000 NA
ATOM     11  C   UNL     1       6.380   4.508  13.810  0.00  0.00    +0.000 A 
ATOM     12  C   UNL     1       5.919   3.441  14.561  0.00  0.00    +0.000 A 
ATOM     13  C   UNL     1       6.112   3.474  15.930  0.00  0.00    +0.000 A 
ATOM     14  C   UNL     1       6.752   4.580  16.513  0.00  0.00    +0.000 A 
ENDBRANCH   2   5
BRANCH   3  15
ATOM     15  C   UNL     1       3.192   5.416  18.567  0.00  0.00    +0.000 C 
ATOM     16  C   UNL     1       2.800   6.872  18.728  0.00  0.00    +0.000 C 
ATOM     17  C   UNL     1       2.121   6.040  17.690  0.00  0.00    +0.000 C 
BRANCH  15  18
ATOM     18  C   UNL     1       2.794   4.368  19.601  0.00  0.00    +0.000 A 
ATOM     19  C   UNL     1       2.681   4.750  20.953  0.00  0.00    +0.000 A 
ATOM     20  C   UNL     1       2.061   3.935  21.901  0.00  0.00    +0.000 A 
ATOM     21  C   UNL     1       1.549   2.703  21.514  0.00  0.00    +0.000 A 
ATOM     22 CL   UNL     1       0.658   1.760  22.643  0.00  0.00    +0.000 Cl
ATOM     23  C   UNL     1       1.712   2.253  20.208  0.00  0.00    +0.000 A 
ATOM     24  C   UNL     1       2.337   3.076  19.265  0.00  0.00    +0.000 A 
ATOM     25 CL   UNL     1       2.442   2.487  17.642  0.00  0.00    +0.000 Cl
ENDBRANCH  15  18
ENDBRANCH   3  15
TORSDOF 3
ENDMDL
MODEL 7
REMARK VINA RESULT:      -7.3      1.414      1.785
REMARK  Name = 
REMARK  3 active torsions:
REMARK  status: ('A' for Active; 'I' for Inactive)
REMARK    1  A    between atoms: C_2  and  C_15
REMARK    2  A    between atoms: N_3  and  C_4
REMARK    3  A    between atoms: C_4  and  C_5
REMARK                            x       y       z     vdW  Elec       q    Type
REMARK                         _______ _______ _______ _____ _____    ______ ____
ROOT
ATOM      1  O   UNL     1       3.744   3.697  17.838  0.00  0.00    +0.000 OA
ATOM      2  C   UNL     1       4.543   4.492  18.333  0.00  0.00    +0.000 C 
ATOM      3  N   UNL     1       4.169   5.488  19.214  0.00  0.00    +0.000 N 
ATOM      4  H   UNL     1       4.872   6.056  19.674  0.00  0.00    +0.000 HD
ENDROOT
BRANCH   2   5
ATOM      5  C   UNL     1       6.040   4.368  18.041  0.00  0.00    +0.000 C 
ATOM      6  C   UNL     1       6.826   5.391  18.859  0.00  0.00    +0.000 C 
ATOM      7  C   UNL     1       6.870   6.720  18.128  0.00  0.00    +0.000 C 
ATOM      8  O   UNL     1       7.505   6.606  16.857  0.00  0.00    +0.000 OA
ATOM      9  C   UNL     1       7.056   5.582  16.072  0.00  0.00    +0.000 A 
ATOM     10  N   UNL     1       7.333   5.735  14.766  0.00  0.00    +0.000 NA
ATOM     11  C   UNL     1       6.919   4.770  13.920  0.00  0.00    +0.000 A 
ATOM     12  C   UNL     1       6.229   3.641  14.325  0.00  0.00    +0.000 A 
ATOM     13  C   UNL     1       5.960   3.488  15.673  0.00  0.00    +0.000 A 
ATOM     14  C   UNL     1       6.378   4.476  16.579  0.00  0.00    +0.000 A 
ENDBRANCH   2   5
BRANCH   3  15
ATOM     15  C   UNL     1       2.816   5.652  19.678  0.00  0.00    +0.000 C 
ATOM     16  C   UNL     1       1.922   4.427  19.705  0.00  0.00    +0.000 C 
ATOM     17  C   UNL     1       2.406   5.011  20.993  0.00  0.00    +0.000 C 
BRANCH  15  18
ATOM     18  C   UNL     1       2.265   7.027  19.314  0.00  0.00    +0.000 A 
ATOM     19  C   UNL     1       1.491   7.727  20.263  0.00  0.00    +0.000 A 
ATOM     20  C   UNL     1       1.192   9.082  20.116  0.00  0.00    +0.000 A 
ATOM     21  C   UNL     1       1.652   9.767  18.999  0.00  0.00    +0.000 A 
ATOM     22 CL   UNL     1       1.410  11.466  18.884  0.00  0.00    +0.000 Cl
ATOM     23  C   UNL     1       2.347   9.096  17.999  0.00  0.00    +0.000 A 
ATOM     24  C   UNL     1       2.642   7.736  18.154  0.00  0.00    +0.000 A 
ATOM     25 CL   UNL     1       3.572   6.978  16.909  0.00  0.00    +0.000 Cl
ENDBRANCH  15  18
ENDBRANCH   3  15
TORSDOF 3
ENDMDL
MODEL 8
REMARK VINA RESULT:      -7.3      3.067      6.423
REMARK  Name = 
REMARK  3 active torsions:
REMARK  status: ('A' for Active; 'I' for Inactive)
REMARK    1  A    between atoms: C_2  and  C_15
REMARK    2  A    between atoms: N_3  and  C_4
REMARK    3  A    between atoms: C_4  and  C_5
REMARK                            x       y       z     vdW  Elec       q    Type
REMARK                         _______ _______ _______ _____ _____    ______ ____
ROOT
ATOM      1  O   UNL     1       4.281   7.137  17.077  0.00  0.00    +0.000 OA
ATOM      2  C   UNL     1       3.770   6.238  17.744  0.00  0.00    +0.000 C 
ATOM      3  N   UNL     1       4.492   5.184  18.271  0.00  0.00    +0.000 N 
ATOM      4  H   UNL     1       4.048   4.520  18.896  0.00  0.00    +0.000 HD
ENDROOT
BRANCH   2   5
ATOM      5  C   UNL     1       2.279   6.282  18.088  0.00  0.00    +0.000 C 
ATOM      6  C   UNL     1       1.982   7.469  19.001  0.00  0.00    +0.000 C 
ATOM      7  C   UNL     1       2.228   7.089  20.450  0.00  0.00    +0.000 C 
ATOM      8  O   UNL     1       1.393   6.009  20.864  0.00  0.00    +0.000 OA
ATOM      9  C   UNL     1       1.380   4.931  20.024  0.00  0.00    +0.000 A 
ATOM     10  N   UNL     1       0.958   3.795  20.605  0.00  0.00    +0.000 NA
ATOM     11  C   UNL     1       0.920   2.680  19.847  0.00  0.00    +0.000 A 
ATOM     12  C   UNL     1       1.290   2.647  18.514  0.00  0.00    +0.000 A 
ATOM     13  C   UNL     1       1.711   3.825  17.923  0.00  0.00    +0.000 A 
ATOM     14  C   UNL     1       1.762   5.002  18.687  0.00  0.00    +0.000 A 
ENDBRANCH   2   5
BRANCH   3  15
ATOM     15  C   UNL     1       5.921   5.071  18.134  0.00  0.00    +0.000 C 
ATOM     16  C   UNL     1       6.788   5.980  18.984  0.00  0.00    +0.000 C 
ATOM     17  C   UNL     1       6.729   4.520  19.296  0.00  0.00    +0.000 C 
BRANCH  15  18
ATOM     18  C   UNL     1       6.318   4.704  16.708  0.00  0.00    +0.000 A 
ATOM     19  C   UNL     1       5.785   3.533  16.130  0.00  0.00    +0.000 A 
ATOM     20  C   UNL     1       5.875   3.280  14.761  0.00  0.00    +0.000 A 
ATOM     21  C   UNL     1       6.518   4.194  13.936  0.00  0.00    +0.000 A 
ATOM     22 CL   UNL     1       6.506   3.959  12.232  0.00  0.00    +0.000 Cl
ATOM     23  C   UNL     1       7.129   5.320  14.478  0.00  0.00    +0.000 A 
ATOM     24  C   UNL     1       7.036   5.565  15.852  0.00  0.00    +0.000 A 
ATOM     25 CL   UNL     1       7.755   7.021  16.450  0.00  0.00    +0.000 Cl
ENDBRANCH  15  18
ENDBRANCH   3  15
TORSDOF 3
ENDMDL
MODEL 9
REMARK VINA RESULT:      -7.3      1.460      1.944
REMARK  Name = 
REMARK  3 active torsions:
REMARK  status: ('A' for Active; 'I' for Inactive)
REMARK    1  A    between atoms: C_2  and  C_15
REMARK    2  A    between atoms: N_3  and  C_4
REMARK    3  A    between atoms: C_4  and  C_5
REMARK                            x       y       z     vdW  Elec       q    Type
REMARK                         _______ _______ _______ _____ _____    ______ ____
ROOT
ATOM      1  O   UNL     1       5.460   3.877  19.862  0.00  0.00    +0.000 OA
ATOM      2  C   UNL     1       5.506   3.998  18.638  0.00  0.00    +0.000 C 
ATOM      3  N   UNL     1       4.395   3.880  17.825  0.00  0.00    +0.000 N 
ATOM      4  H   UNL     1       4.461   4.084  16.834  0.00  0.00    +0.000 HD
ENDROOT
BRANCH   2   5
ATOM      5  C   UNL     1       6.822   4.362  17.945  0.00  0.00    +0.000 C 
ATOM      6  C   UNL     1       7.434   5.603  18.591  0.00  0.00    +0.000 C 
ATOM      7  C   UNL     1       6.847   6.858  17.970  0.00  0.00    +0.000 C 
ATOM      8  O   UNL     1       7.108   6.929  16.570  0.00  0.00    +0.000 OA
ATOM      9  C   UNL     1       6.810   5.796  15.866  0.00  0.00    +0.000 A 
ATOM     10  N   UNL     1       6.651   6.002  14.547  0.00  0.00    +0.000 NA
ATOM     11  C   UNL     1       6.348   4.936  13.779  0.00  0.00    +0.000 A 
ATOM     12  C   UNL     1       6.196   3.652  14.275  0.00  0.00    +0.000 A 
ATOM     13  C   UNL     1       6.374   3.450  15.631  0.00  0.00    +0.000 A 
ATOM     14  C   UNL     1       6.688   4.542  16.458  0.00  0.00    +0.000 A 
ENDBRANCH   2   5
BRANCH   3  15
ATOM     15  C   UNL     1       3.070   3.659  18.343  0.00  0.00    +0.000 C 
ATOM     16  C   UNL     1       2.192   2.645  17.635  0.00  0.00    +0.000 C 
ATOM     17  C   UNL     1       2.745   2.322  18.985  0.00  0.00    +0.000 C 
BRANCH  15  18
ATOM     18  C   UNL     1       2.484   4.935  18.938  0.00  0.00    +0.000 A 
ATOM     19  C   UNL     1       1.782   4.862  20.159  0.00  0.00    +0.000 A 
ATOM     20  C   UNL     1       1.464   6.002  20.897  0.00  0.00    +0.000 A 
ATOM     21  C   UNL     1       1.832   7.252  20.418  0.00  0.00    +0.000 A 
ATOM     22 CL   UNL     1       1.571   8.647  21.390  0.00  0.00    +0.000 Cl
ATOM     23  C   UNL     1       2.452   7.376  19.179  0.00  0.00    +0.000 A 
ATOM     24  C   UNL     1       2.766   6.226  18.444  0.00  0.00    +0.000 A 
ATOM     25 CL   UNL     1       3.603   6.445  16.946  0.00  0.00    +0.000 Cl
ENDBRANCH  15  18
ENDBRANCH   3  15
TORSDOF 3
ENDMDL
