MODEL 1
REMARK VINA RESULT:      -6.9      0.000      0.000
REMARK  Name = 
REMARK  8 active torsions:
REMARK  status: ('A' for Active; 'I' for Inactive)
REMARK    1  A    between atoms: C_1  and  C_2
REMARK    2  A    between atoms: C_2  and  O_3
REMARK    3  A    between atoms: O_3  and  C_4
REMARK    4  A    between atoms: C_4  and  C_5
REMARK    5  A    between atoms: C_4  and  C_19
REMARK    6  A    between atoms: C_8  and  C_9
REMARK    7  A    between atoms: C_9  and  C_10
REMARK    8  A    between atoms: C_13  and  C_14
REMARK                            x       y       z     vdW  Elec       q    Type
REMARK                         _______ _______ _______ _____ _____    ______ ____
ROOT
ATOM      1  C   UNL     1       2.507   7.159  19.079  0.00  0.00    +0.000 A 
ATOM      2  N   UNL     1       2.482   8.035  18.060  0.00  0.00    +0.000 NA
ATOM      3  O   UNL     1       1.832   9.148  18.599  0.00  0.00    +0.000 OA
ATOM      4  C   UNL     1       1.521   8.829  19.889  0.00  0.00    +0.000 A 
ATOM      5  N   UNL     1       1.936   7.631  20.241  0.00  0.00    +0.000 NA
ENDROOT
BRANCH   1   6
ATOM      6  C   UNL     1       2.995   5.737  18.898  0.00  0.00    +0.000 C 
BRANCH   6   7
ATOM      7  C   UNL     1       1.936   4.681  19.281  0.00  0.00    +0.000 C 
ATOM      8  C   UNL     1       1.621   3.621  18.228  0.00  0.00    +0.000 C 
ATOM      9  C   UNL     1       0.793   2.596  18.992  0.00  0.00    +0.000 C 
ATOM     10  C   UNL     1       1.249   2.694  20.450  0.00  0.00    +0.000 C 
ATOM     11  C   UNL     1       2.251   3.844  20.520  0.00  0.00    +0.000 C 
ENDBRANCH   6   7
BRANCH   6  12
ATOM     12  O   UNL     1       4.233   5.495  19.612  0.00  0.00    +0.000 OA
BRANCH  12  14
ATOM     13  C   UNL     1       6.619   5.510  19.266  0.00  0.00    +0.000 C 
ATOM     14  C   UNL     1       5.279   5.001  18.773  0.00  0.00    +0.000 C 
ENDBRANCH  12  14
ENDBRANCH   6  12
ENDBRANCH   1   6
BRANCH   4  15
ATOM     15  C   UNL     1       0.809   9.856  20.691  0.00  0.00    +0.000 C 
BRANCH  15  16
ATOM     16  C   UNL     1       0.030  10.837  19.866  0.00  0.00    +0.000 A 
ATOM     17  C   UNL     1       0.316  12.179  19.670  0.00  0.00    +0.000 A 
ATOM     18  S   UNL     1      -0.784  12.864  18.546  0.00  0.00    +0.000 S 
ATOM     19  C   UNL     1      -1.559  11.343  18.401  0.00  0.00    +0.000 A 
ATOM     20  N   UNL     1      -1.066  10.376  19.141  0.00  0.00    +0.000 NA
BRANCH  19  21
ATOM     21  C   UNL     1      -2.739  11.129  17.447  0.00  0.00    +0.000 C 
ATOM     22  C   UNL     1      -2.522  10.246  16.231  0.00  0.00    +0.000 C 
ATOM     23  C   UNL     1      -3.361   9.750  17.359  0.00  0.00    +0.000 C 
ENDBRANCH  19  21
ENDBRANCH  15  16
ENDBRANCH   4  15
TORSDOF 7
ENDMDL
MODEL 2
REMARK VINA RESULT:      -6.9      1.107      1.470
REMARK  Name = 
REMARK  8 active torsions:
REMARK  status: ('A' for Active; 'I' for Inactive)
REMARK    1  A    between atoms: C_1  and  C_2
REMARK    2  A    between atoms: C_2  and  O_3
REMARK    3  A    between atoms: O_3  and  C_4
REMARK    4  A    between atoms: C_4  and  C_5
REMARK    5  A    between atoms: C_4  and  C_19
REMARK    6  A    between atoms: C_8  and  C_9
REMARK    7  A    between atoms: C_9  and  C_10
REMARK    8  A    between atoms: C_13  and  C_14
REMARK                            x       y       z     vdW  Elec       q    Type
REMARK                         _______ _______ _______ _____ _____    ______ ____
ROOT
ATOM      1  C   UNL     1       2.215   7.074  18.953  0.00  0.00    +0.000 A 
ATOM      2  N   UNL     1       2.005   7.366  20.247  0.00  0.00    +0.000 NA
ATOM      3  O   UNL     1       1.652   8.717  20.226  0.00  0.00    +0.000 OA
ATOM      4  C   UNL     1       1.693   9.109  18.920  0.00  0.00    +0.000 A 
ATOM      5  N   UNL     1       2.008   8.134  18.096  0.00  0.00    +0.000 NA
ENDROOT
BRANCH   1   6
ATOM      6  C   UNL     1       2.769   5.735  18.515  0.00  0.00    +0.000 C 
BRANCH   6   7
ATOM      7  C   UNL     1       1.877   4.545  18.934  0.00  0.00    +0.000 C 
ATOM      8  C   UNL     1       1.912   3.317  18.026  0.00  0.00    +0.000 C 
ATOM      9  C   UNL     1       1.185   2.254  18.840  0.00  0.00    +0.000 C 
ATOM     10  C   UNL     1       1.407   2.628  20.309  0.00  0.00    +0.000 C 
ATOM     11  C   UNL     1       2.163   3.955  20.313  0.00  0.00    +0.000 C 
ENDBRANCH   6   7
BRANCH   6  12
ATOM     12  O   UNL     1       4.128   5.535  18.976  0.00  0.00    +0.000 OA
BRANCH  12  14
ATOM     13  C   UNL     1       4.911   5.051  16.746  0.00  0.00    +0.000 C 
ATOM     14  C   UNL     1       5.112   5.882  17.998  0.00  0.00    +0.000 C 
ENDBRANCH  12  14
ENDBRANCH   6  12
ENDBRANCH   1   6
BRANCH   4  15
ATOM     15  C   UNL     1       1.360  10.526  18.625  0.00  0.00    +0.000 C 
BRANCH  15  16
ATOM     16  C   UNL     1      -0.111  10.818  18.629  0.00  0.00    +0.000 A 
ATOM     17  C   UNL     1      -0.775  11.760  19.400  0.00  0.00    +0.000 A 
ATOM     18  S   UNL     1      -2.433  11.821  18.966  0.00  0.00    +0.000 S 
ATOM     19  C   UNL     1      -2.157  10.601  17.796  0.00  0.00    +0.000 A 
ATOM     20  N   UNL     1      -0.926  10.146  17.722  0.00  0.00    +0.000 NA
BRANCH  19  21
ATOM     21  C   UNL     1      -3.277  10.095  16.880  0.00  0.00    +0.000 C 
ATOM     22  C   UNL     1      -3.717  10.985  15.732  0.00  0.00    +0.000 C 
ATOM     23  C   UNL     1      -2.939   9.746  15.445  0.00  0.00    +0.000 C 
ENDBRANCH  19  21
ENDBRANCH  15  16
ENDBRANCH   4  15
TORSDOF 7
ENDMDL
MODEL 3
REMARK VINA RESULT:      -6.8      1.447      2.941
REMARK  Name = 
REMARK  8 active torsions:
REMARK  status: ('A' for Active; 'I' for Inactive)
REMARK    1  A    between atoms: C_1  and  C_2
REMARK    2  A    between atoms: C_2  and  O_3
REMARK    3  A    between atoms: O_3  and  C_4
REMARK    4  A    between atoms: C_4  and  C_5
REMARK    5  A    between atoms: C_4  and  C_19
REMARK    6  A    between atoms: C_8  and  C_9
REMARK    7  A    between atoms: C_9  and  C_10
REMARK    8  A    between atoms: C_13  and  C_14
REMARK                            x       y       z     vdW  Elec       q    Type
REMARK                         _______ _______ _______ _____ _____    ______ ____
ROOT
ATOM      1  C   UNL     1       2.163   6.963  19.690  0.00  0.00    +0.000 A 
ATOM      2  N   UNL     1       1.646   7.493  20.811  0.00  0.00    +0.000 NA
ATOM      3  O   UNL     1       1.280   8.785  20.425  0.00  0.00    +0.000 OA
ATOM      4  C   UNL     1       1.620   8.908  19.110  0.00  0.00    +0.000 A 
ATOM      5  N   UNL     1       2.141   7.812  18.605  0.00  0.00    +0.000 NA
ENDROOT
BRANCH   1   6
ATOM      6  C   UNL     1       2.833   5.605  19.684  0.00  0.00    +0.000 C 
BRANCH   6   7
ATOM      7  C   UNL     1       3.987   5.505  18.663  0.00  0.00    +0.000 C 
ATOM      8  C   UNL     1       5.281   4.864  19.161  0.00  0.00    +0.000 C 
ATOM      9  C   UNL     1       6.086   4.653  17.885  0.00  0.00    +0.000 C 
ATOM     10  C   UNL     1       5.056   4.487  16.764  0.00  0.00    +0.000 C 
ATOM     11  C   UNL     1       3.683   4.713  17.393  0.00  0.00    +0.000 C 
ENDBRANCH   6   7
BRANCH   6  12
ATOM     12  O   UNL     1       1.880   4.533  19.477  0.00  0.00    +0.000 OA
BRANCH  12  14
ATOM     13  C   UNL     1       2.054   2.920  21.261  0.00  0.00    +0.000 C 
ATOM     14  C   UNL     1       1.268   4.082  20.688  0.00  0.00    +0.000 C 
ENDBRANCH  12  14
ENDBRANCH   6  12
ENDBRANCH   1   6
BRANCH   4  15
ATOM     15  C   UNL     1       1.336  10.210  18.454  0.00  0.00    +0.000 C 
BRANCH  15  16
ATOM     16  C   UNL     1      -0.111  10.605  18.488  0.00  0.00    +0.000 A 
ATOM     17  C   UNL     1      -0.702  11.548  19.314  0.00  0.00    +0.000 A 
ATOM     18  S   UNL     1      -2.354  11.750  18.900  0.00  0.00    +0.000 S 
ATOM     19  C   UNL     1      -2.172  10.577  17.664  0.00  0.00    +0.000 A 
ATOM     20  N   UNL     1      -0.977  10.041  17.554  0.00  0.00    +0.000 NA
BRANCH  19  21
ATOM     21  C   UNL     1      -3.330  10.201  16.734  0.00  0.00    +0.000 C 
ATOM     22  C   UNL     1      -3.549  11.043  15.490  0.00  0.00    +0.000 C 
ATOM     23  C   UNL     1      -3.009   9.661  15.356  0.00  0.00    +0.000 C 
ENDBRANCH  19  21
ENDBRANCH  15  16
ENDBRANCH   4  15
TORSDOF 7
ENDMDL
MODEL 4
REMARK VINA RESULT:      -6.8      1.613      1.865
REMARK  Name = 
REMARK  8 active torsions:
REMARK  status: ('A' for Active; 'I' for Inactive)
REMARK    1  A    between atoms: C_1  and  C_2
REMARK    2  A    between atoms: C_2  and  O_3
REMARK    3  A    between atoms: O_3  and  C_4
REMARK    4  A    between atoms: C_4  and  C_5
REMARK    5  A    between atoms: C_4  and  C_19
REMARK    6  A    between atoms: C_8  and  C_9
REMARK    7  A    between atoms: C_9  and  C_10
REMARK    8  A    between atoms: C_13  and  C_14
REMARK                            x       y       z     vdW  Elec       q    Type
REMARK                         _______ _______ _______ _____ _____    ______ ____
ROOT
ATOM      1  C   UNL     1       3.052   6.824  18.194  0.00  0.00    +0.000 A 
ATOM      2  N   UNL     1       2.414   6.864  19.376  0.00  0.00    +0.000 NA
ATOM      3  O   UNL     1       1.916   8.168  19.436  0.00  0.00    +0.000 OA
ATOM      4  C   UNL     1       2.311   8.789  18.287  0.00  0.00    +0.000 A 
ATOM      5  N   UNL     1       2.988   8.001  17.480  0.00  0.00    +0.000 NA
ENDROOT
BRANCH   1   6
ATOM      6  C   UNL     1       3.880   5.629  17.773  0.00  0.00    +0.000 C 
BRANCH   6   7
ATOM      7  C   UNL     1       3.284   4.284  18.243  0.00  0.00    +0.000 C 
ATOM      8  C   UNL     1       2.802   3.334  17.149  0.00  0.00    +0.000 C 
ATOM      9  C   UNL     1       2.555   2.029  17.895  0.00  0.00    +0.000 C 
ATOM     10  C   UNL     1       3.512   2.044  19.090  0.00  0.00    +0.000 C 
ATOM     11  C   UNL     1       4.213   3.400  19.074  0.00  0.00    +0.000 C 
ENDBRANCH   6   7
BRANCH   6  12
ATOM     12  O   UNL     1       5.259   5.748  18.202  0.00  0.00    +0.000 OA
BRANCH  12  14
ATOM     13  C   UNL     1       7.333   4.775  17.448  0.00  0.00    +0.000 C 
ATOM     14  C   UNL     1       6.191   5.715  17.117  0.00  0.00    +0.000 C 
ENDBRANCH  12  14
ENDBRANCH   6  12
ENDBRANCH   1   6
BRANCH   4  15
ATOM     15  C   UNL     1       1.908  10.207  18.107  0.00  0.00    +0.000 C 
BRANCH  15  16
ATOM     16  C   UNL     1       0.476  10.481  18.459  0.00  0.00    +0.000 A 
ATOM     17  C   UNL     1       0.006  11.318  19.459  0.00  0.00    +0.000 A 
ATOM     18  S   UNL     1      -1.706  11.413  19.398  0.00  0.00    +0.000 S 
ATOM     19  C   UNL     1      -1.703  10.343  18.061  0.00  0.00    +0.000 A 
ATOM     20  N   UNL     1      -0.523   9.913  17.673  0.00  0.00    +0.000 NA
BRANCH  19  21
ATOM     21  C   UNL     1      -2.999   9.937  17.351  0.00  0.00    +0.000 C 
ATOM     22  C   UNL     1      -3.667  10.957  16.447  0.00  0.00    +0.000 C 
ATOM     23  C   UNL     1      -2.983   9.778  15.844  0.00  0.00    +0.000 C 
ENDBRANCH  19  21
ENDBRANCH  15  16
ENDBRANCH   4  15
TORSDOF 7
ENDMDL
MODEL 5
REMARK VINA RESULT:      -6.8      1.620      3.484
REMARK  Name = 
REMARK  8 active torsions:
REMARK  status: ('A' for Active; 'I' for Inactive)
REMARK    1  A    between atoms: C_1  and  C_2
REMARK    2  A    between atoms: C_2  and  O_3
REMARK    3  A    between atoms: O_3  and  C_4
REMARK    4  A    between atoms: C_4  and  C_5
REMARK    5  A    between atoms: C_4  and  C_19
REMARK    6  A    between atoms: C_8  and  C_9
REMARK    7  A    between atoms: C_9  and  C_10
REMARK    8  A    between atoms: C_13  and  C_14
REMARK                            x       y       z     vdW  Elec       q    Type
REMARK                         _______ _______ _______ _____ _____    ______ ____
ROOT
ATOM      1  C   UNL     1       3.032   5.505  18.851  0.00  0.00    +0.000 A 
ATOM      2  N   UNL     1       2.494   5.917  20.011  0.00  0.00    +0.000 NA
ATOM      3  O   UNL     1       2.199   7.263  19.776  0.00  0.00    +0.000 OA
ATOM      4  C   UNL     1       2.598   7.531  18.499  0.00  0.00    +0.000 A 
ATOM      5  N   UNL     1       3.092   6.481  17.880  0.00  0.00    +0.000 NA
ENDROOT
BRANCH   1   6
ATOM      6  C   UNL     1       3.643   4.128  18.699  0.00  0.00    +0.000 C 
BRANCH   6   7
ATOM      7  C   UNL     1       5.164   4.166  18.434  0.00  0.00    +0.000 C 
ATOM      8  C   UNL     1       5.597   4.383  16.985  0.00  0.00    +0.000 C 
ATOM      9  C   UNL     1       7.090   4.657  17.099  0.00  0.00    +0.000 C 
ATOM     10  C   UNL     1       7.298   5.276  18.485  0.00  0.00    +0.000 C 
ATOM     11  C   UNL     1       5.941   5.246  19.185  0.00  0.00    +0.000 C 
ENDBRANCH   6   7
BRANCH   6  12
ATOM     12  O   UNL     1       2.971   3.348  17.679  0.00  0.00    +0.000 OA
BRANCH  12  14
ATOM     13  C   UNL     1       0.990   2.421  18.695  0.00  0.00    +0.000 C 
ATOM     14  C   UNL     1       2.389   2.143  18.183  0.00  0.00    +0.000 C 
ENDBRANCH  12  14
ENDBRANCH   6  12
ENDBRANCH   1   6
BRANCH   4  15
ATOM     15  C   UNL     1       2.397   8.915  18.001  0.00  0.00    +0.000 C 
BRANCH  15  16
ATOM     16  C   UNL     1       1.122   9.551  18.470  0.00  0.00    +0.000 A 
ATOM     17  C   UNL     1       0.894  10.168  19.690  0.00  0.00    +0.000 A 
ATOM     18  S   UNL     1      -0.674  10.860  19.723  0.00  0.00    +0.000 S 
ATOM     19  C   UNL     1      -0.941  10.295  18.128  0.00  0.00    +0.000 A 
ATOM     20  N   UNL     1       0.047   9.618  17.588  0.00  0.00    +0.000 NA
BRANCH  19  21
ATOM     21  C   UNL     1      -2.245  10.587  17.378  0.00  0.00    +0.000 C 
ATOM     22  C   UNL     1      -3.429   9.669  17.620  0.00  0.00    +0.000 C 
ATOM     23  C   UNL     1      -3.450  11.054  18.170  0.00  0.00    +0.000 C 
ENDBRANCH  19  21
ENDBRANCH  15  16
ENDBRANCH   4  15
TORSDOF 7
ENDMDL
MODEL 6
REMARK VINA RESULT:      -6.8      1.103      1.637
REMARK  Name = 
REMARK  8 active torsions:
REMARK  status: ('A' for Active; 'I' for Inactive)
REMARK    1  A    between atoms: C_1  and  C_2
REMARK    2  A    between atoms: C_2  and  O_3
REMARK    3  A    between atoms: O_3  and  C_4
REMARK    4  A    between atoms: C_4  and  C_5
REMARK    5  A    between atoms: C_4  and  C_19
REMARK    6  A    between atoms: C_8  and  C_9
REMARK    7  A    between atoms: C_9  and  C_10
REMARK    8  A    between atoms: C_13  and  C_14
REMARK                            x       y       z     vdW  Elec       q    Type
REMARK                         _______ _______ _______ _____ _____    ______ ____
ROOT
ATOM      1  C   UNL     1       2.746   6.676  18.812  0.00  0.00    +0.000 A 
ATOM      2  N   UNL     1       2.193   6.975  19.999  0.00  0.00    +0.000 NA
ATOM      3  O   UNL     1       1.749   8.289  19.833  0.00  0.00    +0.000 OA
ATOM      4  C   UNL     1       2.087   8.656  18.563  0.00  0.00    +0.000 A 
ATOM      5  N   UNL     1       2.677   7.695  17.886  0.00  0.00    +0.000 NA
ENDROOT
BRANCH   1   6
ATOM      6  C   UNL     1       3.498   5.382  18.584  0.00  0.00    +0.000 C 
BRANCH   6   7
ATOM      7  C   UNL     1       2.693   4.132  19.004  0.00  0.00    +0.000 C 
ATOM      8  C   UNL     1       2.119   4.137  20.419  0.00  0.00    +0.000 C 
ATOM      9  C   UNL     1       1.169   2.947  20.420  0.00  0.00    +0.000 C 
ATOM     10  C   UNL     1       0.702   2.783  18.971  0.00  0.00    +0.000 C 
ATOM     11  C   UNL     1       1.473   3.810  18.144  0.00  0.00    +0.000 C 
ENDBRANCH   6   7
BRANCH   6  12
ATOM     12  O   UNL     1       4.795   5.389  19.231  0.00  0.00    +0.000 OA
BRANCH  12  14
ATOM     13  C   UNL     1       7.177   5.325  18.859  0.00  0.00    +0.000 C 
ATOM     14  C   UNL     1       5.844   5.867  18.384  0.00  0.00    +0.000 C 
ENDBRANCH  12  14
ENDBRANCH   6  12
ENDBRANCH   1   6
BRANCH   4  15
ATOM     15  C   UNL     1       1.727  10.031  18.134  0.00  0.00    +0.000 C 
BRANCH  15  16
ATOM     16  C   UNL     1       0.291  10.388  18.379  0.00  0.00    +0.000 A 
ATOM     17  C   UNL     1      -0.202  11.271  19.326  0.00  0.00    +0.000 A 
ATOM     18  S   UNL     1      -1.898  11.453  19.144  0.00  0.00    +0.000 S 
ATOM     19  C   UNL     1      -1.860  10.352  17.832  0.00  0.00    +0.000 A 
ATOM     20  N   UNL     1      -0.681   9.853  17.536  0.00  0.00    +0.000 NA
BRANCH  19  21
ATOM     21  C   UNL     1      -3.124   9.998  17.042  0.00  0.00    +0.000 C 
ATOM     22  C   UNL     1      -3.619  10.989  16.004  0.00  0.00    +0.000 C 
ATOM     23  C   UNL     1      -2.997   9.710  15.559  0.00  0.00    +0.000 C 
ENDBRANCH  19  21
ENDBRANCH  15  16
ENDBRANCH   4  15
TORSDOF 7
ENDMDL
MODEL 7
REMARK VINA RESULT:      -6.7      1.634      3.379
REMARK  Name = 
REMARK  8 active torsions:
REMARK  status: ('A' for Active; 'I' for Inactive)
REMARK    1  A    between atoms: C_1  and  C_2
REMARK    2  A    between atoms: C_2  and  O_3
REMARK    3  A    between atoms: O_3  and  C_4
REMARK    4  A    between atoms: C_4  and  C_5
REMARK    5  A    between atoms: C_4  and  C_19
REMARK    6  A    between atoms: C_8  and  C_9
REMARK    7  A    between atoms: C_9  and  C_10
REMARK    8  A    between atoms: C_13  and  C_14
REMARK                            x       y       z     vdW  Elec       q    Type
REMARK                         _______ _______ _______ _____ _____    ______ ____
ROOT
ATOM      1  C   UNL     1       3.120   6.253  18.831  0.00  0.00    +0.000 A 
ATOM      2  N   UNL     1       2.403   6.571  19.922  0.00  0.00    +0.000 NA
ATOM      3  O   UNL     1       1.915   7.848  19.633  0.00  0.00    +0.000 OA
ATOM      4  C   UNL     1       2.393   8.177  18.398  0.00  0.00    +0.000 A 
ATOM      5  N   UNL     1       3.116   7.223  17.852  0.00  0.00    +0.000 NA
ENDROOT
BRANCH   1   6
ATOM      6  C   UNL     1       3.963   4.997  18.768  0.00  0.00    +0.000 C 
BRANCH   6   7
ATOM      7  C   UNL     1       4.974   5.005  17.600  0.00  0.00    +0.000 C 
ATOM      8  C   UNL     1       6.440   4.786  17.969  0.00  0.00    +0.000 C 
ATOM      9  C   UNL     1       7.114   4.561  16.622  0.00  0.00    +0.000 C 
ATOM     10  C   UNL     1       6.038   3.966  15.709  0.00  0.00    +0.000 C 
ATOM     11  C   UNL     1       4.738   3.960  16.512  0.00  0.00    +0.000 C 
ENDBRANCH   6   7
BRANCH   6  12
ATOM     12  O   UNL     1       3.148   3.800  18.724  0.00  0.00    +0.000 OA
BRANCH  12  14
ATOM     13  C   UNL     1       0.930   2.860  18.616  0.00  0.00    +0.000 C 
ATOM     14  C   UNL     1       1.813   4.043  18.272  0.00  0.00    +0.000 C 
ENDBRANCH  12  14
ENDBRANCH   6  12
ENDBRANCH   1   6
BRANCH   4  15
ATOM     15  C   UNL     1       2.017   9.507  17.856  0.00  0.00    +0.000 C 
BRANCH  15  16
ATOM     16  C   UNL     1       0.699  10.017  18.357  0.00  0.00    +0.000 A 
ATOM     17  C   UNL     1       0.487  10.915  19.391  0.00  0.00    +0.000 A 
ATOM     18  S   UNL     1      -1.181  11.298  19.514  0.00  0.00    +0.000 S 
ATOM     19  C   UNL     1      -1.503  10.250  18.197  0.00  0.00    +0.000 A 
ATOM     20  N   UNL     1      -0.462   9.630  17.690  0.00  0.00    +0.000 NA
BRANCH  19  21
ATOM     21  C   UNL     1      -2.918  10.074  17.637  0.00  0.00    +0.000 C 
ATOM     22  C   UNL     1      -3.478  11.173  16.752  0.00  0.00    +0.000 C 
ATOM     23  C   UNL     1      -3.088   9.868  16.145  0.00  0.00    +0.000 C 
ENDBRANCH  19  21
ENDBRANCH  15  16
ENDBRANCH   4  15
TORSDOF 7
ENDMDL
MODEL 8
REMARK VINA RESULT:      -6.7      1.231      1.347
REMARK  Name = 
REMARK  8 active torsions:
REMARK  status: ('A' for Active; 'I' for Inactive)
REMARK    1  A    between atoms: C_1  and  C_2
REMARK    2  A    between atoms: C_2  and  O_3
REMARK    3  A    between atoms: O_3  and  C_4
REMARK    4  A    between atoms: C_4  and  C_5
REMARK    5  A    between atoms: C_4  and  C_19
REMARK    6  A    between atoms: C_8  and  C_9
REMARK    7  A    between atoms: C_9  and  C_10
REMARK    8  A    between atoms: C_13  and  C_14
REMARK                            x       y       z     vdW  Elec       q    Type
REMARK                         _______ _______ _______ _____ _____    ______ ____
ROOT
ATOM      1  C   UNL     1       2.940   7.251  18.370  0.00  0.00    +0.000 A 
ATOM      2  N   UNL     1       2.707   8.322  17.593  0.00  0.00    +0.000 NA
ATOM      3  O   UNL     1       1.890   9.132  18.386  0.00  0.00    +0.000 OA
ATOM      4  C   UNL     1       1.704   8.464  19.562  0.00  0.00    +0.000 A 
ATOM      5  N   UNL     1       2.347   7.318  19.613  0.00  0.00    +0.000 NA
ENDROOT
BRANCH   1   6
ATOM      6  C   UNL     1       3.671   6.031  17.851  0.00  0.00    +0.000 C 
BRANCH   6   7
ATOM      7  C   UNL     1       3.034   4.702  18.312  0.00  0.00    +0.000 C 
ATOM      8  C   UNL     1       1.639   4.393  17.770  0.00  0.00    +0.000 C 
ATOM      9  C   UNL     1       1.424   2.936  18.157  0.00  0.00    +0.000 C 
ATOM     10  C   UNL     1       2.819   2.308  18.217  0.00  0.00    +0.000 C 
ATOM     11  C   UNL     1       3.818   3.437  17.971  0.00  0.00    +0.000 C 
ENDBRANCH   6   7
BRANCH   6  12
ATOM     12  O   UNL     1       5.080   6.060  18.189  0.00  0.00    +0.000 OA
BRANCH  12  14
ATOM     13  C   UNL     1       7.334   6.717  17.638  0.00  0.00    +0.000 C 
ATOM     14  C   UNL     1       5.884   6.703  17.197  0.00  0.00    +0.000 C 
ENDBRANCH  12  14
ENDBRANCH   6  12
ENDBRANCH   1   6
BRANCH   4  15
ATOM     15  C   UNL     1       0.855   9.119  20.588  0.00  0.00    +0.000 C 
BRANCH  15  16
ATOM     16  C   UNL     1       0.094  10.307  20.079  0.00  0.00    +0.000 A 
ATOM     17  C   UNL     1       0.455  11.641  20.187  0.00  0.00    +0.000 A 
ATOM     18  S   UNL     1      -0.662  12.630  19.341  0.00  0.00    +0.000 S 
ATOM     19  C   UNL     1      -1.542  11.230  18.896  0.00  0.00    +0.000 A 
ATOM     20  N   UNL     1      -1.070  10.089  19.347  0.00  0.00    +0.000 NA
BRANCH  19  21
ATOM     21  C   UNL     1      -2.788  11.310  18.007  0.00  0.00    +0.000 C 
ATOM     22  C   UNL     1      -2.616  11.081  16.516  0.00  0.00    +0.000 C 
ATOM     23  C   UNL     1      -3.291  10.043  17.345  0.00  0.00    +0.000 C 
ENDBRANCH  19  21
ENDBRANCH  15  16
ENDBRANCH   4  15
TORSDOF 7
ENDMDL
MODEL 9
REMARK VINA RESULT:      -6.5      2.925      7.402
REMARK  Name = 
REMARK  8 active torsions:
REMARK  status: ('A' for Active; 'I' for Inactive)
REMARK    1  A    between atoms: C_1  and  C_2
REMARK    2  A    between atoms: C_2  and  O_3
REMARK    3  A    between atoms: O_3  and  C_4
REMARK    4  A    between atoms: C_4  and  C_5
REMARK    5  A    between atoms: C_4  and  C_19
REMARK    6  A    between atoms: C_8  and  C_9
REMARK    7  A    between atoms: C_9  and  C_10
REMARK    8  A    between atoms: C_13  and  C_14
REMARK                            x       y       z     vdW  Elec       q    Type
REMARK                         _______ _______ _______ _____ _____    ______ ____
ROOT
ATOM      1  C   UNL     1       1.512   8.798  18.860  0.00  0.00    +0.000 A 
ATOM      2  N   UNL     1       1.800   9.304  17.650  0.00  0.00    +0.000 NA
ATOM      3  O   UNL     1       2.809   8.462  17.174  0.00  0.00    +0.000 OA
ATOM      4  C   UNL     1       3.035   7.536  18.150  0.00  0.00    +0.000 A 
ATOM      5  N   UNL     1       2.248   7.682  19.194  0.00  0.00    +0.000 NA
ENDROOT
BRANCH   1   6
ATOM      6  C   UNL     1       0.562   9.495  19.811  0.00  0.00    +0.000 C 
BRANCH   6   7
ATOM      7  C   UNL     1      -0.193  10.674  19.158  0.00  0.00    +0.000 C 
ATOM      8  C   UNL     1      -1.551  10.351  18.538  0.00  0.00    +0.000 C 
ATOM      9  C   UNL     1      -2.146  11.724  18.254  0.00  0.00    +0.000 C 
ATOM     10  C   UNL     1      -1.530  12.669  19.289  0.00  0.00    +0.000 C 
ATOM     11  C   UNL     1      -0.511  11.850  20.079  0.00  0.00    +0.000 C 
ENDBRANCH   6   7
BRANCH   6  12
ATOM     12  O   UNL     1       1.231   9.931  21.021  0.00  0.00    +0.000 OA
BRANCH  12  14
ATOM     13  C   UNL     1      -0.050   9.612  23.040  0.00  0.00    +0.000 C 
ATOM     14  C   UNL     1       1.024   9.050  22.128  0.00  0.00    +0.000 C 
ENDBRANCH  12  14
ENDBRANCH   6  12
ENDBRANCH   1   6
BRANCH   4  15
ATOM     15  C   UNL     1       4.081   6.515  17.889  0.00  0.00    +0.000 C 
BRANCH  15  16
ATOM     16  C   UNL     1       3.579   5.103  17.941  0.00  0.00    +0.000 A 
ATOM     17  C   UNL     1       3.796   4.103  17.006  0.00  0.00    +0.000 A 
ATOM     18  S   UNL     1       3.135   2.620  17.557  0.00  0.00    +0.000 S 
ATOM     19  C   UNL     1       2.607   3.403  18.986  0.00  0.00    +0.000 A 
ATOM     20  N   UNL     1       2.875   4.687  19.068  0.00  0.00    +0.000 NA
BRANCH  19  21
ATOM     21  C   UNL     1       1.888   2.641  20.104  0.00  0.00    +0.000 C 
ATOM     22  C   UNL     1       2.510   2.651  21.489  0.00  0.00    +0.000 C 
ATOM     23  C   UNL     1       1.265   3.430  21.238  0.00  0.00    +0.000 C 
ENDBRANCH  19  21
ENDBRANCH  15  16
ENDBRANCH   4  15
TORSDOF 7
ENDMDL
