MODEL 1
REMARK VINA RESULT:      -6.8      0.000      0.000
REMARK  Name = 
REMARK  5 active torsions:
REMARK  status: ('A' for Active; 'I' for Inactive)
REMARK    1  A    between atoms: C_1  and  S_2
REMARK    2  A    between atoms: S_2  and  C_3
REMARK    3  A    between atoms: C_8  and  N_9
REMARK    4  A    between atoms: N_9  and  S_10
REMARK    5  A    between atoms: S_10  and  C_13
REMARK                            x       y       z     vdW  Elec       q    Type
REMARK                         _______ _______ _______ _____ _____    ______ ____
ROOT
ATOM      1  C   UNL     1       0.390  10.919  19.647  0.00  0.00    +0.000 A 
ATOM      2  N   UNL     1       1.036  10.361  18.648  0.00  0.00    +0.000 NA
ATOM      3  C   UNL     1       1.487   9.108  19.027  0.00  0.00    +0.000 A 
ATOM      4  C   UNL     1       2.240   8.218  18.232  0.00  0.00    +0.000 A 
ATOM      5  C   UNL     1       2.646   6.984  18.758  0.00  0.00    +0.000 A 
ATOM      6  C   UNL     1       2.285   6.621  20.052  0.00  0.00    +0.000 A 
ATOM      7  C   UNL     1       1.540   7.484  20.859  0.00  0.00    +0.000 A 
ATOM      8  C   UNL     1       1.155   8.723  20.326  0.00  0.00    +0.000 A 
ATOM      9  S   UNL     1       0.251   9.983  21.072  0.00  0.00    +0.000 S 
ENDROOT
BRANCH   1  11
ATOM     10  C   UNL     1      -1.417  12.336  18.155  0.00  0.00    +0.000 C 
ATOM     11  S   UNL     1      -0.281  12.533  19.542  0.00  0.00    +0.000 S 
ENDBRANCH   1  11
BRANCH   6  12
ATOM     12  N   UNL     1       2.726   5.376  20.602  0.00  0.00    +0.000 N 
ATOM     13  H   UNL     1       2.361   5.175  21.536  0.00  0.00    +0.000 HD
BRANCH  12  14
ATOM     14  S   UNL     1       2.499   3.997  19.636  0.00  0.00    +0.000 S 
ATOM     15  O   UNL     1       2.779   2.848  20.469  0.00  0.00    +0.000 OA
ATOM     16  O   UNL     1       1.236   4.123  18.937  0.00  0.00    +0.000 OA
BRANCH  14  17
ATOM     17  C   UNL     1       3.735   3.985  18.360  0.00  0.00    +0.000 A 
ATOM     18  C   UNL     1       3.665   3.781  16.993  0.00  0.00    +0.000 A 
ATOM     19  C   UNL     1       4.928   3.958  16.355  0.00  0.00    +0.000 A 
ATOM     20  C   UNL     1       5.901   4.268  17.270  0.00  0.00    +0.000 A 
ATOM     21 CL   UNL     1       7.550   4.606  16.938  0.00  0.00    +0.000 Cl
ATOM     22  S   UNL     1       5.342   4.310  18.865  0.00  0.00    +0.000 S 
ENDBRANCH  14  17
ENDBRANCH  12  14
ENDBRANCH   6  12
TORSDOF 4
ENDMDL
MODEL 2
REMARK VINA RESULT:      -6.6      3.171      4.297
REMARK  Name = 
REMARK  5 active torsions:
REMARK  status: ('A' for Active; 'I' for Inactive)
REMARK    1  A    between atoms: C_1  and  S_2
REMARK    2  A    between atoms: S_2  and  C_3
REMARK    3  A    between atoms: C_8  and  N_9
REMARK    4  A    between atoms: N_9  and  S_10
REMARK    5  A    between atoms: S_10  and  C_13
REMARK                            x       y       z     vdW  Elec       q    Type
REMARK                         _______ _______ _______ _____ _____    ______ ____
ROOT
ATOM      1  C   UNL     1       1.600   7.826  20.244  0.00  0.00    +0.000 A 
ATOM      2  N   UNL     1       1.871   6.618  20.682  0.00  0.00    +0.000 NA
ATOM      3  C   UNL     1       2.554   5.910  19.708  0.00  0.00    +0.000 A 
ATOM      4  C   UNL     1       2.993   4.572  19.802  0.00  0.00    +0.000 A 
ATOM      5  C   UNL     1       3.658   3.977  18.722  0.00  0.00    +0.000 A 
ATOM      6  C   UNL     1       3.912   4.710  17.566  0.00  0.00    +0.000 A 
ATOM      7  C   UNL     1       3.488   6.034  17.447  0.00  0.00    +0.000 A 
ATOM      8  C   UNL     1       2.808   6.613  18.530  0.00  0.00    +0.000 A 
ATOM      9  S   UNL     1       2.166   8.203  18.674  0.00  0.00    +0.000 S 
ENDROOT
BRANCH   1  11
ATOM     10  C   UNL     1       0.792  10.440  20.130  0.00  0.00    +0.000 C 
ATOM     11  S   UNL     1       0.701   8.988  21.196  0.00  0.00    +0.000 S 
ENDBRANCH   1  11
BRANCH   6  12
ATOM     12  N   UNL     1       4.561   4.093  16.450  0.00  0.00    +0.000 N 
ATOM     13  H   UNL     1       3.933   3.843  15.683  0.00  0.00    +0.000 HD
BRANCH  12  14
ATOM     14  S   UNL     1       5.893   4.921  15.794  0.00  0.00    +0.000 S 
ATOM     15  O   UNL     1       6.765   3.924  15.215  0.00  0.00    +0.000 OA
ATOM     16  O   UNL     1       5.405   6.036  15.006  0.00  0.00    +0.000 OA
BRANCH  14  17
ATOM     17  C   UNL     1       6.813   5.661  17.122  0.00  0.00    +0.000 A 
ATOM     18  C   UNL     1       7.403   5.133  18.256  0.00  0.00    +0.000 A 
ATOM     19  C   UNL     1       8.122   6.116  18.999  0.00  0.00    +0.000 A 
ATOM     20  C   UNL     1       8.025   7.347  18.404  0.00  0.00    +0.000 A 
ATOM     21 CL   UNL     1       8.768   8.802  18.932  0.00  0.00    +0.000 Cl
ATOM     22  S   UNL     1       7.067   7.354  17.011  0.00  0.00    +0.000 S 
ENDBRANCH  14  17
ENDBRANCH  12  14
ENDBRANCH   6  12
TORSDOF 4
ENDMDL
MODEL 3
REMARK VINA RESULT:      -6.6      1.800      2.098
REMARK  Name = 
REMARK  5 active torsions:
REMARK  status: ('A' for Active; 'I' for Inactive)
REMARK    1  A    between atoms: C_1  and  S_2
REMARK    2  A    between atoms: S_2  and  C_3
REMARK    3  A    between atoms: C_8  and  N_9
REMARK    4  A    between atoms: N_9  and  S_10
REMARK    5  A    between atoms: S_10  and  C_13
REMARK                            x       y       z     vdW  Elec       q    Type
REMARK                         _______ _______ _______ _____ _____    ______ ____
ROOT
ATOM      1  C   UNL     1       0.987  10.319  19.738  0.00  0.00    +0.000 A 
ATOM      2  N   UNL     1       1.541   9.994  18.593  0.00  0.00    +0.000 NA
ATOM      3  C   UNL     1       2.000   8.689  18.651  0.00  0.00    +0.000 A 
ATOM      4  C   UNL     1       2.672   7.995  17.622  0.00  0.00    +0.000 A 
ATOM      5  C   UNL     1       3.099   6.677  17.831  0.00  0.00    +0.000 A 
ATOM      6  C   UNL     1       2.839   6.040  19.041  0.00  0.00    +0.000 A 
ATOM      7  C   UNL     1       2.176   6.704  20.075  0.00  0.00    +0.000 A 
ATOM      8  C   UNL     1       1.768   8.029  19.858  0.00  0.00    +0.000 A 
ATOM      9  S   UNL     1       0.948   9.094  20.932  0.00  0.00    +0.000 S 
ENDROOT
BRANCH   1  11
ATOM     10  C   UNL     1       1.667  12.951  19.403  0.00  0.00    +0.000 C 
ATOM     11  S   UNL     1       0.336  11.915  20.043  0.00  0.00    +0.000 S 
ENDBRANCH   1  11
BRANCH   6  12
ATOM     12  N   UNL     1       3.303   4.706  19.268  0.00  0.00    +0.000 N 
ATOM     13  H   UNL     1       2.815   3.992  18.723  0.00  0.00    +0.000 HD
BRANCH  12  14
ATOM     14  S   UNL     1       4.975   4.446  19.104  0.00  0.00    +0.000 S 
ATOM     15  O   UNL     1       5.636   5.639  19.586  0.00  0.00    +0.000 OA
ATOM     16  O   UNL     1       5.298   3.142  19.647  0.00  0.00    +0.000 OA
BRANCH  14  17
ATOM     17  C   UNL     1       5.367   4.338  17.374  0.00  0.00    +0.000 A 
ATOM     18  C   UNL     1       4.668   3.843  16.288  0.00  0.00    +0.000 A 
ATOM     19  C   UNL     1       5.359   4.055  15.058  0.00  0.00    +0.000 A 
ATOM     20  C   UNL     1       6.560   4.682  15.273  0.00  0.00    +0.000 A 
ATOM     21 CL   UNL     1       7.691   5.167  14.077  0.00  0.00    +0.000 Cl
ATOM     22  S   UNL     1       6.887   4.981  16.904  0.00  0.00    +0.000 S 
ENDBRANCH  14  17
ENDBRANCH  12  14
ENDBRANCH   6  12
TORSDOF 4
ENDMDL
MODEL 4
REMARK VINA RESULT:      -6.6      1.212      1.404
REMARK  Name = 
REMARK  5 active torsions:
REMARK  status: ('A' for Active; 'I' for Inactive)
REMARK    1  A    between atoms: C_1  and  S_2
REMARK    2  A    between atoms: S_2  and  C_3
REMARK    3  A    between atoms: C_8  and  N_9
REMARK    4  A    between atoms: N_9  and  S_10
REMARK    5  A    between atoms: S_10  and  C_13
REMARK                            x       y       z     vdW  Elec       q    Type
REMARK                         _______ _______ _______ _____ _____    ______ ____
ROOT
ATOM      1  C   UNL     1      -0.073  10.967  19.183  0.00  0.00    +0.000 A 
ATOM      2  N   UNL     1       0.637  10.488  18.188  0.00  0.00    +0.000 NA
ATOM      3  C   UNL     1       1.289   9.335  18.593  0.00  0.00    +0.000 A 
ATOM      4  C   UNL     1       2.163   8.552  17.808  0.00  0.00    +0.000 A 
ATOM      5  C   UNL     1       2.769   7.416  18.360  0.00  0.00    +0.000 A 
ATOM      6  C   UNL     1       2.492   7.041  19.672  0.00  0.00    +0.000 A 
ATOM      7  C   UNL     1       1.632   7.799  20.469  0.00  0.00    +0.000 A 
ATOM      8  C   UNL     1       1.044   8.943  19.909  0.00  0.00    +0.000 A 
ATOM      9  S   UNL     1      -0.038  10.066  20.637  0.00  0.00    +0.000 S 
ENDROOT
BRANCH   1  11
ATOM     10  C   UNL     1       0.232  13.660  19.574  0.00  0.00    +0.000 C 
ATOM     11  S   UNL     1      -0.996  12.449  19.047  0.00  0.00    +0.000 S 
ENDBRANCH   1  11
BRANCH   6  12
ATOM     12  N   UNL     1       3.136   5.901  20.248  0.00  0.00    +0.000 N 
ATOM     13  H   UNL     1       2.797   5.652  21.180  0.00  0.00    +0.000 HD
BRANCH  12  14
ATOM     14  S   UNL     1       3.169   4.490  19.301  0.00  0.00    +0.000 S 
ATOM     15  O   UNL     1       3.381   3.381  20.205  0.00  0.00    +0.000 OA
ATOM     16  O   UNL     1       2.036   4.510  18.397  0.00  0.00    +0.000 OA
BRANCH  14  17
ATOM     17  C   UNL     1       4.601   4.542  18.251  0.00  0.00    +0.000 A 
ATOM     18  C   UNL     1       5.937   4.792  18.507  0.00  0.00    +0.000 A 
ATOM     19  C   UNL     1       6.748   4.635  17.344  0.00  0.00    +0.000 A 
ATOM     20  C   UNL     1       5.986   4.293  16.257  0.00  0.00    +0.000 A 
ATOM     21 CL   UNL     1       6.551   3.965  14.670  0.00  0.00    +0.000 Cl
ATOM     22  S   UNL     1       4.331   4.199  16.592  0.00  0.00    +0.000 S 
ENDBRANCH  14  17
ENDBRANCH  12  14
ENDBRANCH   6  12
TORSDOF 4
ENDMDL
MODEL 5
REMARK VINA RESULT:      -6.6      3.528      7.042
REMARK  Name = 
REMARK  5 active torsions:
REMARK  status: ('A' for Active; 'I' for Inactive)
REMARK    1  A    between atoms: C_1  and  S_2
REMARK    2  A    between atoms: S_2  and  C_3
REMARK    3  A    between atoms: C_8  and  N_9
REMARK    4  A    between atoms: N_9  and  S_10
REMARK    5  A    between atoms: S_10  and  C_13
REMARK                            x       y       z     vdW  Elec       q    Type
REMARK                         _______ _______ _______ _____ _____    ______ ____
ROOT
ATOM      1  C   UNL     1       6.968   4.884  14.306  0.00  0.00    +0.000 A 
ATOM      2  N   UNL     1       7.479   5.643  15.248  0.00  0.00    +0.000 NA
ATOM      3  C   UNL     1       6.819   5.411  16.443  0.00  0.00    +0.000 A 
ATOM      4  C   UNL     1       7.071   6.056  17.673  0.00  0.00    +0.000 A 
ATOM      5  C   UNL     1       6.306   5.731  18.801  0.00  0.00    +0.000 A 
ATOM      6  C   UNL     1       5.317   4.755  18.720  0.00  0.00    +0.000 A 
ATOM      7  C   UNL     1       5.048   4.103  17.515  0.00  0.00    +0.000 A 
ATOM      8  C   UNL     1       5.811   4.449  16.389  0.00  0.00    +0.000 A 
ATOM      9  S   UNL     1       5.707   3.831  14.786  0.00  0.00    +0.000 S 
ENDROOT
BRANCH   1  11
ATOM     10  C   UNL     1       6.772   3.448  11.981  0.00  0.00    +0.000 C 
ATOM     11  S   UNL     1       7.527   4.945  12.648  0.00  0.00    +0.000 S 
ENDBRANCH   1  11
BRANCH   6  12
ATOM     12  N   UNL     1       4.513   4.446  19.863  0.00  0.00    +0.000 N 
ATOM     13  H   UNL     1       4.847   4.859  20.736  0.00  0.00    +0.000 HD
BRANCH  12  14
ATOM     14  S   UNL     1       2.849   4.765  19.728  0.00  0.00    +0.000 S 
ATOM     15  O   UNL     1       2.331   3.879  18.709  0.00  0.00    +0.000 OA
ATOM     16  O   UNL     1       2.273   4.792  21.058  0.00  0.00    +0.000 OA
BRANCH  14  17
ATOM     17  C   UNL     1       2.634   6.412  19.097  0.00  0.00    +0.000 A 
ATOM     18  C   UNL     1       2.963   6.998  17.888  0.00  0.00    +0.000 A 
ATOM     19  C   UNL     1       2.507   8.347  17.799  0.00  0.00    +0.000 A 
ATOM     20  C   UNL     1       1.871   8.726  18.953  0.00  0.00    +0.000 A 
ATOM     21 CL   UNL     1       1.132  10.243  19.265  0.00  0.00    +0.000 Cl
ATOM     22  S   UNL     1       1.848   7.523  20.141  0.00  0.00    +0.000 S 
ENDBRANCH  14  17
ENDBRANCH  12  14
ENDBRANCH   6  12
TORSDOF 4
ENDMDL
MODEL 6
REMARK VINA RESULT:      -6.5      1.696      1.772
REMARK  Name = 
REMARK  5 active torsions:
REMARK  status: ('A' for Active; 'I' for Inactive)
REMARK    1  A    between atoms: C_1  and  S_2
REMARK    2  A    between atoms: S_2  and  C_3
REMARK    3  A    between atoms: C_8  and  N_9
REMARK    4  A    between atoms: N_9  and  S_10
REMARK    5  A    between atoms: S_10  and  C_13
REMARK                            x       y       z     vdW  Elec       q    Type
REMARK                         _______ _______ _______ _____ _____    ______ ____
ROOT
ATOM      1  C   UNL     1      -0.678  11.280  19.904  0.00  0.00    +0.000 A 
ATOM      2  N   UNL     1      -0.114  10.964  18.760  0.00  0.00    +0.000 NA
ATOM      3  C   UNL     1       0.691   9.850  18.929  0.00  0.00    +0.000 A 
ATOM      4  C   UNL     1       1.477   9.231  17.933  0.00  0.00    +0.000 A 
ATOM      5  C   UNL     1       2.262   8.116  18.256  0.00  0.00    +0.000 A 
ATOM      6  C   UNL     1       2.249   7.601  19.549  0.00  0.00    +0.000 A 
ATOM      7  C   UNL     1       1.481   8.195  20.552  0.00  0.00    +0.000 A 
ATOM      8  C   UNL     1       0.711   9.321  20.219  0.00  0.00    +0.000 A 
ATOM      9  S   UNL     1      -0.317  10.260  21.229  0.00  0.00    +0.000 S 
ENDROOT
BRANCH   1  11
ATOM     10  C   UNL     1      -2.303  12.448  21.773  0.00  0.00    +0.000 C 
ATOM     11  S   UNL     1      -1.730  12.669  20.077  0.00  0.00    +0.000 S 
ENDBRANCH   1  11
BRANCH   6  12
ATOM     12  N   UNL     1       3.075   6.483  19.889  0.00  0.00    +0.000 N 
ATOM     13  H   UNL     1       3.008   6.191  20.866  0.00  0.00    +0.000 HD
BRANCH  12  14
ATOM     14  S   UNL     1       2.921   5.101  18.912  0.00  0.00    +0.000 S 
ATOM     15  O   UNL     1       3.439   3.986  19.673  0.00  0.00    +0.000 OA
ATOM     16  O   UNL     1       1.581   5.070  18.359  0.00  0.00    +0.000 OA
BRANCH  14  17
ATOM     17  C   UNL     1       3.996   5.273  17.508  0.00  0.00    +0.000 A 
ATOM     18  C   UNL     1       4.612   6.370  16.933  0.00  0.00    +0.000 A 
ATOM     19  C   UNL     1       5.470   6.004  15.853  0.00  0.00    +0.000 A 
ATOM     20  C   UNL     1       5.448   4.648  15.648  0.00  0.00    +0.000 A 
ATOM     21 CL   UNL     1       6.359   3.773  14.486  0.00  0.00    +0.000 Cl
ATOM     22  S   UNL     1       4.400   3.822  16.686  0.00  0.00    +0.000 S 
ENDBRANCH  14  17
ENDBRANCH  12  14
ENDBRANCH   6  12
TORSDOF 4
ENDMDL
MODEL 7
REMARK VINA RESULT:      -6.5      1.936      2.506
REMARK  Name = 
REMARK  5 active torsions:
REMARK  status: ('A' for Active; 'I' for Inactive)
REMARK    1  A    between atoms: C_1  and  S_2
REMARK    2  A    between atoms: S_2  and  C_3
REMARK    3  A    between atoms: C_8  and  N_9
REMARK    4  A    between atoms: N_9  and  S_10
REMARK    5  A    between atoms: S_10  and  C_13
REMARK                            x       y       z     vdW  Elec       q    Type
REMARK                         _______ _______ _______ _____ _____    ______ ____
ROOT
ATOM      1  C   UNL     1       1.557   9.582  19.181  0.00  0.00    +0.000 A 
ATOM      2  N   UNL     1       1.449   8.853  20.268  0.00  0.00    +0.000 NA
ATOM      3  C   UNL     1       1.672   7.522  19.961  0.00  0.00    +0.000 A 
ATOM      4  C   UNL     1       1.619   6.438  20.863  0.00  0.00    +0.000 A 
ATOM      5  C   UNL     1       1.848   5.134  20.403  0.00  0.00    +0.000 A 
ATOM      6  C   UNL     1       2.155   4.907  19.064  0.00  0.00    +0.000 A 
ATOM      7  C   UNL     1       2.214   5.962  18.152  0.00  0.00    +0.000 A 
ATOM      8  C   UNL     1       1.966   7.261  18.622  0.00  0.00    +0.000 A 
ATOM      9  S   UNL     1       1.959   8.741  17.746  0.00  0.00    +0.000 S 
ENDROOT
BRANCH   1  11
ATOM     10  C   UNL     1       0.749  11.567  20.886  0.00  0.00    +0.000 C 
ATOM     11  S   UNL     1       1.291  11.313  19.184  0.00  0.00    +0.000 S 
ENDBRANCH   1  11
BRANCH   6  12
ATOM     12  N   UNL     1       2.356   3.574  18.587  0.00  0.00    +0.000 N 
ATOM     13  H   UNL     1       1.941   3.387  17.671  0.00  0.00    +0.000 HD
BRANCH  12  14
ATOM     14  S   UNL     1       3.959   3.009  18.567  0.00  0.00    +0.000 S 
ATOM     15  O   UNL     1       4.427   3.019  19.935  0.00  0.00    +0.000 OA
ATOM     16  O   UNL     1       4.016   1.802  17.766  0.00  0.00    +0.000 OA
BRANCH  14  17
ATOM     17  C   UNL     1       4.967   4.187  17.699  0.00  0.00    +0.000 A 
ATOM     18  C   UNL     1       5.087   4.506  16.358  0.00  0.00    +0.000 A 
ATOM     19  C   UNL     1       5.975   5.600  16.140  0.00  0.00    +0.000 A 
ATOM     20  C   UNL     1       6.503   6.046  17.324  0.00  0.00    +0.000 A 
ATOM     21 CL   UNL     1       7.580   7.366  17.533  0.00  0.00    +0.000 Cl
ATOM     22  S   UNL     1       5.991   5.162  18.671  0.00  0.00    +0.000 S 
ENDBRANCH  14  17
ENDBRANCH  12  14
ENDBRANCH   6  12
TORSDOF 4
ENDMDL
MODEL 8
REMARK VINA RESULT:      -6.4      2.266      2.852
REMARK  Name = 
REMARK  5 active torsions:
REMARK  status: ('A' for Active; 'I' for Inactive)
REMARK    1  A    between atoms: C_1  and  S_2
REMARK    2  A    between atoms: S_2  and  C_3
REMARK    3  A    between atoms: C_8  and  N_9
REMARK    4  A    between atoms: N_9  and  S_10
REMARK    5  A    between atoms: S_10  and  C_13
REMARK                            x       y       z     vdW  Elec       q    Type
REMARK                         _______ _______ _______ _____ _____    ______ ____
ROOT
ATOM      1  C   UNL     1       0.886  10.175  19.607  0.00  0.00    +0.000 A 
ATOM      2  N   UNL     1       0.913   9.250  20.540  0.00  0.00    +0.000 NA
ATOM      3  C   UNL     1       1.532   8.112  20.051  0.00  0.00    +0.000 A 
ATOM      4  C   UNL     1       1.727   6.902  20.752  0.00  0.00    +0.000 A 
ATOM      5  C   UNL     1       2.355   5.822  20.118  0.00  0.00    +0.000 A 
ATOM      6  C   UNL     1       2.812   5.946  18.809  0.00  0.00    +0.000 A 
ATOM      7  C   UNL     1       2.632   7.132  18.094  0.00  0.00    +0.000 A 
ATOM      8  C   UNL     1       1.987   8.201  18.735  0.00  0.00    +0.000 A 
ATOM      9  S   UNL     1       1.618   9.764  18.117  0.00  0.00    +0.000 S 
ENDROOT
BRANCH   1  11
ATOM     10  C   UNL     1      -0.140  11.695  21.641  0.00  0.00    +0.000 C 
ATOM     11  S   UNL     1       0.134  11.735  19.858  0.00  0.00    +0.000 S 
ENDBRANCH   1  11
BRANCH   6  12
ATOM     12  N   UNL     1       3.424   4.833  18.150  0.00  0.00    +0.000 N 
ATOM     13  H   UNL     1       3.120   4.697  17.184  0.00  0.00    +0.000 HD
BRANCH  12  14
ATOM     14  S   UNL     1       5.122   4.771  18.184  0.00  0.00    +0.000 S 
ATOM     15  O   UNL     1       5.585   6.091  18.552  0.00  0.00    +0.000 OA
ATOM     16  O   UNL     1       5.529   3.600  18.936  0.00  0.00    +0.000 OA
BRANCH  14  17
ATOM     17  C   UNL     1       5.715   4.490  16.533  0.00  0.00    +0.000 A 
ATOM     18  C   UNL     1       5.319   3.617  15.535  0.00  0.00    +0.000 A 
ATOM     19  C   UNL     1       6.044   3.817  14.323  0.00  0.00    +0.000 A 
ATOM     20  C   UNL     1       6.970   4.818  14.466  0.00  0.00    +0.000 A 
ATOM     21 CL   UNL     1       8.028   5.417  13.254  0.00  0.00    +0.000 Cl
ATOM     22  S   UNL     1       7.013   5.486  16.019  0.00  0.00    +0.000 S 
ENDBRANCH  14  17
ENDBRANCH  12  14
ENDBRANCH   6  12
TORSDOF 4
ENDMDL
MODEL 9
REMARK VINA RESULT:      -6.4      3.503      6.963
REMARK  Name = 
REMARK  5 active torsions:
REMARK  status: ('A' for Active; 'I' for Inactive)
REMARK    1  A    between atoms: C_1  and  S_2
REMARK    2  A    between atoms: S_2  and  C_3
REMARK    3  A    between atoms: C_8  and  N_9
REMARK    4  A    between atoms: N_9  and  S_10
REMARK    5  A    between atoms: S_10  and  C_13
REMARK                            x       y       z     vdW  Elec       q    Type
REMARK                         _______ _______ _______ _____ _____    ______ ____
ROOT
ATOM      1  C   UNL     1       7.075   4.910  14.492  0.00  0.00    +0.000 A 
ATOM      2  N   UNL     1       7.454   5.566  15.566  0.00  0.00    +0.000 NA
ATOM      3  C   UNL     1       6.726   5.131  16.660  0.00  0.00    +0.000 A 
ATOM      4  C   UNL     1       6.834   5.618  17.980  0.00  0.00    +0.000 A 
ATOM      5  C   UNL     1       6.014   5.094  18.988  0.00  0.00    +0.000 A 
ATOM      6  C   UNL     1       5.111   4.075  18.696  0.00  0.00    +0.000 A 
ATOM      7  C   UNL     1       4.984   3.576  17.399  0.00  0.00    +0.000 A 
ATOM      8  C   UNL     1       5.800   4.122  16.396  0.00  0.00    +0.000 A 
ATOM      9  S   UNL     1       5.865   3.722  14.723  0.00  0.00    +0.000 S 
ENDROOT
BRANCH   1  11
ATOM     10  C   UNL     1       7.024   3.887  11.952  0.00  0.00    +0.000 C 
ATOM     11  S   UNL     1       7.751   5.233  12.910  0.00  0.00    +0.000 S 
ENDBRANCH   1  11
BRANCH   6  12
ATOM     12  N   UNL     1       4.249   3.562  19.717  0.00  0.00    +0.000 N 
ATOM     13  H   UNL     1       4.498   3.854  20.664  0.00  0.00    +0.000 HD
BRANCH  12  14
ATOM     14  S   UNL     1       2.582   3.822  19.504  0.00  0.00    +0.000 S 
ATOM     15  O   UNL     1       2.257   3.391  18.163  0.00  0.00    +0.000 OA
ATOM     16  O   UNL     1       1.879   3.286  20.652  0.00  0.00    +0.000 OA
BRANCH  14  17
ATOM     17  C   UNL     1       2.269   5.570  19.544  0.00  0.00    +0.000 A 
ATOM     18  C   UNL     1       1.913   6.432  20.565  0.00  0.00    +0.000 A 
ATOM     19  C   UNL     1       1.858   7.790  20.133  0.00  0.00    +0.000 A 
ATOM     20  C   UNL     1       2.156   7.891  18.798  0.00  0.00    +0.000 A 
ATOM     21 CL   UNL     1       2.250   9.336  17.876  0.00  0.00    +0.000 Cl
ATOM     22  S   UNL     1       2.455   6.403  18.055  0.00  0.00    +0.000 S 
ENDBRANCH  14  17
ENDBRANCH  12  14
ENDBRANCH   6  12
TORSDOF 4
ENDMDL
