MODEL 1
REMARK VINA RESULT:      -8.2      0.000      0.000
REMARK  Name = 
REMARK  7 active torsions:
REMARK  status: ('A' for Active; 'I' for Inactive)
REMARK    1  A    between atoms: C_1  and  O_2
REMARK    2  A    between atoms: O_2  and  C_3
REMARK    3  A    between atoms: C_6  and  C_7
REMARK    4  A    between atoms: N_9  and  N_10
REMARK    5  A    between atoms: C_11  and  C_13
REMARK    6  A    between atoms: C_24  and  O_25
REMARK    7  A    between atoms: O_25  and  C_26
REMARK                            x       y       z     vdW  Elec       q    Type
REMARK                         _______ _______ _______ _____ _____    ______ ____
ROOT
ATOM      1  C   UNL     1       0.155   8.825  21.458  0.00  0.00    +0.000 C 
ATOM      2  O   UNL     1      -0.738   7.986  21.564  0.00  0.00    +0.000 OA
ATOM      3  N   UNL     1       1.445   8.479  21.099  0.00  0.00    +0.000 N 
ATOM      4  H   UNL     1       2.228   9.123  21.026  0.00  0.00    +0.000 HD
ENDROOT
BRANCH   1   8
ATOM      5  C   UNL     1      -0.583  12.986  22.415  0.00  0.00    +0.000 A 
ATOM      6  C   UNL     1      -1.240  11.948  23.092  0.00  0.00    +0.000 A 
ATOM      7  C   UNL     1      -1.001  10.607  22.765  0.00  0.00    +0.000 A 
ATOM      8  C   UNL     1      -0.117  10.273  21.731  0.00  0.00    +0.000 A 
ATOM      9  C   UNL     1       0.479  11.314  21.013  0.00  0.00    +0.000 A 
ATOM     10  C   UNL     1       0.254  12.663  21.336  0.00  0.00    +0.000 A 
BRANCH   5  12
ATOM     11  C   UNL     1      -1.355  14.515  24.045  0.00  0.00    +0.000 C 
ATOM     12  O   UNL     1      -0.762  14.297  22.765  0.00  0.00    +0.000 OA
ENDBRANCH   5  12
BRANCH  10  13
ATOM     13  O   UNL     1       0.949  13.498  20.500  0.00  0.00    +0.000 OA
ATOM     14  C   UNL     1       2.274  13.168  20.121  0.00  0.00    +0.000 C 
ENDBRANCH  10  13
ENDBRANCH   1   8
BRANCH   3  15
ATOM     15  N   UNL     1       1.786   7.129  20.915  0.00  0.00    +0.000 N 
ATOM     16  C   UNL     1       2.184   6.753  19.648  0.00  0.00    +0.000 C 
ATOM     17  O   UNL     1       2.291   7.592  18.747  0.00  0.00    +0.000 OA
ATOM     18  H   UNL     1       1.583   6.495  21.685  0.00  0.00    +0.000 HD
BRANCH  16  19
ATOM     19  C   UNL     1       2.503   5.262  19.437  0.00  0.00    +0.000 C 
ATOM     20  C   UNL     1       1.801   4.383  20.498  0.00  0.00    +0.000 C 
ATOM     21  C   UNL     1       2.102   2.892  20.252  0.00  0.00    +0.000 C 
ATOM     22  C   UNL     1       1.594   2.493  18.857  0.00  0.00    +0.000 C 
ATOM     23  C   UNL     1       2.300   3.334  17.782  0.00  0.00    +0.000 C 
ATOM     24  C   UNL     1       3.816   3.100  17.865  0.00  0.00    +0.000 C 
ATOM     25  C   UNL     1       4.334   3.511  19.256  0.00  0.00    +0.000 C 
ATOM     26  C   UNL     1       3.621   2.664  20.323  0.00  0.00    +0.000 C 
ATOM     27  C   UNL     1       4.027   5.003  19.501  0.00  0.00    +0.000 C 
ATOM     28  C   UNL     1       2.005   4.822  18.034  0.00  0.00    +0.000 C 
ENDBRANCH  16  19
ENDBRANCH   3  15
TORSDOF 5
ENDMDL
MODEL 2
REMARK VINA RESULT:      -8.2      0.242      1.465
REMARK  Name = 
REMARK  7 active torsions:
REMARK  status: ('A' for Active; 'I' for Inactive)
REMARK    1  A    between atoms: C_1  and  O_2
REMARK    2  A    between atoms: O_2  and  C_3
REMARK    3  A    between atoms: C_6  and  C_7
REMARK    4  A    between atoms: N_9  and  N_10
REMARK    5  A    between atoms: C_11  and  C_13
REMARK    6  A    between atoms: C_24  and  O_25
REMARK    7  A    between atoms: O_25  and  C_26
REMARK                            x       y       z     vdW  Elec       q    Type
REMARK                         _______ _______ _______ _____ _____    ______ ____
ROOT
ATOM      1  C   UNL     1       0.124   8.864  21.489  0.00  0.00    +0.000 C 
ATOM      2  O   UNL     1      -0.762   8.044  21.724  0.00  0.00    +0.000 OA
ATOM      3  N   UNL     1       1.363   8.486  21.005  0.00  0.00    +0.000 N 
ATOM      4  H   UNL     1       2.140   9.115  20.823  0.00  0.00    +0.000 HD
ENDROOT
BRANCH   1   8
ATOM      5  C   UNL     1      -0.479  13.064  22.368  0.00  0.00    +0.000 A 
ATOM      6  C   UNL     1      -1.182  12.061  23.051  0.00  0.00    +0.000 A 
ATOM      7  C   UNL     1      -0.987  10.708  22.750  0.00  0.00    +0.000 A 
ATOM      8  C   UNL     1      -0.100  10.325  21.735  0.00  0.00    +0.000 A 
ATOM      9  C   UNL     1       0.543  11.333  21.010  0.00  0.00    +0.000 A 
ATOM     10  C   UNL     1       0.362  12.694  21.307  0.00  0.00    +0.000 A 
BRANCH   5  12
ATOM     11  C   UNL     1      -1.390  14.653  23.864  0.00  0.00    +0.000 C 
ATOM     12  O   UNL     1      -0.617  14.386  22.695  0.00  0.00    +0.000 OA
ENDBRANCH   5  12
BRANCH  10  13
ATOM     13  O   UNL     1       1.098  13.490  20.469  0.00  0.00    +0.000 OA
ATOM     14  C   UNL     1       2.445  13.792  20.792  0.00  0.00    +0.000 C 
ENDBRANCH  10  13
ENDBRANCH   1   8
BRANCH   3  15
ATOM     15  N   UNL     1       1.666   7.125  20.836  0.00  0.00    +0.000 N 
ATOM     16  C   UNL     1       2.138   6.739  19.598  0.00  0.00    +0.000 C 
ATOM     17  O   UNL     1       2.339   7.578  18.712  0.00  0.00    +0.000 OA
ATOM     18  H   UNL     1       1.386   6.495  21.586  0.00  0.00    +0.000 HD
BRANCH  16  19
ATOM     19  C   UNL     1       2.417   5.239  19.400  0.00  0.00    +0.000 C 
ATOM     20  C   UNL     1       3.915   4.915  19.600  0.00  0.00    +0.000 C 
ATOM     21  C   UNL     1       4.171   3.405  19.432  0.00  0.00    +0.000 C 
ATOM     22  C   UNL     1       3.349   2.630  20.474  0.00  0.00    +0.000 C 
ATOM     23  C   UNL     1       1.852   2.913  20.277  0.00  0.00    +0.000 C 
ATOM     24  C   UNL     1       1.434   2.480  18.863  0.00  0.00    +0.000 C 
ATOM     25  C   UNL     1       2.243   3.262  17.814  0.00  0.00    +0.000 C 
ATOM     26  C   UNL     1       3.739   2.973  18.021  0.00  0.00    +0.000 C 
ATOM     27  C   UNL     1       1.989   4.774  17.987  0.00  0.00    +0.000 C 
ATOM     28  C   UNL     1       1.600   4.421  20.437  0.00  0.00    +0.000 C 
ENDBRANCH  16  19
ENDBRANCH   3  15
TORSDOF 5
ENDMDL
MODEL 3
REMARK VINA RESULT:      -8.1      0.468      1.580
REMARK  Name = 
REMARK  7 active torsions:
REMARK  status: ('A' for Active; 'I' for Inactive)
REMARK    1  A    between atoms: C_1  and  O_2
REMARK    2  A    between atoms: O_2  and  C_3
REMARK    3  A    between atoms: C_6  and  C_7
REMARK    4  A    between atoms: N_9  and  N_10
REMARK    5  A    between atoms: C_11  and  C_13
REMARK    6  A    between atoms: C_24  and  O_25
REMARK    7  A    between atoms: O_25  and  C_26
REMARK                            x       y       z     vdW  Elec       q    Type
REMARK                         _______ _______ _______ _____ _____    ______ ____
ROOT
ATOM      1  C   UNL     1       0.114   8.871  21.472  0.00  0.00    +0.000 C 
ATOM      2  O   UNL     1      -0.768   8.046  21.706  0.00  0.00    +0.000 OA
ATOM      3  N   UNL     1       1.352   8.501  20.982  0.00  0.00    +0.000 N 
ATOM      4  H   UNL     1       2.126   9.135  20.800  0.00  0.00    +0.000 HD
ENDROOT
BRANCH   1   8
ATOM      5  C   UNL     1      -0.498  13.064  22.378  0.00  0.00    +0.000 A 
ATOM      6  C   UNL     1      -1.162  12.054  23.088  0.00  0.00    +0.000 A 
ATOM      7  C   UNL     1      -0.965  10.702  22.778  0.00  0.00    +0.000 A 
ATOM      8  C   UNL     1      -0.116  10.330  21.728  0.00  0.00    +0.000 A 
ATOM      9  C   UNL     1       0.488  11.344  20.978  0.00  0.00    +0.000 A 
ATOM     10  C   UNL     1       0.304  12.703  21.284  0.00  0.00    +0.000 A 
BRANCH   5  12
ATOM     11  C   UNL     1      -1.589  14.663  23.736  0.00  0.00    +0.000 C 
ATOM     12  O   UNL     1      -0.636  14.385  22.711  0.00  0.00    +0.000 OA
ENDBRANCH   5  12
BRANCH  10  13
ATOM     13  O   UNL     1       0.997  13.507  20.418  0.00  0.00    +0.000 OA
ATOM     14  C   UNL     1       0.351  14.019  19.265  0.00  0.00    +0.000 C 
ENDBRANCH  10  13
ENDBRANCH   1   8
BRANCH   3  15
ATOM     15  N   UNL     1       1.660   7.142  20.803  0.00  0.00    +0.000 N 
ATOM     16  C   UNL     1       2.130   6.767  19.561  0.00  0.00    +0.000 C 
ATOM     17  O   UNL     1       2.324   7.611  18.680  0.00  0.00    +0.000 OA
ATOM     18  H   UNL     1       1.386   6.507  21.550  0.00  0.00    +0.000 HD
BRANCH  16  19
ATOM     19  C   UNL     1       2.414   5.268  19.352  0.00  0.00    +0.000 C 
ATOM     20  C   UNL     1       2.033   4.819  17.922  0.00  0.00    +0.000 C 
ATOM     21  C   UNL     1       2.355   3.327  17.718  0.00  0.00    +0.000 C 
ATOM     22  C   UNL     1       3.860   3.096  17.931  0.00  0.00    +0.000 C 
ATOM     23  C   UNL     1       4.257   3.508  19.356  0.00  0.00    +0.000 C 
ATOM     24  C   UNL     1       3.460   2.672  20.369  0.00  0.00    +0.000 C 
ATOM     25  C   UNL     1       1.951   2.909  20.172  0.00  0.00    +0.000 C 
ATOM     26  C   UNL     1       1.565   2.495  18.742  0.00  0.00    +0.000 C 
ATOM     27  C   UNL     1       1.633   4.405  20.372  0.00  0.00    +0.000 C 
ATOM     28  C   UNL     1       3.928   4.996  19.561  0.00  0.00    +0.000 C 
ENDBRANCH  16  19
ENDBRANCH   3  15
TORSDOF 5
ENDMDL
MODEL 4
REMARK VINA RESULT:      -8.0      0.892      1.932
REMARK  Name = 
REMARK  7 active torsions:
REMARK  status: ('A' for Active; 'I' for Inactive)
REMARK    1  A    between atoms: C_1  and  O_2
REMARK    2  A    between atoms: O_2  and  C_3
REMARK    3  A    between atoms: C_6  and  C_7
REMARK    4  A    between atoms: N_9  and  N_10
REMARK    5  A    between atoms: C_11  and  C_13
REMARK    6  A    between atoms: C_24  and  O_25
REMARK    7  A    between atoms: O_25  and  C_26
REMARK                            x       y       z     vdW  Elec       q    Type
REMARK                         _______ _______ _______ _____ _____    ______ ____
ROOT
ATOM      1  C   UNL     1       0.259   9.052  21.387  0.00  0.00    +0.000 C 
ATOM      2  O   UNL     1      -0.679   8.305  21.659  0.00  0.00    +0.000 OA
ATOM      3  N   UNL     1       1.466   8.569  20.916  0.00  0.00    +0.000 N 
ATOM      4  H   UNL     1       2.284   9.135  20.705  0.00  0.00    +0.000 HD
ENDROOT
BRANCH   1   8
ATOM      5  C   UNL     1      -0.122  13.353  21.749  0.00  0.00    +0.000 A 
ATOM      6  C   UNL     1       0.833  12.768  20.906  0.00  0.00    +0.000 A 
ATOM      7  C   UNL     1       0.954  11.376  20.806  0.00  0.00    +0.000 A 
ATOM      8  C   UNL     1       0.137  10.534  21.572  0.00  0.00    +0.000 A 
ATOM      9  C   UNL     1      -0.763  11.124  22.463  0.00  0.00    +0.000 A 
ATOM     10  C   UNL     1      -0.900  12.519  22.567  0.00  0.00    +0.000 A 
BRANCH   5  12
ATOM     11  C   UNL     1      -1.249  15.251  20.900  0.00  0.00    +0.000 C 
ATOM     12  O   UNL     1      -0.291  14.710  21.810  0.00  0.00    +0.000 OA
ENDBRANCH   5  12
BRANCH  10  13
ATOM     13  O   UNL     1      -1.845  12.859  23.499  0.00  0.00    +0.000 OA
ATOM     14  C   UNL     1      -3.117  12.234  23.469  0.00  0.00    +0.000 C 
ENDBRANCH  10  13
ENDBRANCH   1   8
BRANCH   3  15
ATOM     15  N   UNL     1       1.674   7.184  20.804  0.00  0.00    +0.000 N 
ATOM     16  C   UNL     1       2.213   6.728  19.618  0.00  0.00    +0.000 C 
ATOM     17  O   UNL     1       2.549   7.522  18.733  0.00  0.00    +0.000 OA
ATOM     18  H   UNL     1       1.287   6.601  21.542  0.00  0.00    +0.000 HD
BRANCH  16  19
ATOM     19  C   UNL     1       2.387   5.205  19.478  0.00  0.00    +0.000 C 
ATOM     20  C   UNL     1       1.564   4.446  20.543  0.00  0.00    +0.000 C 
ATOM     21  C   UNL     1       1.721   2.924  20.368  0.00  0.00    +0.000 C 
ATOM     22  C   UNL     1       1.226   2.517  18.971  0.00  0.00    +0.000 C 
ATOM     23  C   UNL     1       2.050   3.238  17.893  0.00  0.00    +0.000 C 
ATOM     24  C   UNL     1       3.531   2.859  18.045  0.00  0.00    +0.000 C 
ATOM     25  C   UNL     1       4.038   3.275  19.437  0.00  0.00    +0.000 C 
ATOM     26  C   UNL     1       3.207   2.550  20.508  0.00  0.00    +0.000 C 
ATOM     27  C   UNL     1       3.875   4.800  19.612  0.00  0.00    +0.000 C 
ATOM     28  C   UNL     1       1.898   4.757  18.074  0.00  0.00    +0.000 C 
ENDBRANCH  16  19
ENDBRANCH   3  15
TORSDOF 5
ENDMDL
MODEL 5
REMARK VINA RESULT:      -8.0      0.919      2.387
REMARK  Name = 
REMARK  7 active torsions:
REMARK  status: ('A' for Active; 'I' for Inactive)
REMARK    1  A    between atoms: C_1  and  O_2
REMARK    2  A    between atoms: O_2  and  C_3
REMARK    3  A    between atoms: C_6  and  C_7
REMARK    4  A    between atoms: N_9  and  N_10
REMARK    5  A    between atoms: C_11  and  C_13
REMARK    6  A    between atoms: C_24  and  O_25
REMARK    7  A    between atoms: O_25  and  C_26
REMARK                            x       y       z     vdW  Elec       q    Type
REMARK                         _______ _______ _______ _____ _____    ______ ____
ROOT
ATOM      1  C   UNL     1       0.270   9.042  21.382  0.00  0.00    +0.000 C 
ATOM      2  O   UNL     1      -0.658   8.295  21.687  0.00  0.00    +0.000 OA
ATOM      3  N   UNL     1       1.465   8.558  20.883  0.00  0.00    +0.000 N 
ATOM      4  H   UNL     1       2.275   9.124  20.643  0.00  0.00    +0.000 HD
ENDROOT
BRANCH   1   8
ATOM      5  C   UNL     1      -0.113  13.346  21.710  0.00  0.00    +0.000 A 
ATOM      6  C   UNL     1       0.833  12.754  20.860  0.00  0.00    +0.000 A 
ATOM      7  C   UNL     1       0.955  11.362  20.771  0.00  0.00    +0.000 A 
ATOM      8  C   UNL     1       0.149  10.525  21.554  0.00  0.00    +0.000 A 
ATOM      9  C   UNL     1      -0.742  11.122  22.452  0.00  0.00    +0.000 A 
ATOM     10  C   UNL     1      -0.879  12.518  22.545  0.00  0.00    +0.000 A 
BRANCH   5  12
ATOM     11  C   UNL     1       0.804  15.437  22.323  0.00  0.00    +0.000 C 
ATOM     12  O   UNL     1      -0.283  14.703  21.760  0.00  0.00    +0.000 OA
ENDBRANCH   5  12
BRANCH  10  13
ATOM     13  O   UNL     1      -1.813  12.866  23.485  0.00  0.00    +0.000 OA
ATOM     14  C   UNL     1      -3.101  12.273  23.448  0.00  0.00    +0.000 C 
ENDBRANCH  10  13
ENDBRANCH   1   8
BRANCH   3  15
ATOM     15  N   UNL     1       1.675   7.173  20.779  0.00  0.00    +0.000 N 
ATOM     16  C   UNL     1       2.122   6.698  19.563  0.00  0.00    +0.000 C 
ATOM     17  O   UNL     1       2.381   7.478  18.640  0.00  0.00    +0.000 OA
ATOM     18  H   UNL     1       1.352   6.600  21.556  0.00  0.00    +0.000 HD
BRANCH  16  19
ATOM     19  C   UNL     1       2.297   5.174  19.436  0.00  0.00    +0.000 C 
ATOM     20  C   UNL     1       3.756   4.752  19.723  0.00  0.00    +0.000 C 
ATOM     21  C   UNL     1       3.907   3.222  19.627  0.00  0.00    +0.000 C 
ATOM     22  C   UNL     1       2.982   2.553  20.655  0.00  0.00    +0.000 C 
ATOM     23  C   UNL     1       1.521   2.934  20.372  0.00  0.00    +0.000 C 
ATOM     24  C   UNL     1       1.138   2.474  18.957  0.00  0.00    +0.000 C 
ATOM     25  C   UNL     1       2.052   3.151  17.921  0.00  0.00    +0.000 C 
ATOM     26  C   UNL     1       3.511   2.763  18.213  0.00  0.00    +0.000 C 
ATOM     27  C   UNL     1       1.902   4.683  18.023  0.00  0.00    +0.000 C 
ATOM     28  C   UNL     1       1.374   4.462  20.461  0.00  0.00    +0.000 C 
ENDBRANCH  16  19
ENDBRANCH   3  15
TORSDOF 5
ENDMDL
MODEL 6
REMARK VINA RESULT:      -8.0      0.880      2.432
REMARK  Name = 
REMARK  7 active torsions:
REMARK  status: ('A' for Active; 'I' for Inactive)
REMARK    1  A    between atoms: C_1  and  O_2
REMARK    2  A    between atoms: O_2  and  C_3
REMARK    3  A    between atoms: C_6  and  C_7
REMARK    4  A    between atoms: N_9  and  N_10
REMARK    5  A    between atoms: C_11  and  C_13
REMARK    6  A    between atoms: C_24  and  O_25
REMARK    7  A    between atoms: O_25  and  C_26
REMARK                            x       y       z     vdW  Elec       q    Type
REMARK                         _______ _______ _______ _____ _____    ______ ____
ROOT
ATOM      1  C   UNL     1       0.349   8.895  21.361  0.00  0.00    +0.000 C 
ATOM      2  O   UNL     1      -0.587   8.126  21.574  0.00  0.00    +0.000 OA
ATOM      3  N   UNL     1       1.586   8.443  20.939  0.00  0.00    +0.000 N 
ATOM      4  H   UNL     1       2.401   9.027  20.778  0.00  0.00    +0.000 HD
ENDROOT
BRANCH   1   8
ATOM      5  C   UNL     1      -0.145  13.178  21.792  0.00  0.00    +0.000 A 
ATOM      6  C   UNL     1       0.785  12.632  20.895  0.00  0.00    +0.000 A 
ATOM      7  C   UNL     1       0.943  11.245  20.774  0.00  0.00    +0.000 A 
ATOM      8  C   UNL     1       0.192  10.371  21.569  0.00  0.00    +0.000 A 
ATOM      9  C   UNL     1      -0.681  10.923  22.511  0.00  0.00    +0.000 A 
ATOM     10  C   UNL     1      -0.855  12.312  22.638  0.00  0.00    +0.000 A 
BRANCH   5  12
ATOM     11  C   UNL     1      -0.979  15.126  20.742  0.00  0.00    +0.000 C 
ATOM     12  O   UNL     1      -0.352  14.529  21.876  0.00  0.00    +0.000 OA
ENDBRANCH   5  12
BRANCH  10  13
ATOM     13  O   UNL     1      -1.762  12.614  23.619  0.00  0.00    +0.000 OA
ATOM     14  C   UNL     1      -3.124  12.256  23.450  0.00  0.00    +0.000 C 
ENDBRANCH  10  13
ENDBRANCH   1   8
BRANCH   3  15
ATOM     15  N   UNL     1       1.824   7.064  20.810  0.00  0.00    +0.000 N 
ATOM     16  C   UNL     1       2.209   6.612  19.564  0.00  0.00    +0.000 C 
ATOM     17  O   UNL     1       2.391   7.405  18.635  0.00  0.00    +0.000 OA
ATOM     18  H   UNL     1       1.563   6.478  21.600  0.00  0.00    +0.000 HD
BRANCH  16  19
ATOM     19  C   UNL     1       2.415   5.094  19.413  0.00  0.00    +0.000 C 
ATOM     20  C   UNL     1       1.891   4.590  18.048  0.00  0.00    +0.000 C 
ATOM     21  C   UNL     1       2.136   3.077  17.898  0.00  0.00    +0.000 C 
ATOM     22  C   UNL     1       3.644   2.793  17.990  0.00  0.00    +0.000 C 
ATOM     23  C   UNL     1       4.183   3.259  19.352  0.00  0.00    +0.000 C 
ATOM     24  C   UNL     1       3.447   2.510  20.474  0.00  0.00    +0.000 C 
ATOM     25  C   UNL     1       1.938   2.801  20.396  0.00  0.00    +0.000 C 
ATOM     26  C   UNL     1       1.409   2.332  19.031  0.00  0.00    +0.000 C 
ATOM     27  C   UNL     1       1.696   4.318  20.542  0.00  0.00    +0.000 C 
ATOM     28  C   UNL     1       3.930   4.767  19.503  0.00  0.00    +0.000 C 
ENDBRANCH  16  19
ENDBRANCH   3  15
TORSDOF 5
ENDMDL
MODEL 7
REMARK VINA RESULT:      -7.8      1.498      1.717
REMARK  Name = 
REMARK  7 active torsions:
REMARK  status: ('A' for Active; 'I' for Inactive)
REMARK    1  A    between atoms: C_1  and  O_2
REMARK    2  A    between atoms: O_2  and  C_3
REMARK    3  A    between atoms: C_6  and  C_7
REMARK    4  A    between atoms: N_9  and  N_10
REMARK    5  A    between atoms: C_11  and  C_13
REMARK    6  A    between atoms: C_24  and  O_25
REMARK    7  A    between atoms: O_25  and  C_26
REMARK                            x       y       z     vdW  Elec       q    Type
REMARK                         _______ _______ _______ _____ _____    ______ ____
ROOT
ATOM      1  C   UNL     1       1.084   9.002  20.262  0.00  0.00    +0.000 C 
ATOM      2  O   UNL     1       1.266   9.187  19.059  0.00  0.00    +0.000 OA
ATOM      3  N   UNL     1       1.625   7.917  20.926  0.00  0.00    +0.000 N 
ATOM      4  H   UNL     1       1.482   7.699  21.908  0.00  0.00    +0.000 HD
ENDROOT
BRANCH   1   8
ATOM      5  C   UNL     1      -1.223  11.735  22.709  0.00  0.00    +0.000 A 
ATOM      6  C   UNL     1      -0.889  10.449  23.157  0.00  0.00    +0.000 A 
ATOM      7  C   UNL     1      -0.153   9.571  22.352  0.00  0.00    +0.000 A 
ATOM      8  C   UNL     1       0.245   9.950  21.064  0.00  0.00    +0.000 A 
ATOM      9  C   UNL     1      -0.152  11.207  20.596  0.00  0.00    +0.000 A 
ATOM     10  C   UNL     1      -0.885  12.100  21.396  0.00  0.00    +0.000 A 
BRANCH   5  12
ATOM     11  C   UNL     1      -3.299  12.419  23.612  0.00  0.00    +0.000 C 
ATOM     12  O   UNL     1      -1.890  12.623  23.509  0.00  0.00    +0.000 OA
ENDBRANCH   5  12
BRANCH  10  13
ATOM     13  O   UNL     1      -1.151  13.266  20.727  0.00  0.00    +0.000 OA
ATOM     14  C   UNL     1      -0.616  13.468  19.430  0.00  0.00    +0.000 C 
ENDBRANCH  10  13
ENDBRANCH   1   8
BRANCH   3  15
ATOM     15  N   UNL     1       2.347   6.945  20.214  0.00  0.00    +0.000 N 
ATOM     16  C   UNL     1       1.824   5.669  20.194  0.00  0.00    +0.000 C 
ATOM     17  O   UNL     1       0.736   5.426  20.729  0.00  0.00    +0.000 OA
ATOM     18  H   UNL     1       3.272   7.212  19.882  0.00  0.00    +0.000 HD
BRANCH  16  19
ATOM     19  C   UNL     1       2.647   4.595  19.460  0.00  0.00    +0.000 C 
ATOM     20  C   UNL     1       2.378   3.188  20.041  0.00  0.00    +0.000 C 
ATOM     21  C   UNL     1       3.181   2.121  19.274  0.00  0.00    +0.000 C 
ATOM     22  C   UNL     1       2.768   2.137  17.794  0.00  0.00    +0.000 C 
ATOM     23  C   UNL     1       3.053   3.518  17.185  0.00  0.00    +0.000 C 
ATOM     24  C   UNL     1       4.553   3.828  17.305  0.00  0.00    +0.000 C 
ATOM     25  C   UNL     1       4.972   3.827  18.786  0.00  0.00    +0.000 C 
ATOM     26  C   UNL     1       4.681   2.441  19.385  0.00  0.00    +0.000 C 
ATOM     27  C   UNL     1       4.162   4.893  19.553  0.00  0.00    +0.000 C 
ATOM     28  C   UNL     1       2.256   4.583  17.957  0.00  0.00    +0.000 C 
ENDBRANCH  16  19
ENDBRANCH   3  15
TORSDOF 5
ENDMDL
MODEL 8
REMARK VINA RESULT:      -7.8      1.363      2.140
REMARK  Name = 
REMARK  7 active torsions:
REMARK  status: ('A' for Active; 'I' for Inactive)
REMARK    1  A    between atoms: C_1  and  O_2
REMARK    2  A    between atoms: O_2  and  C_3
REMARK    3  A    between atoms: C_6  and  C_7
REMARK    4  A    between atoms: N_9  and  N_10
REMARK    5  A    between atoms: C_11  and  C_13
REMARK    6  A    between atoms: C_24  and  O_25
REMARK    7  A    between atoms: O_25  and  C_26
REMARK                            x       y       z     vdW  Elec       q    Type
REMARK                         _______ _______ _______ _____ _____    ______ ____
ROOT
ATOM      1  C   UNL     1       1.131   9.080  20.234  0.00  0.00    +0.000 C 
ATOM      2  O   UNL     1       1.227   9.216  19.015  0.00  0.00    +0.000 OA
ATOM      3  N   UNL     1       1.720   8.021  20.901  0.00  0.00    +0.000 N 
ATOM      4  H   UNL     1       1.648   7.842  21.899  0.00  0.00    +0.000 HD
ENDROOT
BRANCH   1   8
ATOM      5  C   UNL     1      -1.032  11.869  22.747  0.00  0.00    +0.000 A 
ATOM      6  C   UNL     1      -0.967  10.502  23.053  0.00  0.00    +0.000 A 
ATOM      7  C   UNL     1      -0.274   9.608  22.226  0.00  0.00    +0.000 A 
ATOM      8  C   UNL     1       0.349  10.059  21.055  0.00  0.00    +0.000 A 
ATOM      9  C   UNL     1       0.220  11.410  20.719  0.00  0.00    +0.000 A 
ATOM     10  C   UNL     1      -0.466  12.318  21.544  0.00  0.00    +0.000 A 
BRANCH   5  12
ATOM     11  C   UNL     1      -3.080  12.684  23.604  0.00  0.00    +0.000 C 
ATOM     12  O   UNL     1      -1.655  12.761  23.578  0.00  0.00    +0.000 OA
ENDBRANCH   5  12
BRANCH  10  13
ATOM     13  O   UNL     1      -0.455  13.581  21.013  0.00  0.00    +0.000 OA
ATOM     14  C   UNL     1      -0.900  13.788  19.683  0.00  0.00    +0.000 C 
ENDBRANCH  10  13
ENDBRANCH   1   8
BRANCH   3  15
ATOM     15  N   UNL     1       2.393   7.022  20.178  0.00  0.00    +0.000 N 
ATOM     16  C   UNL     1       1.835   5.759  20.193  0.00  0.00    +0.000 C 
ATOM     17  O   UNL     1       0.761   5.552  20.767  0.00  0.00    +0.000 OA
ATOM     18  H   UNL     1       3.312   7.260  19.813  0.00  0.00    +0.000 HD
BRANCH  16  19
ATOM     19  C   UNL     1       2.604   4.654  19.447  0.00  0.00    +0.000 C 
ATOM     20  C   UNL     1       4.132   4.833  19.601  0.00  0.00    +0.000 C 
ATOM     21  C   UNL     1       4.887   3.701  18.879  0.00  0.00    +0.000 C 
ATOM     22  C   UNL     1       4.478   2.348  19.484  0.00  0.00    +0.000 C 
ATOM     23  C   UNL     1       2.966   2.135  19.316  0.00  0.00    +0.000 C 
ATOM     24  C   UNL     1       2.610   2.159  17.821  0.00  0.00    +0.000 C 
ATOM     25  C   UNL     1       3.004   3.517  17.211  0.00  0.00    +0.000 C 
ATOM     26  C   UNL     1       4.518   3.721  17.386  0.00  0.00    +0.000 C 
ATOM     27  C   UNL     1       2.251   4.649  17.940  0.00  0.00    +0.000 C 
ATOM     28  C   UNL     1       2.215   3.270  20.031  0.00  0.00    +0.000 C 
ENDBRANCH  16  19
ENDBRANCH   3  15
TORSDOF 5
ENDMDL
MODEL 9
REMARK VINA RESULT:      -7.7      1.399      2.183
REMARK  Name = 
REMARK  7 active torsions:
REMARK  status: ('A' for Active; 'I' for Inactive)
REMARK    1  A    between atoms: C_1  and  O_2
REMARK    2  A    between atoms: O_2  and  C_3
REMARK    3  A    between atoms: C_6  and  C_7
REMARK    4  A    between atoms: N_9  and  N_10
REMARK    5  A    between atoms: C_11  and  C_13
REMARK    6  A    between atoms: C_24  and  O_25
REMARK    7  A    between atoms: O_25  and  C_26
REMARK                            x       y       z     vdW  Elec       q    Type
REMARK                         _______ _______ _______ _____ _____    ______ ____
ROOT
ATOM      1  C   UNL     1       1.136   9.047  20.286  0.00  0.00    +0.000 C 
ATOM      2  O   UNL     1       1.301   9.229  19.081  0.00  0.00    +0.000 OA
ATOM      3  N   UNL     1       1.665   7.950  20.940  0.00  0.00    +0.000 N 
ATOM      4  H   UNL     1       1.535   7.733  21.925  0.00  0.00    +0.000 HD
ENDROOT
BRANCH   1   8
ATOM      5  C   UNL     1      -1.088  11.802  22.785  0.00  0.00    +0.000 A 
ATOM      6  C   UNL     1      -0.931  10.453  23.136  0.00  0.00    +0.000 A 
ATOM      7  C   UNL     1      -0.219   9.570  22.314  0.00  0.00    +0.000 A 
ATOM      8  C   UNL     1       0.330  10.011  21.103  0.00  0.00    +0.000 A 
ATOM      9  C   UNL     1       0.108  11.338  20.724  0.00  0.00    +0.000 A 
ATOM     10  C   UNL     1      -0.598  12.236  21.543  0.00  0.00    +0.000 A 
BRANCH   5  12
ATOM     11  C   UNL     1      -3.154  12.687  23.519  0.00  0.00    +0.000 C 
ATOM     12  O   UNL     1      -1.729  12.687  23.608  0.00  0.00    +0.000 OA
ENDBRANCH   5  12
BRANCH  10  13
ATOM     13  O   UNL     1      -0.682  13.476  20.967  0.00  0.00    +0.000 OA
ATOM     14  C   UNL     1      -0.395  13.630  19.587  0.00  0.00    +0.000 C 
ENDBRANCH  10  13
ENDBRANCH   1   8
BRANCH   3  15
ATOM     15  N   UNL     1       2.355   6.964  20.215  0.00  0.00    +0.000 N 
ATOM     16  C   UNL     1       1.794   5.704  20.183  0.00  0.00    +0.000 C 
ATOM     17  O   UNL     1       0.702   5.488  20.720  0.00  0.00    +0.000 OA
ATOM     18  H   UNL     1       3.286   7.207  19.882  0.00  0.00    +0.000 HD
BRANCH  16  19
ATOM     19  C   UNL     1       2.581   4.614  19.435  0.00  0.00    +0.000 C 
ATOM     20  C   UNL     1       2.231   4.603  17.929  0.00  0.00    +0.000 C 
ATOM     21  C   UNL     1       3.052   3.531  17.188  0.00  0.00    +0.000 C 
ATOM     22  C   UNL     1       4.550   3.834  17.351  0.00  0.00    +0.000 C 
ATOM     23  C   UNL     1       4.929   3.821  18.840  0.00  0.00    +0.000 C 
ATOM     24  C   UNL     1       4.615   2.439  19.434  0.00  0.00    +0.000 C 
ATOM     25  C   UNL     1       3.113   2.135  19.287  0.00  0.00    +0.000 C 
ATOM     26  C   UNL     1       2.745   2.151  17.794  0.00  0.00    +0.000 C 
ATOM     27  C   UNL     1       2.293   3.213  20.025  0.00  0.00    +0.000 C 
ATOM     28  C   UNL     1       4.103   4.886  19.578  0.00  0.00    +0.000 C 
ENDBRANCH  16  19
ENDBRANCH   3  15
TORSDOF 5
ENDMDL
