MODEL 1
REMARK VINA RESULT:      -8.3      0.000      0.000
REMARK  Name = 
REMARK  5 active torsions:
REMARK  status: ('A' for Active; 'I' for Inactive)
REMARK    1  A    between atoms: O_1  and  N_2
REMARK    2  A    between atoms: C_3  and  C_4
REMARK    3  A    between atoms: C_3  and  C_17
REMARK    4  A    between atoms: N_7  and  C_8
REMARK    5  A    between atoms: C_23  and  O_24
REMARK                            x       y       z     vdW  Elec       q    Type
REMARK                         _______ _______ _______ _____ _____    ______ ____
ROOT
ATOM      1  N   UNL     1       4.459   6.172  17.085  0.00  0.00    +0.000 NA
ATOM      2  C   UNL     1       3.516   5.941  17.956  0.00  0.00    +0.000 C 
ENDROOT
BRANCH   2   3
ATOM      3  C   UNL     1       3.116   4.609  18.519  0.00  0.00    +0.000 A 
ATOM      4  C   UNL     1       1.820   4.128  18.286  0.00  0.00    +0.000 A 
ATOM      5  C   UNL     1       1.438   2.886  18.783  0.00  0.00    +0.000 A 
ATOM      6  F   UNL     1       0.211   2.420  18.518  0.00  0.00    +0.000 F 
ATOM      7  C   UNL     1       2.305   2.119  19.550  0.00  0.00    +0.000 A 
ATOM      8  C   UNL     1       3.588   2.593  19.817  0.00  0.00    +0.000 A 
ATOM      9  C   UNL     1       3.995   3.823  19.290  0.00  0.00    +0.000 A 
BRANCH   9  10
ATOM     10  O   UNL     1       5.276   4.240  19.527  0.00  0.00    +0.000 OA
ATOM     11  H   UNL     1       5.848   4.000  18.779  0.00  0.00    +0.000 HD
ENDBRANCH   9  10
ENDBRANCH   2   3
BRANCH   2  12
ATOM     12  C   UNL     1       2.779   7.133  18.355  0.00  0.00    +0.000 A 
ATOM     13  C   UNL     1       2.540   8.311  17.616  0.00  0.00    +0.000 A 
ATOM     14  N   UNL     1       1.811   9.208  18.283  0.00  0.00    +0.000 NA
ATOM     15  N   UNL     1       1.582   8.628  19.486  0.00  0.00    +0.000 N 
ATOM     16  C   UNL     1       2.122   7.364  19.545  0.00  0.00    +0.000 A 
BRANCH  15  17
ATOM     17  C   UNL     1       0.849   9.301  20.503  0.00  0.00    +0.000 A 
ATOM     18  C   UNL     1       0.018  10.385  20.165  0.00  0.00    +0.000 A 
ATOM     19  C   UNL     1      -0.723  11.036  21.155  0.00  0.00    +0.000 A 
ATOM     20  C   UNL     1      -0.619  10.621  22.479  0.00  0.00    +0.000 A 
ATOM     21  F   UNL     1      -1.331  11.249  23.423  0.00  0.00    +0.000 F 
ATOM     22  C   UNL     1       0.215   9.564  22.819  0.00  0.00    +0.000 A 
ATOM     23  F   UNL     1       0.324   9.171  24.095  0.00  0.00    +0.000 F 
ATOM     24  C   UNL     1       0.952   8.898  21.842  0.00  0.00    +0.000 A 
ENDBRANCH  15  17
ENDBRANCH   2  12
BRANCH   1  25
ATOM     25  O   UNL     1       5.184   5.036  16.714  0.00  0.00    +0.000 OA
ATOM     26  H   UNL     1       4.729   4.759  15.896  0.00  0.00    +0.000 HD
ENDBRANCH   1  25
TORSDOF 5
ENDMDL
MODEL 2
REMARK VINA RESULT:      -8.3      2.382      2.919
REMARK  Name = 
REMARK  5 active torsions:
REMARK  status: ('A' for Active; 'I' for Inactive)
REMARK    1  A    between atoms: O_1  and  N_2
REMARK    2  A    between atoms: C_3  and  C_4
REMARK    3  A    between atoms: C_3  and  C_17
REMARK    4  A    between atoms: N_7  and  C_8
REMARK    5  A    between atoms: C_23  and  O_24
REMARK                            x       y       z     vdW  Elec       q    Type
REMARK                         _______ _______ _______ _____ _____    ______ ____
ROOT
ATOM      1  N   UNL     1       3.262   4.012  19.645  0.00  0.00    +0.000 NA
ATOM      2  C   UNL     1       3.755   4.925  18.855  0.00  0.00    +0.000 C 
ENDROOT
BRANCH   2   3
ATOM      3  C   UNL     1       4.927   4.779  17.931  0.00  0.00    +0.000 A 
ATOM      4  C   UNL     1       4.700   4.509  16.574  0.00  0.00    +0.000 A 
ATOM      5  C   UNL     1       5.774   4.391  15.698  0.00  0.00    +0.000 A 
ATOM      6  F   UNL     1       5.543   4.174  14.397  0.00  0.00    +0.000 F 
ATOM      7  C   UNL     1       7.085   4.493  16.146  0.00  0.00    +0.000 A 
ATOM      8  C   UNL     1       7.331   4.732  17.497  0.00  0.00    +0.000 A 
ATOM      9  C   UNL     1       6.258   4.891  18.380  0.00  0.00    +0.000 A 
BRANCH   9  10
ATOM     10  O   UNL     1       6.530   5.175  19.690  0.00  0.00    +0.000 OA
ATOM     11  H   UNL     1       7.490   5.195  19.834  0.00  0.00    +0.000 HD
ENDBRANCH   9  10
ENDBRANCH   2   3
BRANCH   2  12
ATOM     12  C   UNL     1       3.086   6.215  18.958  0.00  0.00    +0.000 A 
ATOM     13  C   UNL     1       3.027   7.258  18.009  0.00  0.00    +0.000 A 
ATOM     14  N   UNL     1       2.313   8.305  18.425  0.00  0.00    +0.000 NA
ATOM     15  N   UNL     1       1.910   7.963  19.673  0.00  0.00    +0.000 N 
ATOM     16  C   UNL     1       2.331   6.696  20.007  0.00  0.00    +0.000 A 
BRANCH  15  17
ATOM     17  C   UNL     1       1.136   8.853  20.469  0.00  0.00    +0.000 A 
ATOM     18  C   UNL     1       0.491   9.949  19.867  0.00  0.00    +0.000 A 
ATOM     19  C   UNL     1      -0.290  10.813  20.638  0.00  0.00    +0.000 A 
ATOM     20  C   UNL     1      -0.411  10.598  22.008  0.00  0.00    +0.000 A 
ATOM     21  F   UNL     1      -1.160  11.430  22.742  0.00  0.00    +0.000 F 
ATOM     22  C   UNL     1       0.241   9.528  22.608  0.00  0.00    +0.000 A 
ATOM     23  F   UNL     1       0.135   9.327  23.928  0.00  0.00    +0.000 F 
ATOM     24  C   UNL     1       1.014   8.651  21.852  0.00  0.00    +0.000 A 
ENDBRANCH  15  17
ENDBRANCH   2  12
BRANCH   1  25
ATOM     25  O   UNL     1       3.886   2.767  19.537  0.00  0.00    +0.000 OA
ATOM     26  H   UNL     1       3.664   2.350  20.391  0.00  0.00    +0.000 HD
ENDBRANCH   1  25
TORSDOF 5
ENDMDL
MODEL 3
REMARK VINA RESULT:      -8.2      2.862      3.726
REMARK  Name = 
REMARK  5 active torsions:
REMARK  status: ('A' for Active; 'I' for Inactive)
REMARK    1  A    between atoms: O_1  and  N_2
REMARK    2  A    between atoms: C_3  and  C_4
REMARK    3  A    between atoms: C_3  and  C_17
REMARK    4  A    between atoms: N_7  and  C_8
REMARK    5  A    between atoms: C_23  and  O_24
REMARK                            x       y       z     vdW  Elec       q    Type
REMARK                         _______ _______ _______ _____ _____    ______ ____
ROOT
ATOM      1  N   UNL     1       3.684   2.606  19.360  0.00  0.00    +0.000 NA
ATOM      2  C   UNL     1       3.946   3.774  18.841  0.00  0.00    +0.000 C 
ENDROOT
BRANCH   2   3
ATOM      3  C   UNL     1       4.986   4.087  17.807  0.00  0.00    +0.000 A 
ATOM      4  C   UNL     1       4.671   3.934  16.450  0.00  0.00    +0.000 A 
ATOM      5  C   UNL     1       5.617   4.239  15.476  0.00  0.00    +0.000 A 
ATOM      6  F   UNL     1       5.290   4.127  14.182  0.00  0.00    +0.000 F 
ATOM      7  C   UNL     1       6.895   4.659  15.820  0.00  0.00    +0.000 A 
ATOM      8  C   UNL     1       7.236   4.790  17.165  0.00  0.00    +0.000 A 
ATOM      9  C   UNL     1       6.281   4.522  18.151  0.00  0.00    +0.000 A 
BRANCH   9  10
ATOM     10  O   UNL     1       6.629   4.708  19.460  0.00  0.00    +0.000 OA
ATOM     11  H   UNL     1       6.757   5.654  19.640  0.00  0.00    +0.000 HD
ENDBRANCH   9  10
ENDBRANCH   2   3
BRANCH   2  12
ATOM     12  C   UNL     1       3.144   4.856  19.395  0.00  0.00    +0.000 A 
ATOM     13  C   UNL     1       2.307   4.843  20.532  0.00  0.00    +0.000 A 
ATOM     14  N   UNL     1       1.724   6.020  20.767  0.00  0.00    +0.000 NA
ATOM     15  N   UNL     1       2.162   6.819  19.763  0.00  0.00    +0.000 N 
ATOM     16  C   UNL     1       3.046   6.155  18.943  0.00  0.00    +0.000 A 
BRANCH  15  17
ATOM     17  C   UNL     1       1.729   8.169  19.650  0.00  0.00    +0.000 A 
ATOM     18  C   UNL     1       1.877   8.852  18.429  0.00  0.00    +0.000 A 
ATOM     19  C   UNL     1       1.432  10.171  18.305  0.00  0.00    +0.000 A 
ATOM     20  C   UNL     1       0.860  10.812  19.399  0.00  0.00    +0.000 A 
ATOM     21  F   UNL     1       0.435  12.076  19.274  0.00  0.00    +0.000 F 
ATOM     22  C   UNL     1       0.729  10.147  20.611  0.00  0.00    +0.000 A 
ATOM     23  F   UNL     1       0.189  10.767  21.669  0.00  0.00    +0.000 F 
ATOM     24  C   UNL     1       1.158   8.829  20.749  0.00  0.00    +0.000 A 
ENDBRANCH  15  17
ENDBRANCH   2  12
BRANCH   1  25
ATOM     25  O   UNL     1       4.435   1.560  18.818  0.00  0.00    +0.000 OA
ATOM     26  H   UNL     1       5.000   2.025  18.171  0.00  0.00    +0.000 HD
ENDBRANCH   1  25
TORSDOF 5
ENDMDL
MODEL 4
REMARK VINA RESULT:      -8.2      0.543      1.366
REMARK  Name = 
REMARK  5 active torsions:
REMARK  status: ('A' for Active; 'I' for Inactive)
REMARK    1  A    between atoms: O_1  and  N_2
REMARK    2  A    between atoms: C_3  and  C_4
REMARK    3  A    between atoms: C_3  and  C_17
REMARK    4  A    between atoms: N_7  and  C_8
REMARK    5  A    between atoms: C_23  and  O_24
REMARK                            x       y       z     vdW  Elec       q    Type
REMARK                         _______ _______ _______ _____ _____    ______ ____
ROOT
ATOM      1  N   UNL     1       4.511   6.315  17.054  0.00  0.00    +0.000 NA
ATOM      2  C   UNL     1       3.573   6.029  17.914  0.00  0.00    +0.000 C 
ENDROOT
BRANCH   2   3
ATOM      3  C   UNL     1       3.217   4.671  18.440  0.00  0.00    +0.000 A 
ATOM      4  C   UNL     1       1.927   4.167  18.220  0.00  0.00    +0.000 A 
ATOM      5  C   UNL     1       1.585   2.901  18.682  0.00  0.00    +0.000 A 
ATOM      6  F   UNL     1       0.363   2.414  18.430  0.00  0.00    +0.000 F 
ATOM      7  C   UNL     1       2.488   2.128  19.403  0.00  0.00    +0.000 A 
ATOM      8  C   UNL     1       3.765   2.624  19.657  0.00  0.00    +0.000 A 
ATOM      9  C   UNL     1       4.132   3.880  19.162  0.00  0.00    +0.000 A 
BRANCH   9  10
ATOM     10  O   UNL     1       5.408   4.319  19.384  0.00  0.00    +0.000 OA
ATOM     11  H   UNL     1       5.975   4.091  18.629  0.00  0.00    +0.000 HD
ENDBRANCH   9  10
ENDBRANCH   2   3
BRANCH   2  12
ATOM     12  C   UNL     1       2.794   7.184  18.339  0.00  0.00    +0.000 A 
ATOM     13  C   UNL     1       2.485   8.356  17.616  0.00  0.00    +0.000 A 
ATOM     14  N   UNL     1       1.733   9.215  18.306  0.00  0.00    +0.000 NA
ATOM     15  N   UNL     1       1.558   8.616  19.510  0.00  0.00    +0.000 N 
ATOM     16  C   UNL     1       2.155   7.377  19.545  0.00  0.00    +0.000 A 
BRANCH  15  17
ATOM     17  C   UNL     1       0.820   9.249  20.549  0.00  0.00    +0.000 A 
ATOM     18  C   UNL     1       0.932   8.780  21.871  0.00  0.00    +0.000 A 
ATOM     19  C   UNL     1       0.228   9.412  22.900  0.00  0.00    +0.000 A 
ATOM     20  C   UNL     1      -0.599  10.492  22.609  0.00  0.00    +0.000 A 
ATOM     21  F   UNL     1      -1.271  11.093  23.599  0.00  0.00    +0.000 F 
ATOM     22  C   UNL     1      -0.727  10.944  21.302  0.00  0.00    +0.000 A 
ATOM     23  F   UNL     1      -1.532  11.977  21.019  0.00  0.00    +0.000 F 
ATOM     24  C   UNL     1      -0.024  10.333  20.266  0.00  0.00    +0.000 A 
ENDBRANCH  15  17
ENDBRANCH   2  12
BRANCH   1  25
ATOM     25  O   UNL     1       5.276   5.215  16.657  0.00  0.00    +0.000 OA
ATOM     26  H   UNL     1       5.364   5.360  15.696  0.00  0.00    +0.000 HD
ENDBRANCH   1  25
TORSDOF 5
ENDMDL
MODEL 5
REMARK VINA RESULT:      -8.2      3.089      3.979
REMARK  Name = 
REMARK  5 active torsions:
REMARK  status: ('A' for Active; 'I' for Inactive)
REMARK    1  A    between atoms: O_1  and  N_2
REMARK    2  A    between atoms: C_3  and  C_4
REMARK    3  A    between atoms: C_3  and  C_17
REMARK    4  A    between atoms: N_7  and  C_8
REMARK    5  A    between atoms: C_23  and  O_24
REMARK                            x       y       z     vdW  Elec       q    Type
REMARK                         _______ _______ _______ _____ _____    ______ ____
ROOT
ATOM      1  N   UNL     1       4.183   2.680  20.099  0.00  0.00    +0.000 NA
ATOM      2  C   UNL     1       4.234   3.781  19.402  0.00  0.00    +0.000 C 
ENDROOT
BRANCH   2   3
ATOM      3  C   UNL     1       5.189   4.100  18.291  0.00  0.00    +0.000 A 
ATOM      4  C   UNL     1       4.825   3.807  16.969  0.00  0.00    +0.000 A 
ATOM      5  C   UNL     1       5.690   4.115  15.924  0.00  0.00    +0.000 A 
ATOM      6  F   UNL     1       5.314   3.869  14.662  0.00  0.00    +0.000 F 
ATOM      7  C   UNL     1       6.939   4.675  16.163  0.00  0.00    +0.000 A 
ATOM      8  C   UNL     1       7.331   4.945  17.473  0.00  0.00    +0.000 A 
ATOM      9  C   UNL     1       6.453   4.675  18.528  0.00  0.00    +0.000 A 
BRANCH   9  10
ATOM     10  O   UNL     1       6.845   4.998  19.798  0.00  0.00    +0.000 OA
ATOM     11  H   UNL     1       6.426   5.830  20.074  0.00  0.00    +0.000 HD
ENDBRANCH   9  10
ENDBRANCH   2   3
BRANCH   2  12
ATOM     12  C   UNL     1       3.267   4.787  19.821  0.00  0.00    +0.000 A 
ATOM     13  C   UNL     1       2.197   4.659  20.732  0.00  0.00    +0.000 A 
ATOM     14  N   UNL     1       1.510   5.791  20.897  0.00  0.00    +0.000 NA
ATOM     15  N   UNL     1       2.118   6.676  20.069  0.00  0.00    +0.000 N 
ATOM     16  C   UNL     1       3.201   6.109  19.436  0.00  0.00    +0.000 A 
BRANCH  15  17
ATOM     17  C   UNL     1       1.646   8.012  19.941  0.00  0.00    +0.000 A 
ATOM     18  C   UNL     1       0.919   8.600  20.993  0.00  0.00    +0.000 A 
ATOM     19  C   UNL     1       0.472   9.919  20.884  0.00  0.00    +0.000 A 
ATOM     20  C   UNL     1       0.731  10.642  19.723  0.00  0.00    +0.000 A 
ATOM     21  F   UNL     1       0.299  11.906  19.624  0.00  0.00    +0.000 F 
ATOM     22  C   UNL     1       1.431  10.058  18.676  0.00  0.00    +0.000 A 
ATOM     23  F   UNL     1       1.670  10.748  17.553  0.00  0.00    +0.000 F 
ATOM     24  C   UNL     1       1.892   8.747  18.773  0.00  0.00    +0.000 A 
ENDBRANCH  15  17
ENDBRANCH   2  12
BRANCH   1  25
ATOM     25  O   UNL     1       5.093   1.702  19.689  0.00  0.00    +0.000 OA
ATOM     26  H   UNL     1       5.847   2.240  19.380  0.00  0.00    +0.000 HD
ENDBRANCH   1  25
TORSDOF 5
ENDMDL
MODEL 6
REMARK VINA RESULT:      -8.1      2.461      3.222
REMARK  Name = 
REMARK  5 active torsions:
REMARK  status: ('A' for Active; 'I' for Inactive)
REMARK    1  A    between atoms: O_1  and  N_2
REMARK    2  A    between atoms: C_3  and  C_4
REMARK    3  A    between atoms: C_3  and  C_17
REMARK    4  A    between atoms: N_7  and  C_8
REMARK    5  A    between atoms: C_23  and  O_24
REMARK                            x       y       z     vdW  Elec       q    Type
REMARK                         _______ _______ _______ _____ _____    ______ ____
ROOT
ATOM      1  N   UNL     1       3.311   3.977  19.746  0.00  0.00    +0.000 NA
ATOM      2  C   UNL     1       3.770   4.888  18.933  0.00  0.00    +0.000 C 
ENDROOT
BRANCH   2   3
ATOM      3  C   UNL     1       4.920   4.747  17.980  0.00  0.00    +0.000 A 
ATOM      4  C   UNL     1       4.662   4.455  16.633  0.00  0.00    +0.000 A 
ATOM      5  C   UNL     1       5.716   4.342  15.732  0.00  0.00    +0.000 A 
ATOM      6  F   UNL     1       5.454   4.103  14.440  0.00  0.00    +0.000 F 
ATOM      7  C   UNL     1       7.036   4.471  16.145  0.00  0.00    +0.000 A 
ATOM      8  C   UNL     1       7.312   4.732  17.485  0.00  0.00    +0.000 A 
ATOM      9  C   UNL     1       6.259   4.887  18.393  0.00  0.00    +0.000 A 
BRANCH   9  10
ATOM     10  O   UNL     1       6.560   5.192  19.692  0.00  0.00    +0.000 OA
ATOM     11  H   UNL     1       6.336   6.119  19.876  0.00  0.00    +0.000 HD
ENDBRANCH   9  10
ENDBRANCH   2   3
BRANCH   2  12
ATOM     12  C   UNL     1       3.083   6.168  19.036  0.00  0.00    +0.000 A 
ATOM     13  C   UNL     1       3.014   7.213  18.090  0.00  0.00    +0.000 A 
ATOM     14  N   UNL     1       2.285   8.250  18.506  0.00  0.00    +0.000 NA
ATOM     15  N   UNL     1       1.882   7.899  19.752  0.00  0.00    +0.000 N 
ATOM     16  C   UNL     1       2.318   6.637  20.083  0.00  0.00    +0.000 A 
BRANCH  15  17
ATOM     17  C   UNL     1       1.093   8.776  20.547  0.00  0.00    +0.000 A 
ATOM     18  C   UNL     1       1.089   8.637  21.947  0.00  0.00    +0.000 A 
ATOM     19  C   UNL     1       0.335   9.510  22.736  0.00  0.00    +0.000 A 
ATOM     20  C   UNL     1      -0.427  10.505  22.130  0.00  0.00    +0.000 A 
ATOM     21  F   UNL     1      -1.147  11.338  22.892  0.00  0.00    +0.000 F 
ATOM     22  C   UNL     1      -0.439  10.632  20.747  0.00  0.00    +0.000 A 
ATOM     23  F   UNL     1      -1.181  11.582  20.162  0.00  0.00    +0.000 F 
ATOM     24  C   UNL     1       0.315   9.777  19.947  0.00  0.00    +0.000 A 
ENDBRANCH  15  17
ENDBRANCH   2  12
BRANCH   1  25
ATOM     25  O   UNL     1       3.951   2.740  19.637  0.00  0.00    +0.000 OA
ATOM     26  H   UNL     1       4.885   3.001  19.519  0.00  0.00    +0.000 HD
ENDBRANCH   1  25
TORSDOF 5
ENDMDL
MODEL 7
REMARK VINA RESULT:      -8.1      1.305      1.693
REMARK  Name = 
REMARK  5 active torsions:
REMARK  status: ('A' for Active; 'I' for Inactive)
REMARK    1  A    between atoms: O_1  and  N_2
REMARK    2  A    between atoms: C_3  and  C_4
REMARK    3  A    between atoms: C_3  and  C_17
REMARK    4  A    between atoms: N_7  and  C_8
REMARK    5  A    between atoms: C_23  and  O_24
REMARK                            x       y       z     vdW  Elec       q    Type
REMARK                         _______ _______ _______ _____ _____    ______ ____
ROOT
ATOM      1  N   UNL     1       4.202   5.932  17.178  0.00  0.00    +0.000 NA
ATOM      2  C   UNL     1       3.262   5.795  18.071  0.00  0.00    +0.000 C 
ENDROOT
BRANCH   2   3
ATOM      3  C   UNL     1       2.757   4.511  18.659  0.00  0.00    +0.000 A 
ATOM      4  C   UNL     1       3.409   3.964  19.773  0.00  0.00    +0.000 A 
ATOM      5  C   UNL     1       2.943   2.785  20.344  0.00  0.00    +0.000 A 
ATOM      6  F   UNL     1       3.549   2.295  21.433  0.00  0.00    +0.000 F 
ATOM      7  C   UNL     1       1.858   2.103  19.806  0.00  0.00    +0.000 A 
ATOM      8  C   UNL     1       1.215   2.616  18.681  0.00  0.00    +0.000 A 
ATOM      9  C   UNL     1       1.653   3.821  18.122  0.00  0.00    +0.000 A 
BRANCH   9  10
ATOM     10  O   UNL     1       0.971   4.325  17.049  0.00  0.00    +0.000 OA
ATOM     11  H   UNL     1       0.883   3.645  16.361  0.00  0.00    +0.000 HD
ENDBRANCH   9  10
ENDBRANCH   2   3
BRANCH   2  12
ATOM     12  C   UNL     1       2.642   7.052  18.468  0.00  0.00    +0.000 A 
ATOM     13  C   UNL     1       2.612   8.281  17.775  0.00  0.00    +0.000 A 
ATOM     14  N   UNL     1       1.941   9.234  18.425  0.00  0.00    +0.000 NA
ATOM     15  N   UNL     1       1.539   8.637  19.574  0.00  0.00    +0.000 N 
ATOM     16  C   UNL     1       1.916   7.314  19.611  0.00  0.00    +0.000 A 
BRANCH  15  17
ATOM     17  C   UNL     1       0.807   9.354  20.561  0.00  0.00    +0.000 A 
ATOM     18  C   UNL     1       0.036  10.470  20.186  0.00  0.00    +0.000 A 
ATOM     19  C   UNL     1      -0.705  11.165  21.146  0.00  0.00    +0.000 A 
ATOM     20  C   UNL     1      -0.660  10.761  22.477  0.00  0.00    +0.000 A 
ATOM     21  F   UNL     1      -1.372  11.430  23.393  0.00  0.00    +0.000 F 
ATOM     22  C   UNL     1       0.115   9.671  22.853  0.00  0.00    +0.000 A 
ATOM     23  F   UNL     1       0.168   9.289  24.136  0.00  0.00    +0.000 F 
ATOM     24  C   UNL     1       0.851   8.962  21.907  0.00  0.00    +0.000 A 
ENDBRANCH  15  17
ENDBRANCH   2  12
BRANCH   1  25
ATOM     25  O   UNL     1       4.815   4.732  16.807  0.00  0.00    +0.000 OA
ATOM     26  H   UNL     1       5.535   4.658  17.462  0.00  0.00    +0.000 HD
ENDBRANCH   1  25
TORSDOF 5
ENDMDL
MODEL 8
REMARK VINA RESULT:      -8.0      2.471      3.314
REMARK  Name = 
REMARK  5 active torsions:
REMARK  status: ('A' for Active; 'I' for Inactive)
REMARK    1  A    between atoms: O_1  and  N_2
REMARK    2  A    between atoms: C_3  and  C_4
REMARK    3  A    between atoms: C_3  and  C_17
REMARK    4  A    between atoms: N_7  and  C_8
REMARK    5  A    between atoms: C_23  and  O_24
REMARK                            x       y       z     vdW  Elec       q    Type
REMARK                         _______ _______ _______ _____ _____    ______ ____
ROOT
ATOM      1  N   UNL     1       2.794   4.892  17.828  0.00  0.00    +0.000 NA
ATOM      2  C   UNL     1       3.531   5.937  18.084  0.00  0.00    +0.000 C 
ENDROOT
BRANCH   2   3
ATOM      3  C   UNL     1       5.029   6.003  18.090  0.00  0.00    +0.000 A 
ATOM      4  C   UNL     1       5.727   5.653  19.255  0.00  0.00    +0.000 A 
ATOM      5  C   UNL     1       7.117   5.689  19.271  0.00  0.00    +0.000 A 
ATOM      6  F   UNL     1       7.773   5.314  20.377  0.00  0.00    +0.000 F 
ATOM      7  C   UNL     1       7.841   6.108  18.162  0.00  0.00    +0.000 A 
ATOM      8  C   UNL     1       7.164   6.487  17.004  0.00  0.00    +0.000 A 
ATOM      9  C   UNL     1       5.768   6.418  16.964  0.00  0.00    +0.000 A 
BRANCH   9  10
ATOM     10  O   UNL     1       5.134   6.748  15.798  0.00  0.00    +0.000 OA
ATOM     11  H   UNL     1       4.346   7.284  15.987  0.00  0.00    +0.000 HD
ENDBRANCH   9  10
ENDBRANCH   2   3
BRANCH   2  12
ATOM     12  C   UNL     1       2.765   7.124  18.440  0.00  0.00    +0.000 A 
ATOM     13  C   UNL     1       2.477   8.258  17.652  0.00  0.00    +0.000 A 
ATOM     14  N   UNL     1       1.733   9.164  18.289  0.00  0.00    +0.000 NA
ATOM     15  N   UNL     1       1.542   8.634  19.522  0.00  0.00    +0.000 N 
ATOM     16  C   UNL     1       2.121   7.391  19.630  0.00  0.00    +0.000 A 
BRANCH  15  17
ATOM     17  C   UNL     1       0.806   9.333  20.520  0.00  0.00    +0.000 A 
ATOM     18  C   UNL     1       0.018  10.442  20.160  0.00  0.00    +0.000 A 
ATOM     19  C   UNL     1      -0.726  11.118  21.130  0.00  0.00    +0.000 A 
ATOM     20  C   UNL     1      -0.668  10.703  22.458  0.00  0.00    +0.000 A 
ATOM     21  F   UNL     1      -1.383  11.355  23.383  0.00  0.00    +0.000 F 
ATOM     22  C   UNL     1       0.123   9.620  22.819  0.00  0.00    +0.000 A 
ATOM     23  F   UNL     1       0.188   9.227  24.098  0.00  0.00    +0.000 F 
ATOM     24  C   UNL     1       0.862   8.929  21.862  0.00  0.00    +0.000 A 
ENDBRANCH  15  17
ENDBRANCH   2  12
BRANCH   1  25
ATOM     25  O   UNL     1       3.521   3.755  17.466  0.00  0.00    +0.000 OA
ATOM     26  H   UNL     1       4.202   3.715  18.165  0.00  0.00    +0.000 HD
ENDBRANCH   1  25
TORSDOF 5
ENDMDL
MODEL 9
REMARK VINA RESULT:      -8.0      2.600      3.286
REMARK  Name = 
REMARK  5 active torsions:
REMARK  status: ('A' for Active; 'I' for Inactive)
REMARK    1  A    between atoms: O_1  and  N_2
REMARK    2  A    between atoms: C_3  and  C_4
REMARK    3  A    between atoms: C_3  and  C_17
REMARK    4  A    between atoms: N_7  and  C_8
REMARK    5  A    between atoms: C_23  and  O_24
REMARK                            x       y       z     vdW  Elec       q    Type
REMARK                         _______ _______ _______ _____ _____    ______ ____
ROOT
ATOM      1  N   UNL     1       2.903   4.997  17.582  0.00  0.00    +0.000 NA
ATOM      2  C   UNL     1       3.606   6.009  18.009  0.00  0.00    +0.000 C 
ENDROOT
BRANCH   2   3
ATOM      3  C   UNL     1       5.095   6.060  18.188  0.00  0.00    +0.000 A 
ATOM      4  C   UNL     1       5.837   7.020  17.486  0.00  0.00    +0.000 A 
ATOM      5  C   UNL     1       7.216   7.095  17.656  0.00  0.00    +0.000 A 
ATOM      6  F   UNL     1       7.909   8.042  17.011  0.00  0.00    +0.000 F 
ATOM      7  C   UNL     1       7.890   6.205  18.483  0.00  0.00    +0.000 A 
ATOM      8  C   UNL     1       7.172   5.225  19.167  0.00  0.00    +0.000 A 
ATOM      9  C   UNL     1       5.781   5.166  19.033  0.00  0.00    +0.000 A 
BRANCH   9  10
ATOM     10  O   UNL     1       5.098   4.226  19.755  0.00  0.00    +0.000 OA
ATOM     11  H   UNL     1       4.551   4.658  20.431  0.00  0.00    +0.000 HD
ENDBRANCH   9  10
ENDBRANCH   2   3
BRANCH   2  12
ATOM     12  C   UNL     1       2.805   7.169  18.377  0.00  0.00    +0.000 A 
ATOM     13  C   UNL     1       2.450   8.284  17.588  0.00  0.00    +0.000 A 
ATOM     14  N   UNL     1       1.689   9.166  18.239  0.00  0.00    +0.000 NA
ATOM     15  N   UNL     1       1.555   8.641  19.481  0.00  0.00    +0.000 N 
ATOM     16  C   UNL     1       2.186   7.422  19.582  0.00  0.00    +0.000 A 
BRANCH  15  17
ATOM     17  C   UNL     1       0.821   9.319  20.494  0.00  0.00    +0.000 A 
ATOM     18  C   UNL     1       0.008  10.416  20.152  0.00  0.00    +0.000 A 
ATOM     19  C   UNL     1      -0.734  11.072  21.138  0.00  0.00    +0.000 A 
ATOM     20  C   UNL     1      -0.649  10.650  22.462  0.00  0.00    +0.000 A 
ATOM     21  F   UNL     1      -1.362  11.284  23.402  0.00  0.00    +0.000 F 
ATOM     22  C   UNL     1       0.168   9.581  22.804  0.00  0.00    +0.000 A 
ATOM     23  F   UNL     1       0.259   9.181  24.080  0.00  0.00    +0.000 F 
ATOM     24  C   UNL     1       0.905   8.909  21.832  0.00  0.00    +0.000 A 
ENDBRANCH  15  17
ENDBRANCH   2  12
BRANCH   1  25
ATOM     25  O   UNL     1       3.667   3.889  17.208  0.00  0.00    +0.000 OA
ATOM     26  H   UNL     1       4.482   4.305  16.869  0.00  0.00    +0.000 HD
ENDBRANCH   1  25
TORSDOF 5
ENDMDL
