MODEL 1
REMARK VINA RESULT:      -8.3      0.000      0.000
REMARK  Name = 
REMARK  7 active torsions:
REMARK  status: ('A' for Active; 'I' for Inactive)
REMARK    1  A    between atoms: C_1  and  C_2
REMARK    2  A    between atoms: C_2  and  N_3
REMARK    3  A    between atoms: N_5  and  C_6
REMARK    4  A    between atoms: C_6  and  C_7
REMARK    5  A    between atoms: N_11  and  C_12
REMARK    6  A    between atoms: N_16  and  C_17
REMARK    7  A    between atoms: C_21  and  C_22
REMARK                            x       y       z     vdW  Elec       q    Type
REMARK                         _______ _______ _______ _____ _____    ______ ____
ROOT
ATOM      1  N   UNL     1       2.775   3.978  20.083  0.00  0.00    +0.000 NA
ATOM      2  C   UNL     1       2.955   5.106  19.475  0.00  0.00    +0.000 C 
ATOM      3  N   UNL     1       2.735   6.333  20.051  0.00  0.00    +0.000 N 
ATOM      4  N   UNL     1       3.403   5.101  18.174  0.00  0.00    +0.000 N 
ATOM      5  C   UNL     1       4.311   6.110  17.612  0.00  0.00    +0.000 C 
ATOM      6  C   UNL     1       5.629   5.539  17.082  0.00  0.00    +0.000 C 
ATOM      7  N   UNL     1       5.359   4.433  16.168  0.00  0.00    +0.000 N 
ATOM      8  C   UNL     1       4.559   3.356  16.776  0.00  0.00    +0.000 C 
ATOM      9  C   UNL     1       3.222   3.911  17.309  0.00  0.00    +0.000 C 
ATOM     10  H   UNL     1       3.471   6.583  20.706  0.00  0.00    +0.000 HD
ENDROOT
BRANCH   7  11
ATOM     11  C   UNL     1       5.925   4.370  14.915  0.00  0.00    +0.000 A 
ATOM     12  C   UNL     1       7.077   5.102  14.584  0.00  0.00    +0.000 A 
ATOM     13  C   UNL     1       7.631   5.076  13.303  0.00  0.00    +0.000 A 
ATOM     14  C   UNL     1       7.040   4.308  12.306  0.00  0.00    +0.000 A 
ATOM     15  C   UNL     1       5.896   3.564  12.592  0.00  0.00    +0.000 A 
ATOM     16  C   UNL     1       5.220   2.751  11.530  0.00  0.00    +0.000 C 
ATOM     17  C   UNL     1       5.355   3.604  13.890  0.00  0.00    +0.000 A 
ENDBRANCH   7  11
BRANCH   1  19
ATOM     18  C   UNL     1       1.459   2.704  21.657  0.00  0.00    +0.000 C 
ATOM     19  C   UNL     1       2.276   3.979  21.454  0.00  0.00    +0.000 C 
ENDBRANCH   1  19
BRANCH   3  20
ATOM     20  C   UNL     1       2.247   7.523  19.356  0.00  0.00    +0.000 C 
BRANCH  20  21
ATOM     21  C   UNL     1       1.453   8.476  20.209  0.00  0.00    +0.000 A 
ATOM     22  N   UNL     1       1.377   8.490  21.530  0.00  0.00    +0.000 NA
ATOM     23  C   UNL     1       0.688   9.639  21.799  0.00  0.00    +0.000 A 
ATOM     24  N   UNL     1       0.311  10.334  20.727  0.00  0.00    +0.000 NA
ATOM     25  N   UNL     1       0.781   9.570  19.725  0.00  0.00    +0.000 N 
ATOM     26  C   UNL     1       0.601   9.988  18.358  0.00  0.00    +0.000 C 
ENDBRANCH  20  21
ENDBRANCH   3  20
TORSDOF 4
ENDMDL
MODEL 2
REMARK VINA RESULT:      -7.8      0.312      1.379
REMARK  Name = 
REMARK  7 active torsions:
REMARK  status: ('A' for Active; 'I' for Inactive)
REMARK    1  A    between atoms: C_1  and  C_2
REMARK    2  A    between atoms: C_2  and  N_3
REMARK    3  A    between atoms: N_5  and  C_6
REMARK    4  A    between atoms: C_6  and  C_7
REMARK    5  A    between atoms: N_11  and  C_12
REMARK    6  A    between atoms: N_16  and  C_17
REMARK    7  A    between atoms: C_21  and  C_22
REMARK                            x       y       z     vdW  Elec       q    Type
REMARK                         _______ _______ _______ _____ _____    ______ ____
ROOT
ATOM      1  N   UNL     1       2.804   3.975  20.026  0.00  0.00    +0.000 NA
ATOM      2  C   UNL     1       2.989   5.108  19.430  0.00  0.00    +0.000 C 
ATOM      3  N   UNL     1       2.799   6.330  20.027  0.00  0.00    +0.000 N 
ATOM      4  N   UNL     1       3.410   5.115  18.120  0.00  0.00    +0.000 N 
ATOM      5  C   UNL     1       4.320   6.118  17.553  0.00  0.00    +0.000 C 
ATOM      6  C   UNL     1       5.619   5.535  16.988  0.00  0.00    +0.000 C 
ATOM      7  N   UNL     1       5.313   4.446  16.064  0.00  0.00    +0.000 N 
ATOM      8  C   UNL     1       4.509   3.373  16.675  0.00  0.00    +0.000 C 
ATOM      9  C   UNL     1       3.192   3.940  17.243  0.00  0.00    +0.000 C 
ATOM     10  H   UNL     1       3.553   6.560  20.671  0.00  0.00    +0.000 HD
ENDROOT
BRANCH   7  11
ATOM     11  C   UNL     1       5.852   4.392  14.799  0.00  0.00    +0.000 A 
ATOM     12  C   UNL     1       5.335   3.543  13.808  0.00  0.00    +0.000 A 
ATOM     13  C   UNL     1       5.904   3.451  12.536  0.00  0.00    +0.000 A 
ATOM     14  C   UNL     1       7.021   4.216  12.219  0.00  0.00    +0.000 A 
ATOM     15  C   UNL     1       7.566   5.074  13.173  0.00  0.00    +0.000 A 
ATOM     16  C   UNL     1       8.787   5.888  12.870  0.00  0.00    +0.000 C 
ATOM     17  C   UNL     1       6.976   5.151  14.448  0.00  0.00    +0.000 A 
ENDBRANCH   7  11
BRANCH   1  19
ATOM     18  C   UNL     1       1.507   2.696  21.611  0.00  0.00    +0.000 C 
ATOM     19  C   UNL     1       2.334   3.964  21.408  0.00  0.00    +0.000 C 
ENDBRANCH   1  19
BRANCH   3  20
ATOM     20  C   UNL     1       2.315   7.537  19.359  0.00  0.00    +0.000 C 
BRANCH  20  21
ATOM     21  C   UNL     1       1.465   8.439  20.214  0.00  0.00    +0.000 A 
ATOM     22  N   UNL     1       1.322   8.389  21.529  0.00  0.00    +0.000 NA
ATOM     23  C   UNL     1       0.604   9.515  21.815  0.00  0.00    +0.000 A 
ATOM     24  N   UNL     1       0.271  10.256  20.759  0.00  0.00    +0.000 NA
ATOM     25  N   UNL     1       0.803   9.547  19.748  0.00  0.00    +0.000 N 
ATOM     26  C   UNL     1       0.686  10.027  18.395  0.00  0.00    +0.000 C 
ENDBRANCH  20  21
ENDBRANCH   3  20
TORSDOF 4
ENDMDL
MODEL 3
REMARK VINA RESULT:      -7.5      0.852      1.335
REMARK  Name = 
REMARK  7 active torsions:
REMARK  status: ('A' for Active; 'I' for Inactive)
REMARK    1  A    between atoms: C_1  and  C_2
REMARK    2  A    between atoms: C_2  and  N_3
REMARK    3  A    between atoms: N_5  and  C_6
REMARK    4  A    between atoms: C_6  and  C_7
REMARK    5  A    between atoms: N_11  and  C_12
REMARK    6  A    between atoms: N_16  and  C_17
REMARK    7  A    between atoms: C_21  and  C_22
REMARK                            x       y       z     vdW  Elec       q    Type
REMARK                         _______ _______ _______ _____ _____    ______ ____
ROOT
ATOM      1  N   UNL     1       2.923   4.669  19.742  0.00  0.00    +0.000 NA
ATOM      2  C   UNL     1       2.967   5.681  18.937  0.00  0.00    +0.000 C 
ATOM      3  N   UNL     1       2.573   6.952  19.277  0.00  0.00    +0.000 N 
ATOM      4  N   UNL     1       3.442   5.499  17.658  0.00  0.00    +0.000 N 
ATOM      5  C   UNL     1       4.220   6.502  16.918  0.00  0.00    +0.000 C 
ATOM      6  C   UNL     1       5.614   6.026  16.500  0.00  0.00    +0.000 C 
ATOM      7  N   UNL     1       5.514   4.746  15.805  0.00  0.00    +0.000 N 
ATOM      8  C   UNL     1       4.849   3.700  16.602  0.00  0.00    +0.000 C 
ATOM      9  C   UNL     1       3.439   4.158  17.026  0.00  0.00    +0.000 C 
ATOM     10  H   UNL     1       3.255   7.413  19.874  0.00  0.00    +0.000 HD
ENDROOT
BRANCH   7  11
ATOM     11  C   UNL     1       6.112   4.532  14.584  0.00  0.00    +0.000 A 
ATOM     12  C   UNL     1       7.235   5.266  14.169  0.00  0.00    +0.000 A 
ATOM     13  C   UNL     1       7.820   5.084  12.915  0.00  0.00    +0.000 A 
ATOM     14  C   UNL     1       7.290   4.152  12.030  0.00  0.00    +0.000 A 
ATOM     15  C   UNL     1       6.176   3.401  12.401  0.00  0.00    +0.000 A 
ATOM     16  C   UNL     1       5.564   2.411  11.457  0.00  0.00    +0.000 C 
ATOM     17  C   UNL     1       5.602   3.599  13.671  0.00  0.00    +0.000 A 
ENDBRANCH   7  11
BRANCH   1  19
ATOM     18  C   UNL     1       2.072   3.474  21.658  0.00  0.00    +0.000 C 
ATOM     19  C   UNL     1       2.398   4.853  21.090  0.00  0.00    +0.000 C 
ENDBRANCH   1  19
BRANCH   3  20
ATOM     20  C   UNL     1       1.947   7.919  18.376  0.00  0.00    +0.000 C 
BRANCH  20  21
ATOM     21  C   UNL     1       1.575   9.231  19.012  0.00  0.00    +0.000 A 
ATOM     22  N   UNL     1       1.586  10.425  18.442  0.00  0.00    +0.000 NA
ATOM     23  C   UNL     1       1.000  11.231  19.377  0.00  0.00    +0.000 A 
ATOM     24  N   UNL     1       0.642  10.620  20.505  0.00  0.00    +0.000 NA
ATOM     25  N   UNL     1       1.036   9.355  20.268  0.00  0.00    +0.000 N 
ATOM     26  C   UNL     1       0.805   8.334  21.258  0.00  0.00    +0.000 C 
ENDBRANCH  20  21
ENDBRANCH   3  20
TORSDOF 4
ENDMDL
MODEL 4
REMARK VINA RESULT:      -7.4      2.147      8.240
REMARK  Name = 
REMARK  7 active torsions:
REMARK  status: ('A' for Active; 'I' for Inactive)
REMARK    1  A    between atoms: C_1  and  C_2
REMARK    2  A    between atoms: C_2  and  N_3
REMARK    3  A    between atoms: N_5  and  C_6
REMARK    4  A    between atoms: C_6  and  C_7
REMARK    5  A    between atoms: N_11  and  C_12
REMARK    6  A    between atoms: N_16  and  C_17
REMARK    7  A    between atoms: C_21  and  C_22
REMARK                            x       y       z     vdW  Elec       q    Type
REMARK                         _______ _______ _______ _____ _____    ______ ____
ROOT
ATOM      1  N   UNL     1       1.839   5.339  19.905  0.00  0.00    +0.000 NA
ATOM      2  C   UNL     1       2.568   6.089  19.143  0.00  0.00    +0.000 C 
ATOM      3  N   UNL     1       3.488   5.607  18.245  0.00  0.00    +0.000 N 
ATOM      4  N   UNL     1       2.425   7.456  19.215  0.00  0.00    +0.000 N 
ATOM      5  C   UNL     1       2.548   8.358  18.062  0.00  0.00    +0.000 C 
ATOM      6  C   UNL     1       1.288   9.180  17.775  0.00  0.00    +0.000 C 
ATOM      7  N   UNL     1       0.849   9.856  18.992  0.00  0.00    +0.000 N 
ATOM      8  C   UNL     1       0.597   8.933  20.113  0.00  0.00    +0.000 C 
ATOM      9  C   UNL     1       1.858   8.102  20.423  0.00  0.00    +0.000 C 
ATOM     10  H   UNL     1       3.043   5.221  17.416  0.00  0.00    +0.000 HD
ENDROOT
BRANCH   7  11
ATOM     11  C   UNL     1       0.575  11.205  19.016  0.00  0.00    +0.000 A 
ATOM     12  C   UNL     1      -0.719  11.694  19.253  0.00  0.00    +0.000 A 
ATOM     13  C   UNL     1      -1.012  13.059  19.237  0.00  0.00    +0.000 A 
ATOM     14  C   UNL     1      -0.005  13.982  18.978  0.00  0.00    +0.000 A 
ATOM     15  C   UNL     1       1.295  13.540  18.739  0.00  0.00    +0.000 A 
ATOM     16  C   UNL     1       2.394  14.509  18.427  0.00  0.00    +0.000 C 
ATOM     17  C   UNL     1       1.568  12.160  18.761  0.00  0.00    +0.000 A 
ENDBRANCH   7  11
BRANCH   1  19
ATOM     18  C   UNL     1       1.562   3.316  21.194  0.00  0.00    +0.000 C 
ATOM     19  C   UNL     1       2.006   3.891  19.850  0.00  0.00    +0.000 C 
ENDBRANCH   1  19
BRANCH   3  20
ATOM     20  C   UNL     1       4.750   6.255  17.889  0.00  0.00    +0.000 C 
BRANCH  20  21
ATOM     21  C   UNL     1       5.755   5.360  17.215  0.00  0.00    +0.000 A 
ATOM     22  N   UNL     1       5.613   4.728  16.061  0.00  0.00    +0.000 NA
ATOM     23  C   UNL     1       6.856   4.213  15.824  0.00  0.00    +0.000 A 
ATOM     24  N   UNL     1       7.762   4.466  16.767  0.00  0.00    +0.000 NA
ATOM     25  N   UNL     1       7.041   5.174  17.656  0.00  0.00    +0.000 N 
ATOM     26  C   UNL     1       7.669   5.677  18.851  0.00  0.00    +0.000 C 
ENDBRANCH  20  21
ENDBRANCH   3  20
TORSDOF 4
ENDMDL
MODEL 5
REMARK VINA RESULT:      -7.3      1.989      7.838
REMARK  Name = 
REMARK  7 active torsions:
REMARK  status: ('A' for Active; 'I' for Inactive)
REMARK    1  A    between atoms: C_1  and  C_2
REMARK    2  A    between atoms: C_2  and  N_3
REMARK    3  A    between atoms: N_5  and  C_6
REMARK    4  A    between atoms: C_6  and  C_7
REMARK    5  A    between atoms: N_11  and  C_12
REMARK    6  A    between atoms: N_16  and  C_17
REMARK    7  A    between atoms: C_21  and  C_22
REMARK                            x       y       z     vdW  Elec       q    Type
REMARK                         _______ _______ _______ _____ _____    ______ ____
ROOT
ATOM      1  N   UNL     1       1.674   4.957  19.901  0.00  0.00    +0.000 NA
ATOM      2  C   UNL     1       2.642   5.590  19.319  0.00  0.00    +0.000 C 
ATOM      3  N   UNL     1       3.681   4.974  18.667  0.00  0.00    +0.000 N 
ATOM      4  N   UNL     1       2.647   6.966  19.336  0.00  0.00    +0.000 N 
ATOM      5  C   UNL     1       3.136   7.801  18.231  0.00  0.00    +0.000 C 
ATOM      6  C   UNL     1       2.080   8.744  17.646  0.00  0.00    +0.000 C 
ATOM      7  N   UNL     1       1.455   9.514  18.717  0.00  0.00    +0.000 N 
ATOM      8  C   UNL     1       0.846   8.672  19.761  0.00  0.00    +0.000 C 
ATOM      9  C   UNL     1       1.897   7.720  20.369  0.00  0.00    +0.000 C 
ATOM     10  H   UNL     1       3.396   4.605  17.763  0.00  0.00    +0.000 HD
ENDROOT
BRANCH   7  11
ATOM     11  C   UNL     1       1.342  10.885  18.658  0.00  0.00    +0.000 A 
ATOM     12  C   UNL     1       2.356  11.690  18.114  0.00  0.00    +0.000 A 
ATOM     13  C   UNL     1       2.267  13.083  18.090  0.00  0.00    +0.000 A 
ATOM     14  C   UNL     1       1.147  13.716  18.618  0.00  0.00    +0.000 A 
ATOM     15  C   UNL     1       0.116  12.955  19.166  0.00  0.00    +0.000 A 
ATOM     16  C   UNL     1      -1.089  13.610  19.770  0.00  0.00    +0.000 C 
ATOM     17  C   UNL     1       0.226  11.552  19.179  0.00  0.00    +0.000 A 
ENDBRANCH   7  11
BRANCH   1  19
ATOM     18  C   UNL     1       1.517   3.035  21.353  0.00  0.00    +0.000 C 
ATOM     19  C   UNL     1       1.679   3.498  19.906  0.00  0.00    +0.000 C 
ENDBRANCH   1  19
BRANCH   3  20
ATOM     20  C   UNL     1       5.057   5.463  18.606  0.00  0.00    +0.000 C 
BRANCH  20  21
ATOM     21  C   UNL     1       5.806   5.099  17.352  0.00  0.00    +0.000 A 
ATOM     22  N   UNL     1       5.565   4.075  16.548  0.00  0.00    +0.000 NA
ATOM     23  C   UNL     1       6.396   4.300  15.487  0.00  0.00    +0.000 A 
ATOM     24  N   UNL     1       7.157   5.389  15.586  0.00  0.00    +0.000 NA
ATOM     25  N   UNL     1       6.789   5.872  16.787  0.00  0.00    +0.000 N 
ATOM     26  C   UNL     1       7.375   7.092  17.281  0.00  0.00    +0.000 C 
ENDBRANCH  20  21
ENDBRANCH   3  20
TORSDOF 4
ENDMDL
MODEL 6
REMARK VINA RESULT:      -7.2      3.890      7.266
REMARK  Name = 
REMARK  7 active torsions:
REMARK  status: ('A' for Active; 'I' for Inactive)
REMARK    1  A    between atoms: C_1  and  C_2
REMARK    2  A    between atoms: C_2  and  N_3
REMARK    3  A    between atoms: N_5  and  C_6
REMARK    4  A    between atoms: C_6  and  C_7
REMARK    5  A    between atoms: N_11  and  C_12
REMARK    6  A    between atoms: N_16  and  C_17
REMARK    7  A    between atoms: C_21  and  C_22
REMARK                            x       y       z     vdW  Elec       q    Type
REMARK                         _______ _______ _______ _____ _____    ______ ____
ROOT
ATOM      1  N   UNL     1       0.216  12.011  21.640  0.00  0.00    +0.000 NA
ATOM      2  C   UNL     1      -0.059  11.585  20.449  0.00  0.00    +0.000 C 
ATOM      3  N   UNL     1      -0.505  12.389  19.429  0.00  0.00    +0.000 N 
ATOM      4  N   UNL     1       0.107  10.250  20.161  0.00  0.00    +0.000 N 
ATOM      5  C   UNL     1       0.556   9.737  18.860  0.00  0.00    +0.000 C 
ATOM      6  C   UNL     1       1.852   8.924  18.922  0.00  0.00    +0.000 C 
ATOM      7  N   UNL     1       1.737   7.885  19.942  0.00  0.00    +0.000 N 
ATOM      8  C   UNL     1       1.417   8.415  21.280  0.00  0.00    +0.000 C 
ATOM      9  C   UNL     1       0.108   9.231  21.238  0.00  0.00    +0.000 C 
ATOM     10  H   UNL     1       0.242  12.958  19.039  0.00  0.00    +0.000 HD
ENDROOT
BRANCH   7  11
ATOM     11  C   UNL     1       2.040   6.569  19.678  0.00  0.00    +0.000 A 
ATOM     12  C   UNL     1       2.532   6.158  18.429  0.00  0.00    +0.000 A 
ATOM     13  C   UNL     1       2.800   4.818  18.140  0.00  0.00    +0.000 A 
ATOM     14  C   UNL     1       2.578   3.842  19.105  0.00  0.00    +0.000 A 
ATOM     15  C   UNL     1       2.092   4.207  20.359  0.00  0.00    +0.000 A 
ATOM     16  C   UNL     1       1.814   3.174  21.409  0.00  0.00    +0.000 C 
ATOM     17  C   UNL     1       1.829   5.562  20.629  0.00  0.00    +0.000 A 
ENDBRANCH   7  11
BRANCH   1  19
ATOM     18  C   UNL     1      -1.097  13.517  22.995  0.00  0.00    +0.000 C 
ATOM     19  C   UNL     1       0.018  13.422  21.955  0.00  0.00    +0.000 C 
ENDBRANCH   1  19
BRANCH   3  20
ATOM     20  C   UNL     1      -1.442  11.990  18.379  0.00  0.00    +0.000 C 
BRANCH  20  21
ATOM     21  C   UNL     1      -2.891  11.995  18.786  0.00  0.00    +0.000 A 
ATOM     22  N   UNL     1      -3.405  12.489  19.901  0.00  0.00    +0.000 NA
ATOM     23  C   UNL     1      -4.753  12.404  19.697  0.00  0.00    +0.000 A 
ATOM     24  N   UNL     1      -5.115  11.868  18.532  0.00  0.00    +0.000 NA
ATOM     25  N   UNL     1      -3.922  11.591  17.975  0.00  0.00    +0.000 N 
ATOM     26  C   UNL     1      -3.862  11.006  16.661  0.00  0.00    +0.000 C 
ENDBRANCH  20  21
ENDBRANCH   3  20
TORSDOF 4
ENDMDL
MODEL 7
REMARK VINA RESULT:      -7.2      2.030      8.515
REMARK  Name = 
REMARK  7 active torsions:
REMARK  status: ('A' for Active; 'I' for Inactive)
REMARK    1  A    between atoms: C_1  and  C_2
REMARK    2  A    between atoms: C_2  and  N_3
REMARK    3  A    between atoms: N_5  and  C_6
REMARK    4  A    between atoms: C_6  and  C_7
REMARK    5  A    between atoms: N_11  and  C_12
REMARK    6  A    between atoms: N_16  and  C_17
REMARK    7  A    between atoms: C_21  and  C_22
REMARK                            x       y       z     vdW  Elec       q    Type
REMARK                         _______ _______ _______ _____ _____    ______ ____
ROOT
ATOM      1  N   UNL     1       1.843   5.032  19.178  0.00  0.00    +0.000 NA
ATOM      2  C   UNL     1       2.589   5.906  18.583  0.00  0.00    +0.000 C 
ATOM      3  N   UNL     1       3.457   5.608  17.562  0.00  0.00    +0.000 N 
ATOM      4  N   UNL     1       2.519   7.223  18.976  0.00  0.00    +0.000 N 
ATOM      5  C   UNL     1       2.657   8.363  18.060  0.00  0.00    +0.000 C 
ATOM      6  C   UNL     1       1.434   9.285  18.021  0.00  0.00    +0.000 C 
ATOM      7  N   UNL     1       1.065   9.676  19.379  0.00  0.00    +0.000 N 
ATOM      8  C   UNL     1       0.796   8.529  20.264  0.00  0.00    +0.000 C 
ATOM      9  C   UNL     1       2.021   7.593  20.322  0.00  0.00    +0.000 C 
ATOM     10  H   UNL     1       2.969   5.446  16.684  0.00  0.00    +0.000 HD
ENDROOT
BRANCH   7  11
ATOM     11  C   UNL     1       0.862  10.992  19.727  0.00  0.00    +0.000 A 
ATOM     12  C   UNL     1       1.415  12.049  18.986  0.00  0.00    +0.000 A 
ATOM     13  C   UNL     1       1.249  13.384  19.358  0.00  0.00    +0.000 A 
ATOM     14  C   UNL     1       0.518  13.702  20.497  0.00  0.00    +0.000 A 
ATOM     15  C   UNL     1      -0.050  12.684  21.262  0.00  0.00    +0.000 A 
ATOM     16  C   UNL     1      -0.817  12.994  22.511  0.00  0.00    +0.000 C 
ATOM     17  C   UNL     1       0.129  11.345  20.868  0.00  0.00    +0.000 A 
ENDBRANCH   7  11
BRANCH   1  19
ATOM     18  C   UNL     1       1.304   2.789  19.890  0.00  0.00    +0.000 C 
ATOM     19  C   UNL     1       1.932   3.631  18.781  0.00  0.00    +0.000 C 
ENDBRANCH   1  19
BRANCH   3  20
ATOM     20  C   UNL     1       4.740   6.265  17.317  0.00  0.00    +0.000 C 
BRANCH  20  21
ATOM     21  C   UNL     1       5.643   5.553  16.346  0.00  0.00    +0.000 A 
ATOM     22  N   UNL     1       5.466   5.423  15.041  0.00  0.00    +0.000 NA
ATOM     23  C   UNL     1       6.637   4.863  14.613  0.00  0.00    +0.000 A 
ATOM     24  N   UNL     1       7.527   4.615  15.573  0.00  0.00    +0.000 NA
ATOM     25  N   UNL     1       6.872   5.035  16.671  0.00  0.00    +0.000 N 
ATOM     26  C   UNL     1       7.510   4.962  17.960  0.00  0.00    +0.000 C 
ENDBRANCH  20  21
ENDBRANCH   3  20
TORSDOF 4
ENDMDL
MODEL 8
REMARK VINA RESULT:      -7.2      2.584      8.151
REMARK  Name = 
REMARK  7 active torsions:
REMARK  status: ('A' for Active; 'I' for Inactive)
REMARK    1  A    between atoms: C_1  and  C_2
REMARK    2  A    between atoms: C_2  and  N_3
REMARK    3  A    between atoms: N_5  and  C_6
REMARK    4  A    between atoms: C_6  and  C_7
REMARK    5  A    between atoms: N_11  and  C_12
REMARK    6  A    between atoms: N_16  and  C_17
REMARK    7  A    between atoms: C_21  and  C_22
REMARK                            x       y       z     vdW  Elec       q    Type
REMARK                         _______ _______ _______ _____ _____    ______ ____
ROOT
ATOM      1  N   UNL     1       4.284   6.580  18.050  0.00  0.00    +0.000 NA
ATOM      2  C   UNL     1       3.448   6.393  19.020  0.00  0.00    +0.000 C 
ATOM      3  N   UNL     1       3.647   5.500  20.044  0.00  0.00    +0.000 N 
ATOM      4  N   UNL     1       2.286   7.129  19.054  0.00  0.00    +0.000 N 
ATOM      5  C   UNL     1       1.646   7.602  20.288  0.00  0.00    +0.000 C 
ATOM      6  C   UNL     1       1.509   9.125  20.377  0.00  0.00    +0.000 C 
ATOM      7  N   UNL     1       0.874   9.637  19.166  0.00  0.00    +0.000 N 
ATOM      8  C   UNL     1       1.593   9.273  17.932  0.00  0.00    +0.000 C 
ATOM      9  C   UNL     1       1.734   7.741  17.821  0.00  0.00    +0.000 C 
ATOM     10  H   UNL     1       4.331   5.838  20.716  0.00  0.00    +0.000 HD
ENDROOT
BRANCH   7  11
ATOM     11  C   UNL     1      -0.208  10.486  19.215  0.00  0.00    +0.000 A 
ATOM     12  C   UNL     1      -0.399  11.383  20.278  0.00  0.00    +0.000 A 
ATOM     13  C   UNL     1      -1.516  12.217  20.355  0.00  0.00    +0.000 A 
ATOM     14  C   UNL     1      -2.485  12.173  19.359  0.00  0.00    +0.000 A 
ATOM     15  C   UNL     1      -2.334  11.298  18.285  0.00  0.00    +0.000 A 
ATOM     16  C   UNL     1      -3.377  11.208  17.212  0.00  0.00    +0.000 C 
ATOM     17  C   UNL     1      -1.200  10.468  18.226  0.00  0.00    +0.000 A 
ENDBRANCH   7  11
BRANCH   1  19
ATOM     18  C   UNL     1       5.374   4.799  16.839  0.00  0.00    +0.000 C 
ATOM     19  C   UNL     1       5.506   5.784  17.999  0.00  0.00    +0.000 C 
ENDBRANCH   1  19
BRANCH   3  20
ATOM     20  C   UNL     1       2.600   4.738  20.724  0.00  0.00    +0.000 C 
BRANCH  20  21
ATOM     21  C   UNL     1       2.064   3.564  19.950  0.00  0.00    +0.000 A 
ATOM     22  N   UNL     1       0.839   3.416  19.472  0.00  0.00    +0.000 NA
ATOM     23  C   UNL     1       0.927   2.283  18.712  0.00  0.00    +0.000 A 
ATOM     24  N   UNL     1       2.126   1.703  18.701  0.00  0.00    +0.000 NA
ATOM     25  N   UNL     1       2.830   2.513  19.512  0.00  0.00    +0.000 N 
ATOM     26  C   UNL     1       4.224   2.247  19.758  0.00  0.00    +0.000 C 
ENDBRANCH  20  21
ENDBRANCH   3  20
TORSDOF 4
ENDMDL
MODEL 9
REMARK VINA RESULT:      -7.2      2.051      8.434
REMARK  Name = 
REMARK  7 active torsions:
REMARK  status: ('A' for Active; 'I' for Inactive)
REMARK    1  A    between atoms: C_1  and  C_2
REMARK    2  A    between atoms: C_2  and  N_3
REMARK    3  A    between atoms: N_5  and  C_6
REMARK    4  A    between atoms: C_6  and  C_7
REMARK    5  A    between atoms: N_11  and  C_12
REMARK    6  A    between atoms: N_16  and  C_17
REMARK    7  A    between atoms: C_21  and  C_22
REMARK                            x       y       z     vdW  Elec       q    Type
REMARK                         _______ _______ _______ _____ _____    ______ ____
ROOT
ATOM      1  N   UNL     1       2.165   4.909  19.116  0.00  0.00    +0.000 NA
ATOM      2  C   UNL     1       2.756   5.868  18.479  0.00  0.00    +0.000 C 
ATOM      3  N   UNL     1       3.519   5.686  17.352  0.00  0.00    +0.000 N 
ATOM      4  N   UNL     1       2.618   7.159  18.934  0.00  0.00    +0.000 N 
ATOM      5  C   UNL     1       2.545   8.338  18.060  0.00  0.00    +0.000 C 
ATOM      6  C   UNL     1       1.250   9.143  18.204  0.00  0.00    +0.000 C 
ATOM      7  N   UNL     1       1.013   9.453  19.611  0.00  0.00    +0.000 N 
ATOM      8  C   UNL     1       0.953   8.257  20.469  0.00  0.00    +0.000 C 
ATOM      9  C   UNL     1       2.253   7.436  20.344  0.00  0.00    +0.000 C 
ATOM     10  H   UNL     1       2.946   5.509  16.530  0.00  0.00    +0.000 HD
ENDROOT
BRANCH   7  11
ATOM     11  C   UNL     1       0.738  10.732  20.037  0.00  0.00    +0.000 A 
ATOM     12  C   UNL     1       1.277  11.860  19.396  0.00  0.00    +0.000 A 
ATOM     13  C   UNL     1       1.038  13.158  19.851  0.00  0.00    +0.000 A 
ATOM     14  C   UNL     1       0.244  13.366  20.973  0.00  0.00    +0.000 A 
ATOM     15  C   UNL     1      -0.312  12.274  21.639  0.00  0.00    +0.000 A 
ATOM     16  C   UNL     1      -1.146  12.465  22.869  0.00  0.00    +0.000 C 
ATOM     17  C   UNL     1      -0.059  10.975  21.164  0.00  0.00    +0.000 A 
ENDBRANCH   7  11
BRANCH   1  19
ATOM     18  C   UNL     1       0.954   2.873  18.655  0.00  0.00    +0.000 C 
ATOM     19  C   UNL     1       2.329   3.537  18.650  0.00  0.00    +0.000 C 
ENDBRANCH   1  19
BRANCH   3  20
ATOM     20  C   UNL     1       4.701   6.466  16.990  0.00  0.00    +0.000 C 
BRANCH  20  21
ATOM     21  C   UNL     1       6.017   5.779  17.241  0.00  0.00    +0.000 A 
ATOM     22  N   UNL     1       6.619   5.612  18.408  0.00  0.00    +0.000 NA
ATOM     23  C   UNL     1       7.667   4.787  18.111  0.00  0.00    +0.000 A 
ATOM     24  N   UNL     1       7.770   4.444  16.828  0.00  0.00    +0.000 NA
ATOM     25  N   UNL     1       6.730   5.102  16.284  0.00  0.00    +0.000 N 
ATOM     26  C   UNL     1       6.460   4.978  14.875  0.00  0.00    +0.000 C 
ENDBRANCH  20  21
ENDBRANCH   3  20
TORSDOF 4
ENDMDL
