MODEL 1
REMARK VINA RESULT:      -8.2      0.000      0.000
REMARK  Name = 
REMARK  14 active torsions:
REMARK  status: ('A' for Active; 'I' for Inactive)
REMARK    1  A    between atoms: C_1  and  O_2
REMARK    2  A    between atoms: O_2  and  C_3
REMARK    3  A    between atoms: C_6  and  C_7
REMARK    4  A    between atoms: C_8  and  C_9
REMARK    5  A    between atoms: C_11  and  O_12
REMARK    6  A    between atoms: O_12  and  C_13
REMARK    7  A    between atoms: C_15  and  O_16
REMARK    8  A    between atoms: O_16  and  C_17
REMARK    9  A    between atoms: C_18  and  C_19
REMARK   10  A    between atoms: C_20  and  C_21
REMARK   11  A    between atoms: C_21  and  C_23
REMARK   12  A    between atoms: C_24  and  C_25
REMARK   13  A    between atoms: C_30  and  O_31
REMARK   14  A    between atoms: O_31  and  C_32
REMARK                            x       y       z     vdW  Elec       q    Type
REMARK                         _______ _______ _______ _____ _____    ______ ____
ROOT
ATOM      1  C   UNL     1       3.254   5.954  17.825  0.00  0.00    +0.000 A 
ATOM      2  C   UNL     1       2.134   5.116  18.004  0.00  0.00    +0.000 A 
ATOM      3  C   UNL     1       2.194   3.756  17.737  0.00  0.00    +0.000 A 
ATOM      4  C   UNL     1       3.390   3.222  17.276  0.00  0.00    +0.000 A 
ATOM      5  C   UNL     1       4.520   4.036  17.051  0.00  0.00    +0.000 A 
ATOM      6  C   UNL     1       4.478   5.427  17.342  0.00  0.00    +0.000 A 
ENDROOT
BRANCH   1   8
ATOM      7  C   UNL     1       2.139   7.696  19.148  0.00  0.00    +0.000 C 
ATOM      8  C   UNL     1       3.003   7.364  18.175  0.00  0.00    +0.000 C 
BRANCH   7  12
ATOM      9  C   UNL     1       0.665  11.710  19.576  0.00  0.00    +0.000 A 
ATOM     10  C   UNL     1       1.271  11.280  18.397  0.00  0.00    +0.000 A 
ATOM     11  C   UNL     1       1.688   9.953  18.254  0.00  0.00    +0.000 A 
ATOM     12  C   UNL     1       1.533   9.034  19.302  0.00  0.00    +0.000 A 
ATOM     13  C   UNL     1       0.891   9.467  20.468  0.00  0.00    +0.000 A 
ATOM     14  C   UNL     1       0.468  10.798  20.610  0.00  0.00    +0.000 A 
BRANCH   9  16
ATOM     15  C   UNL     1      -0.164  13.596  18.415  0.00  0.00    +0.000 C 
ATOM     16  O   UNL     1       0.356  13.041  19.616  0.00  0.00    +0.000 OA
ENDBRANCH   9  16
ENDBRANCH   7  12
ENDBRANCH   1   8
BRANCH   3  17
ATOM     17  O   UNL     1       1.036   3.067  17.961  0.00  0.00    +0.000 OA
ATOM     18  C   UNL     1       0.807   2.598  19.286  0.00  0.00    +0.000 C 
ENDBRANCH   3  17
BRANCH   5  19
ATOM     19  O   UNL     1       5.692   3.511  16.550  0.00  0.00    +0.000 OA
ATOM     20  C   UNL     1       5.954   3.731  15.165  0.00  0.00    +0.000 C 
ENDBRANCH   5  19
BRANCH   6  21
ATOM     21  C   UNL     1       5.598   6.368  17.057  0.00  0.00    +0.000 C 
ATOM     22  C   UNL     1       6.588   6.742  17.887  0.00  0.00    +0.000 C 
BRANCH  22  23
ATOM     23  C   UNL     1       7.646   7.681  17.411  0.00  0.00    +0.000 C 
ATOM     24  O   UNL     1       8.235   7.538  16.345  0.00  0.00    +0.000 OA
BRANCH  23  25
ATOM     25  C   UNL     1       7.980   8.778  18.364  0.00  0.00    +0.000 C 
ATOM     26  C   UNL     1       8.726   9.823  17.961  0.00  0.00    +0.000 C 
BRANCH  26  27
ATOM     27  C   UNL     1       9.189  10.843  18.912  0.00  0.00    +0.000 A 
ATOM     28  C   UNL     1       9.118  10.500  20.278  0.00  0.00    +0.000 A 
ATOM     29  C   UNL     1       9.584  11.366  21.271  0.00  0.00    +0.000 A 
ATOM     30  C   UNL     1      10.129  12.591  20.915  0.00  0.00    +0.000 A 
ATOM     31  C   UNL     1      10.194  12.949  19.569  0.00  0.00    +0.000 A 
ATOM     32  C   UNL     1       9.727  12.094  18.556  0.00  0.00    +0.000 A 
BRANCH  32  33
ATOM     33  O   UNL     1       9.903  12.651  17.317  0.00  0.00    +0.000 OA
ATOM     34  C   UNL     1      11.093  13.355  17.009  0.00  0.00    +0.000 C 
ENDBRANCH  32  33
ENDBRANCH  26  27
ENDBRANCH  23  25
ENDBRANCH  22  23
ENDBRANCH   6  21
TORSDOF 10
ENDMDL
MODEL 2
REMARK VINA RESULT:      -8.0      0.851      1.243
REMARK  Name = 
REMARK  14 active torsions:
REMARK  status: ('A' for Active; 'I' for Inactive)
REMARK    1  A    between atoms: C_1  and  O_2
REMARK    2  A    between atoms: O_2  and  C_3
REMARK    3  A    between atoms: C_6  and  C_7
REMARK    4  A    between atoms: C_8  and  C_9
REMARK    5  A    between atoms: C_11  and  O_12
REMARK    6  A    between atoms: O_12  and  C_13
REMARK    7  A    between atoms: C_15  and  O_16
REMARK    8  A    between atoms: O_16  and  C_17
REMARK    9  A    between atoms: C_18  and  C_19
REMARK   10  A    between atoms: C_20  and  C_21
REMARK   11  A    between atoms: C_21  and  C_23
REMARK   12  A    between atoms: C_24  and  C_25
REMARK   13  A    between atoms: C_30  and  O_31
REMARK   14  A    between atoms: O_31  and  C_32
REMARK                            x       y       z     vdW  Elec       q    Type
REMARK                         _______ _______ _______ _____ _____    ______ ____
ROOT
ATOM      1  C   UNL     1       3.257   5.889  17.806  0.00  0.00    +0.000 A 
ATOM      2  C   UNL     1       2.127   5.068  17.991  0.00  0.00    +0.000 A 
ATOM      3  C   UNL     1       2.153   3.716  17.681  0.00  0.00    +0.000 A 
ATOM      4  C   UNL     1       3.325   3.174  17.171  0.00  0.00    +0.000 A 
ATOM      5  C   UNL     1       4.464   3.973  16.939  0.00  0.00    +0.000 A 
ATOM      6  C   UNL     1       4.457   5.355  17.273  0.00  0.00    +0.000 A 
ENDROOT
BRANCH   1   8
ATOM      7  C   UNL     1       2.156   7.617  19.160  0.00  0.00    +0.000 C 
ATOM      8  C   UNL     1       3.044   7.293  18.205  0.00  0.00    +0.000 C 
BRANCH   7  12
ATOM      9  C   UNL     1       0.238  11.418  19.744  0.00  0.00    +0.000 A 
ATOM     10  C   UNL     1       0.301  10.470  20.764  0.00  0.00    +0.000 A 
ATOM     11  C   UNL     1       0.984   9.265  20.576  0.00  0.00    +0.000 A 
ATOM     12  C   UNL     1       1.594   8.969  19.348  0.00  0.00    +0.000 A 
ATOM     13  C   UNL     1       1.555   9.942  18.342  0.00  0.00    +0.000 A 
ATOM     14  C   UNL     1       0.874  11.154  18.533  0.00  0.00    +0.000 A 
BRANCH   9  16
ATOM     15  C   UNL     1       0.205  13.758  20.079  0.00  0.00    +0.000 C 
ATOM     16  O   UNL     1      -0.506  12.528  20.030  0.00  0.00    +0.000 OA
ENDBRANCH   9  16
ENDBRANCH   7  12
ENDBRANCH   1   8
BRANCH   3  17
ATOM     17  O   UNL     1       0.988   3.042  17.917  0.00  0.00    +0.000 OA
ATOM     18  C   UNL     1       0.928   2.242  19.094  0.00  0.00    +0.000 C 
ENDBRANCH   3  17
BRANCH   5  19
ATOM     19  O   UNL     1       5.611   3.442  16.390  0.00  0.00    +0.000 OA
ATOM     20  C   UNL     1       5.846   3.710  15.009  0.00  0.00    +0.000 C 
ENDBRANCH   5  19
BRANCH   6  21
ATOM     21  C   UNL     1       5.587   6.283  16.985  0.00  0.00    +0.000 C 
ATOM     22  C   UNL     1       6.534   6.714  17.838  0.00  0.00    +0.000 C 
BRANCH  22  23
ATOM     23  C   UNL     1       7.612   7.627  17.357  0.00  0.00    +0.000 C 
ATOM     24  O   UNL     1       8.294   7.391  16.366  0.00  0.00    +0.000 OA
BRANCH  23  25
ATOM     25  C   UNL     1       7.839   8.827  18.213  0.00  0.00    +0.000 C 
ATOM     26  C   UNL     1       8.630   9.827  17.782  0.00  0.00    +0.000 C 
BRANCH  26  27
ATOM     27  C   UNL     1       8.986  10.951  18.660  0.00  0.00    +0.000 A 
ATOM     28  C   UNL     1       9.733  10.630  19.812  0.00  0.00    +0.000 A 
ATOM     29  C   UNL     1      10.180  11.622  20.689  0.00  0.00    +0.000 A 
ATOM     30  C   UNL     1       9.885  12.953  20.430  0.00  0.00    +0.000 A 
ATOM     31  C   UNL     1       9.136  13.283  19.303  0.00  0.00    +0.000 A 
ATOM     32  C   UNL     1       8.675  12.301  18.410  0.00  0.00    +0.000 A 
BRANCH  32  33
ATOM     33  O   UNL     1       7.973  12.860  17.376  0.00  0.00    +0.000 OA
ATOM     34  C   UNL     1       7.171  14.008  17.591  0.00  0.00    +0.000 C 
ENDBRANCH  32  33
ENDBRANCH  26  27
ENDBRANCH  23  25
ENDBRANCH  22  23
ENDBRANCH   6  21
TORSDOF 10
ENDMDL
MODEL 3
REMARK VINA RESULT:      -7.7      4.189      8.510
REMARK  Name = 
REMARK  14 active torsions:
REMARK  status: ('A' for Active; 'I' for Inactive)
REMARK    1  A    between atoms: C_1  and  O_2
REMARK    2  A    between atoms: O_2  and  C_3
REMARK    3  A    between atoms: C_6  and  C_7
REMARK    4  A    between atoms: C_8  and  C_9
REMARK    5  A    between atoms: C_11  and  O_12
REMARK    6  A    between atoms: O_12  and  C_13
REMARK    7  A    between atoms: C_15  and  O_16
REMARK    8  A    between atoms: O_16  and  C_17
REMARK    9  A    between atoms: C_18  and  C_19
REMARK   10  A    between atoms: C_20  and  C_21
REMARK   11  A    between atoms: C_21  and  C_23
REMARK   12  A    between atoms: C_24  and  C_25
REMARK   13  A    between atoms: C_30  and  O_31
REMARK   14  A    between atoms: O_31  and  C_32
REMARK                            x       y       z     vdW  Elec       q    Type
REMARK                         _______ _______ _______ _____ _____    ______ ____
ROOT
ATOM      1  C   UNL     1       1.929   8.579  18.840  0.00  0.00    +0.000 A 
ATOM      2  C   UNL     1       2.775   8.136  17.803  0.00  0.00    +0.000 A 
ATOM      3  C   UNL     1       3.359   6.878  17.831  0.00  0.00    +0.000 A 
ATOM      4  C   UNL     1       3.102   6.050  18.915  0.00  0.00    +0.000 A 
ATOM      5  C   UNL     1       2.290   6.474  19.987  0.00  0.00    +0.000 A 
ATOM      6  C   UNL     1       1.667   7.752  19.960  0.00  0.00    +0.000 A 
ENDROOT
BRANCH   1   8
ATOM      7  C   UNL     1       2.188  10.950  18.253  0.00  0.00    +0.000 C 
ATOM      8  C   UNL     1       1.391   9.936  18.628  0.00  0.00    +0.000 C 
BRANCH   7  12
ATOM      9  C   UNL     1       1.369  15.115  18.923  0.00  0.00    +0.000 A 
ATOM     10  C   UNL     1       2.639  14.673  18.554  0.00  0.00    +0.000 A 
ATOM     11  C   UNL     1       2.871  13.322  18.280  0.00  0.00    +0.000 A 
ATOM     12  C   UNL     1       1.841  12.377  18.398  0.00  0.00    +0.000 A 
ATOM     13  C   UNL     1       0.562  12.837  18.734  0.00  0.00    +0.000 A 
ATOM     14  C   UNL     1       0.328  14.193  19.004  0.00  0.00    +0.000 A 
BRANCH   9  16
ATOM     15  C   UNL     1       2.481  17.196  19.074  0.00  0.00    +0.000 C 
ATOM     16  O   UNL     1       1.283  16.446  19.221  0.00  0.00    +0.000 OA
ENDBRANCH   9  16
ENDBRANCH   7  12
ENDBRANCH   1   8
BRANCH   3  17
ATOM     17  O   UNL     1       4.150   6.579  16.757  0.00  0.00    +0.000 OA
ATOM     18  C   UNL     1       5.557   6.713  16.931  0.00  0.00    +0.000 C 
ENDBRANCH   3  17
BRANCH   5  19
ATOM     19  O   UNL     1       2.072   5.668  21.084  0.00  0.00    +0.000 OA
ATOM     20  C   UNL     1       1.832   4.285  20.827  0.00  0.00    +0.000 C 
ENDBRANCH   5  19
BRANCH   6  21
ATOM     21  C   UNL     1       0.863   8.307  21.086  0.00  0.00    +0.000 C 
ATOM     22  C   UNL     1       1.270   9.153  22.048  0.00  0.00    +0.000 C 
BRANCH  22  23
ATOM     23  C   UNL     1       0.306   9.626  23.085  0.00  0.00    +0.000 C 
ATOM     24  O   UNL     1       0.502   9.493  24.288  0.00  0.00    +0.000 OA
BRANCH  23  25
ATOM     25  C   UNL     1      -0.949  10.221  22.543  0.00  0.00    +0.000 C 
ATOM     26  C   UNL     1      -0.935  11.452  22.000  0.00  0.00    +0.000 C 
BRANCH  26  27
ATOM     27  C   UNL     1      -2.179  12.119  21.590  0.00  0.00    +0.000 A 
ATOM     28  C   UNL     1      -2.454  12.132  20.207  0.00  0.00    +0.000 A 
ATOM     29  C   UNL     1      -3.635  12.686  19.705  0.00  0.00    +0.000 A 
ATOM     30  C   UNL     1      -4.562  13.237  20.578  0.00  0.00    +0.000 A 
ATOM     31  C   UNL     1      -4.298  13.243  21.946  0.00  0.00    +0.000 A 
ATOM     32  C   UNL     1      -3.115  12.695  22.471  0.00  0.00    +0.000 A 
BRANCH  32  33
ATOM     33  O   UNL     1      -3.080  12.805  23.835  0.00  0.00    +0.000 OA
ATOM     34  C   UNL     1      -4.205  12.440  24.614  0.00  0.00    +0.000 C 
ENDBRANCH  32  33
ENDBRANCH  26  27
ENDBRANCH  23  25
ENDBRANCH  22  23
ENDBRANCH   6  21
TORSDOF 10
ENDMDL
MODEL 4
REMARK VINA RESULT:      -7.7      4.588      9.161
REMARK  Name = 
REMARK  14 active torsions:
REMARK  status: ('A' for Active; 'I' for Inactive)
REMARK    1  A    between atoms: C_1  and  O_2
REMARK    2  A    between atoms: O_2  and  C_3
REMARK    3  A    between atoms: C_6  and  C_7
REMARK    4  A    between atoms: C_8  and  C_9
REMARK    5  A    between atoms: C_11  and  O_12
REMARK    6  A    between atoms: O_12  and  C_13
REMARK    7  A    between atoms: C_15  and  O_16
REMARK    8  A    between atoms: O_16  and  C_17
REMARK    9  A    between atoms: C_18  and  C_19
REMARK   10  A    between atoms: C_20  and  C_21
REMARK   11  A    between atoms: C_21  and  C_23
REMARK   12  A    between atoms: C_24  and  C_25
REMARK   13  A    between atoms: C_30  and  O_31
REMARK   14  A    between atoms: O_31  and  C_32
REMARK                            x       y       z     vdW  Elec       q    Type
REMARK                         _______ _______ _______ _____ _____    ______ ____
ROOT
ATOM      1  C   UNL     1      -3.344  12.073  19.157  0.00  0.00    +0.000 A 
ATOM      2  C   UNL     1      -4.722  12.325  19.004  0.00  0.00    +0.000 A 
ATOM      3  C   UNL     1      -5.404  11.957  17.853  0.00  0.00    +0.000 A 
ATOM      4  C   UNL     1      -4.698  11.333  16.833  0.00  0.00    +0.000 A 
ATOM      5  C   UNL     1      -3.312  11.097  16.938  0.00  0.00    +0.000 A 
ATOM      6  C   UNL     1      -2.606  11.450  18.120  0.00  0.00    +0.000 A 
ENDROOT
BRANCH   1   8
ATOM      7  C   UNL     1      -3.608  12.815  21.483  0.00  0.00    +0.000 C 
ATOM      8  C   UNL     1      -2.799  12.521  20.452  0.00  0.00    +0.000 C 
BRANCH   7  12
ATOM      9  C   UNL     1      -2.297  14.922  24.992  0.00  0.00    +0.000 A 
ATOM     10  C   UNL     1      -1.389  14.441  24.050  0.00  0.00    +0.000 A 
ATOM     11  C   UNL     1      -1.837  13.813  22.884  0.00  0.00    +0.000 A 
ATOM     12  C   UNL     1      -3.207  13.626  22.650  0.00  0.00    +0.000 A 
ATOM     13  C   UNL     1      -4.112  14.143  23.585  0.00  0.00    +0.000 A 
ATOM     14  C   UNL     1      -3.662  14.778  24.752  0.00  0.00    +0.000 A 
BRANCH   9  16
ATOM     15  C   UNL     1      -0.520  16.174  25.922  0.00  0.00    +0.000 C 
ATOM     16  O   UNL     1      -1.736  15.463  26.115  0.00  0.00    +0.000 OA
ENDBRANCH   9  16
ENDBRANCH   7  12
ENDBRANCH   1   8
BRANCH   3  17
ATOM     17  O   UNL     1      -6.737  12.258  17.845  0.00  0.00    +0.000 OA
ATOM     18  C   UNL     1      -7.405  12.282  19.102  0.00  0.00    +0.000 C 
ENDBRANCH   3  17
BRANCH   5  19
ATOM     19  O   UNL     1      -2.604  10.519  15.906  0.00  0.00    +0.000 OA
ATOM     20  C   UNL     1      -3.350  10.127  14.755  0.00  0.00    +0.000 C 
ENDBRANCH   5  19
BRANCH   6  21
ATOM     21  C   UNL     1      -1.130  11.309  18.279  0.00  0.00    +0.000 C 
ATOM     22  C   UNL     1      -0.440  10.199  18.593  0.00  0.00    +0.000 C 
BRANCH  22  23
ATOM     23  C   UNL     1       1.050  10.245  18.680  0.00  0.00    +0.000 C 
ATOM     24  O   UNL     1       1.658  11.164  19.216  0.00  0.00    +0.000 OA
BRANCH  23  25
ATOM     25  C   UNL     1       1.748   9.112  18.007  0.00  0.00    +0.000 C 
ATOM     26  C   UNL     1       2.096   8.018  18.709  0.00  0.00    +0.000 C 
BRANCH  26  27
ATOM     27  C   UNL     1       2.910   6.953  18.107  0.00  0.00    +0.000 A 
ATOM     28  C   UNL     1       3.977   7.371  17.286  0.00  0.00    +0.000 A 
ATOM     29  C   UNL     1       4.855   6.450  16.708  0.00  0.00    +0.000 A 
ATOM     30  C   UNL     1       4.679   5.093  16.939  0.00  0.00    +0.000 A 
ATOM     31  C   UNL     1       3.621   4.664  17.738  0.00  0.00    +0.000 A 
ATOM     32  C   UNL     1       2.725   5.574  18.326  0.00  0.00    +0.000 A 
BRANCH  32  33
ATOM     33  O   UNL     1       1.778   4.925  19.072  0.00  0.00    +0.000 OA
ATOM     34  C   UNL     1       1.922   4.814  20.476  0.00  0.00    +0.000 C 
ENDBRANCH  32  33
ENDBRANCH  26  27
ENDBRANCH  23  25
ENDBRANCH  22  23
ENDBRANCH   6  21
TORSDOF 10
ENDMDL
MODEL 5
REMARK VINA RESULT:      -7.7      4.337      8.158
REMARK  Name = 
REMARK  14 active torsions:
REMARK  status: ('A' for Active; 'I' for Inactive)
REMARK    1  A    between atoms: C_1  and  O_2
REMARK    2  A    between atoms: O_2  and  C_3
REMARK    3  A    between atoms: C_6  and  C_7
REMARK    4  A    between atoms: C_8  and  C_9
REMARK    5  A    between atoms: C_11  and  O_12
REMARK    6  A    between atoms: O_12  and  C_13
REMARK    7  A    between atoms: C_15  and  O_16
REMARK    8  A    between atoms: O_16  and  C_17
REMARK    9  A    between atoms: C_18  and  C_19
REMARK   10  A    between atoms: C_20  and  C_21
REMARK   11  A    between atoms: C_21  and  C_23
REMARK   12  A    between atoms: C_24  and  C_25
REMARK   13  A    between atoms: C_30  and  O_31
REMARK   14  A    between atoms: O_31  and  C_32
REMARK                            x       y       z     vdW  Elec       q    Type
REMARK                         _______ _______ _______ _____ _____    ______ ____
ROOT
ATOM      1  C   UNL     1       1.715   8.861  18.941  0.00  0.00    +0.000 A 
ATOM      2  C   UNL     1       2.531   8.511  17.848  0.00  0.00    +0.000 A 
ATOM      3  C   UNL     1       3.177   7.284  17.787  0.00  0.00    +0.000 A 
ATOM      4  C   UNL     1       3.011   6.394  18.839  0.00  0.00    +0.000 A 
ATOM      5  C   UNL     1       2.231   6.725  19.966  0.00  0.00    +0.000 A 
ATOM      6  C   UNL     1       1.547   7.970  20.030  0.00  0.00    +0.000 A 
ENDROOT
BRANCH   1   8
ATOM      7  C   UNL     1       1.858  11.303  18.725  0.00  0.00    +0.000 C 
ATOM      8  C   UNL     1       1.102  10.197  18.821  0.00  0.00    +0.000 C 
BRANCH   7  12
ATOM      9  C   UNL     1       0.374  15.190  19.804  0.00  0.00    +0.000 A 
ATOM     10  C   UNL     1       1.524  14.662  20.389  0.00  0.00    +0.000 A 
ATOM     11  C   UNL     1       2.026  13.423  19.980  0.00  0.00    +0.000 A 
ATOM     12  C   UNL     1       1.370  12.670  18.996  0.00  0.00    +0.000 A 
ATOM     13  C   UNL     1       0.236  13.225  18.389  0.00  0.00    +0.000 A 
ATOM     14  C   UNL     1      -0.265  14.471  18.796  0.00  0.00    +0.000 A 
BRANCH   9  16
ATOM     15  C   UNL     1       0.701  16.876  21.428  0.00  0.00    +0.000 C 
ATOM     16  O   UNL     1      -0.050  16.378  20.329  0.00  0.00    +0.000 OA
ENDBRANCH   9  16
ENDBRANCH   7  12
ENDBRANCH   1   8
BRANCH   3  17
ATOM     17  O   UNL     1       3.930   7.077  16.666  0.00  0.00    +0.000 OA
ATOM     18  C   UNL     1       5.311   6.789  16.856  0.00  0.00    +0.000 C 
ENDBRANCH   3  17
BRANCH   5  19
ATOM     19  O   UNL     1       2.104   5.858  21.030  0.00  0.00    +0.000 OA
ATOM     20  C   UNL     1       1.997   4.470  20.719  0.00  0.00    +0.000 C 
ENDBRANCH   5  19
BRANCH   6  21
ATOM     21  C   UNL     1       0.770   8.429  21.216  0.00  0.00    +0.000 C 
ATOM     22  C   UNL     1       1.143   9.326  22.146  0.00  0.00    +0.000 C 
BRANCH  22  23
ATOM     23  C   UNL     1       0.212   9.684  23.256  0.00  0.00    +0.000 C 
ATOM     24  O   UNL     1       0.268   9.167  24.367  0.00  0.00    +0.000 OA
BRANCH  23  25
ATOM     25  C   UNL     1      -0.837  10.679  22.893  0.00  0.00    +0.000 C 
ATOM     26  C   UNL     1      -0.517  11.768  22.170  0.00  0.00    +0.000 C 
BRANCH  26  27
ATOM     27  C   UNL     1      -1.497  12.834  21.921  0.00  0.00    +0.000 A 
ATOM     28  C   UNL     1      -2.446  12.586  20.907  0.00  0.00    +0.000 A 
ATOM     29  C   UNL     1      -3.462  13.501  20.621  0.00  0.00    +0.000 A 
ATOM     30  C   UNL     1      -3.548  14.682  21.344  0.00  0.00    +0.000 A 
ATOM     31  C   UNL     1      -2.609  14.947  22.339  0.00  0.00    +0.000 A 
ATOM     32  C   UNL     1      -1.577  14.042  22.640  0.00  0.00    +0.000 A 
BRANCH  32  33
ATOM     33  O   UNL     1      -0.787  14.510  23.656  0.00  0.00    +0.000 OA
ATOM     34  C   UNL     1      -1.351  15.264  24.714  0.00  0.00    +0.000 C 
ENDBRANCH  32  33
ENDBRANCH  26  27
ENDBRANCH  23  25
ENDBRANCH  22  23
ENDBRANCH   6  21
TORSDOF 10
ENDMDL
MODEL 6
REMARK VINA RESULT:      -7.5      3.962      8.089
REMARK  Name = 
REMARK  14 active torsions:
REMARK  status: ('A' for Active; 'I' for Inactive)
REMARK    1  A    between atoms: C_1  and  O_2
REMARK    2  A    between atoms: O_2  and  C_3
REMARK    3  A    between atoms: C_6  and  C_7
REMARK    4  A    between atoms: C_8  and  C_9
REMARK    5  A    between atoms: C_11  and  O_12
REMARK    6  A    between atoms: O_12  and  C_13
REMARK    7  A    between atoms: C_15  and  O_16
REMARK    8  A    between atoms: O_16  and  C_17
REMARK    9  A    between atoms: C_18  and  C_19
REMARK   10  A    between atoms: C_20  and  C_21
REMARK   11  A    between atoms: C_21  and  C_23
REMARK   12  A    between atoms: C_24  and  C_25
REMARK   13  A    between atoms: C_30  and  O_31
REMARK   14  A    between atoms: O_31  and  C_32
REMARK                            x       y       z     vdW  Elec       q    Type
REMARK                         _______ _______ _______ _____ _____    ______ ____
ROOT
ATOM      1  C   UNL     1       2.442   7.876  18.401  0.00  0.00    +0.000 A 
ATOM      2  C   UNL     1       3.492   7.470  17.553  0.00  0.00    +0.000 A 
ATOM      3  C   UNL     1       4.179   6.283  17.765  0.00  0.00    +0.000 A 
ATOM      4  C   UNL     1       3.817   5.490  18.846  0.00  0.00    +0.000 A 
ATOM      5  C   UNL     1       2.795   5.883  19.735  0.00  0.00    +0.000 A 
ATOM      6  C   UNL     1       2.069   7.085  19.516  0.00  0.00    +0.000 A 
ENDROOT
BRANCH   1   8
ATOM      7  C   UNL     1       2.299  10.326  18.461  0.00  0.00    +0.000 C 
ATOM      8  C   UNL     1       1.822   9.155  18.008  0.00  0.00    +0.000 C 
BRANCH   7  12
ATOM      9  C   UNL     1       0.256  14.101  18.690  0.00  0.00    +0.000 A 
ATOM     10  C   UNL     1       1.612  14.025  18.376  0.00  0.00    +0.000 A 
ATOM     11  C   UNL     1       2.245  12.785  18.244  0.00  0.00    +0.000 A 
ATOM     12  C   UNL     1       1.539  11.592  18.455  0.00  0.00    +0.000 A 
ATOM     13  C   UNL     1       0.170  11.678  18.736  0.00  0.00    +0.000 A 
ATOM     14  C   UNL     1      -0.466  12.922  18.863  0.00  0.00    +0.000 A 
BRANCH   9  16
ATOM     15  C   UNL     1       0.612  16.278  19.540  0.00  0.00    +0.000 C 
ATOM     16  O   UNL     1      -0.232  15.367  18.848  0.00  0.00    +0.000 OA
ENDBRANCH   9  16
ENDBRANCH   7  12
ENDBRANCH   1   8
BRANCH   3  17
ATOM     17  O   UNL     1       5.169   6.014  16.862  0.00  0.00    +0.000 OA
ATOM     18  C   UNL     1       6.418   6.669  17.054  0.00  0.00    +0.000 C 
ENDBRANCH   3  17
BRANCH   5  19
ATOM     19  O   UNL     1       2.468   5.116  20.834  0.00  0.00    +0.000 OA
ATOM     20  C   UNL     1       2.708   3.713  20.732  0.00  0.00    +0.000 C 
ENDBRANCH   5  19
BRANCH   6  21
ATOM     21  C   UNL     1       1.033   7.610  20.451  0.00  0.00    +0.000 C 
ATOM     22  C   UNL     1       1.145   8.642  21.306  0.00  0.00    +0.000 C 
BRANCH  22  23
ATOM     23  C   UNL     1      -0.019   9.043  22.149  0.00  0.00    +0.000 C 
ATOM     24  O   UNL     1      -0.713   8.235  22.756  0.00  0.00    +0.000 OA
BRANCH  23  25
ATOM     25  C   UNL     1      -0.315  10.505  22.148  0.00  0.00    +0.000 C 
ATOM     26  C   UNL     1      -1.197  11.018  23.025  0.00  0.00    +0.000 C 
BRANCH  26  27
ATOM     27  C   UNL     1      -1.613  12.426  22.953  0.00  0.00    +0.000 A 
ATOM     28  C   UNL     1      -0.612  13.356  22.607  0.00  0.00    +0.000 A 
ATOM     29  C   UNL     1      -0.902  14.714  22.450  0.00  0.00    +0.000 A 
ATOM     30  C   UNL     1      -2.201  15.166  22.638  0.00  0.00    +0.000 A 
ATOM     31  C   UNL     1      -3.198  14.260  22.993  0.00  0.00    +0.000 A 
ATOM     32  C   UNL     1      -2.926  12.891  23.158  0.00  0.00    +0.000 A 
BRANCH  32  33
ATOM     33  O   UNL     1      -4.058  12.198  23.496  0.00  0.00    +0.000 OA
ATOM     34  C   UNL     1      -4.671  12.395  24.757  0.00  0.00    +0.000 C 
ENDBRANCH  32  33
ENDBRANCH  26  27
ENDBRANCH  23  25
ENDBRANCH  22  23
ENDBRANCH   6  21
TORSDOF 10
ENDMDL
MODEL 7
REMARK VINA RESULT:      -7.5      4.302      8.456
REMARK  Name = 
REMARK  14 active torsions:
REMARK  status: ('A' for Active; 'I' for Inactive)
REMARK    1  A    between atoms: C_1  and  O_2
REMARK    2  A    between atoms: O_2  and  C_3
REMARK    3  A    between atoms: C_6  and  C_7
REMARK    4  A    between atoms: C_8  and  C_9
REMARK    5  A    between atoms: C_11  and  O_12
REMARK    6  A    between atoms: O_12  and  C_13
REMARK    7  A    between atoms: C_15  and  O_16
REMARK    8  A    between atoms: O_16  and  C_17
REMARK    9  A    between atoms: C_18  and  C_19
REMARK   10  A    between atoms: C_20  and  C_21
REMARK   11  A    between atoms: C_21  and  C_23
REMARK   12  A    between atoms: C_24  and  C_25
REMARK   13  A    between atoms: C_30  and  O_31
REMARK   14  A    between atoms: O_31  and  C_32
REMARK                            x       y       z     vdW  Elec       q    Type
REMARK                         _______ _______ _______ _____ _____    ______ ____
ROOT
ATOM      1  C   UNL     1       1.984   8.619  18.886  0.00  0.00    +0.000 A 
ATOM      2  C   UNL     1       2.806   8.216  17.815  0.00  0.00    +0.000 A 
ATOM      3  C   UNL     1       3.392   6.959  17.782  0.00  0.00    +0.000 A 
ATOM      4  C   UNL     1       3.161   6.090  18.840  0.00  0.00    +0.000 A 
ATOM      5  C   UNL     1       2.373   6.473  19.946  0.00  0.00    +0.000 A 
ATOM      6  C   UNL     1       1.749   7.750  19.981  0.00  0.00    +0.000 A 
ENDROOT
BRANCH   1   8
ATOM      7  C   UNL     1       2.154  10.956  18.152  0.00  0.00    +0.000 C 
ATOM      8  C   UNL     1       1.439   9.981  18.737  0.00  0.00    +0.000 C 
BRANCH   7  12
ATOM      9  C   UNL     1       1.525  15.149  18.855  0.00  0.00    +0.000 A 
ATOM     10  C   UNL     1       2.785  14.645  18.539  0.00  0.00    +0.000 A 
ATOM     11  C   UNL     1       2.959  13.287  18.252  0.00  0.00    +0.000 A 
ATOM     12  C   UNL     1       1.877  12.397  18.305  0.00  0.00    +0.000 A 
ATOM     13  C   UNL     1       0.608  12.919  18.589  0.00  0.00    +0.000 A 
ATOM     14  C   UNL     1       0.434  14.283  18.871  0.00  0.00    +0.000 A 
BRANCH   9  16
ATOM     15  C   UNL     1       1.489  17.380  18.074  0.00  0.00    +0.000 C 
ATOM     16  O   UNL     1       1.494  16.477  19.172  0.00  0.00    +0.000 OA
ENDBRANCH   9  16
ENDBRANCH   7  12
ENDBRANCH   1   8
BRANCH   3  17
ATOM     17  O   UNL     1       4.159   6.702  16.680  0.00  0.00    +0.000 OA
ATOM     18  C   UNL     1       4.938   5.511  16.696  0.00  0.00    +0.000 C 
ENDBRANCH   3  17
BRANCH   5  19
ATOM     19  O   UNL     1       2.181   5.626  21.017  0.00  0.00    +0.000 OA
ATOM     20  C   UNL     1       2.303   4.228  20.760  0.00  0.00    +0.000 C 
ENDBRANCH   5  19
BRANCH   6  21
ATOM     21  C   UNL     1       0.970   8.261  21.144  0.00  0.00    +0.000 C 
ATOM     22  C   UNL     1       1.156   9.410  21.817  0.00  0.00    +0.000 C 
BRANCH  22  23
ATOM     23  C   UNL     1       0.250   9.769  22.948  0.00  0.00    +0.000 C 
ATOM     24  O   UNL     1       0.507   9.507  24.117  0.00  0.00    +0.000 OA
BRANCH  23  25
ATOM     25  C   UNL     1      -1.027  10.422  22.539  0.00  0.00    +0.000 C 
ATOM     26  C   UNL     1      -1.349  11.638  23.016  0.00  0.00    +0.000 C 
BRANCH  26  27
ATOM     27  C   UNL     1      -2.662  12.241  22.746  0.00  0.00    +0.000 A 
ATOM     28  C   UNL     1      -3.533  12.360  23.849  0.00  0.00    +0.000 A 
ATOM     29  C   UNL     1      -4.784  12.971  23.725  0.00  0.00    +0.000 A 
ATOM     30  C   UNL     1      -5.187  13.471  22.496  0.00  0.00    +0.000 A 
ATOM     31  C   UNL     1      -4.342  13.348  21.394  0.00  0.00    +0.000 A 
ATOM     32  C   UNL     1      -3.082  12.735  21.496  0.00  0.00    +0.000 A 
BRANCH  32  33
ATOM     33  O   UNL     1      -2.429  12.739  20.292  0.00  0.00    +0.000 OA
ATOM     34  C   UNL     1      -2.909  11.957  19.213  0.00  0.00    +0.000 C 
ENDBRANCH  32  33
ENDBRANCH  26  27
ENDBRANCH  23  25
ENDBRANCH  22  23
ENDBRANCH   6  21
TORSDOF 10
ENDMDL
MODEL 8
REMARK VINA RESULT:      -7.5      4.311      8.243
REMARK  Name = 
REMARK  14 active torsions:
REMARK  status: ('A' for Active; 'I' for Inactive)
REMARK    1  A    between atoms: C_1  and  O_2
REMARK    2  A    between atoms: O_2  and  C_3
REMARK    3  A    between atoms: C_6  and  C_7
REMARK    4  A    between atoms: C_8  and  C_9
REMARK    5  A    between atoms: C_11  and  O_12
REMARK    6  A    between atoms: O_12  and  C_13
REMARK    7  A    between atoms: C_15  and  O_16
REMARK    8  A    between atoms: O_16  and  C_17
REMARK    9  A    between atoms: C_18  and  C_19
REMARK   10  A    between atoms: C_20  and  C_21
REMARK   11  A    between atoms: C_21  and  C_23
REMARK   12  A    between atoms: C_24  and  C_25
REMARK   13  A    between atoms: C_30  and  O_31
REMARK   14  A    between atoms: O_31  and  C_32
REMARK                            x       y       z     vdW  Elec       q    Type
REMARK                         _______ _______ _______ _____ _____    ______ ____
ROOT
ATOM      1  C   UNL     1       1.934   8.863  18.802  0.00  0.00    +0.000 A 
ATOM      2  C   UNL     1       2.779   8.453  17.752  0.00  0.00    +0.000 A 
ATOM      3  C   UNL     1       3.329   7.180  17.718  0.00  0.00    +0.000 A 
ATOM      4  C   UNL     1       3.036   6.302  18.753  0.00  0.00    +0.000 A 
ATOM      5  C   UNL     1       2.222   6.690  19.837  0.00  0.00    +0.000 A 
ATOM      6  C   UNL     1       1.636   7.985  19.873  0.00  0.00    +0.000 A 
ENDROOT
BRANCH   1   8
ATOM      7  C   UNL     1       2.268  11.258  18.371  0.00  0.00    +0.000 C 
ATOM      8  C   UNL     1       1.435  10.244  18.658  0.00  0.00    +0.000 C 
BRANCH   7  12
ATOM      9  C   UNL     1       1.112  15.373  18.813  0.00  0.00    +0.000 A 
ATOM     10  C   UNL     1       0.275  14.335  19.218  0.00  0.00    +0.000 A 
ATOM     11  C   UNL     1       0.694  13.004  19.124  0.00  0.00    +0.000 A 
ATOM     12  C   UNL     1       1.951  12.682  18.593  0.00  0.00    +0.000 A 
ATOM     13  C   UNL     1       2.798  13.734  18.222  0.00  0.00    +0.000 A 
ATOM     14  C   UNL     1       2.380  15.070  18.322  0.00  0.00    +0.000 A 
BRANCH   9  16
ATOM     15  C   UNL     1      -0.807  16.681  19.255  0.00  0.00    +0.000 C 
ATOM     16  O   UNL     1       0.568  16.624  18.900  0.00  0.00    +0.000 OA
ENDBRANCH   9  16
ENDBRANCH   7  12
ENDBRANCH   1   8
BRANCH   3  17
ATOM     17  O   UNL     1       4.125   6.917  16.638  0.00  0.00    +0.000 OA
ATOM     18  C   UNL     1       5.228   6.042  16.843  0.00  0.00    +0.000 C 
ENDBRANCH   3  17
BRANCH   5  19
ATOM     19  O   UNL     1       1.969   5.832  20.886  0.00  0.00    +0.000 OA
ATOM     20  C   UNL     1       2.422   4.487  20.740  0.00  0.00    +0.000 C 
ENDBRANCH   5  19
BRANCH   6  21
ATOM     21  C   UNL     1       0.833   8.500  21.018  0.00  0.00    +0.000 C 
ATOM     22  C   UNL     1       1.269   9.209  22.074  0.00  0.00    +0.000 C 
BRANCH  22  23
ATOM     23  C   UNL     1       0.304   9.666  23.117  0.00  0.00    +0.000 C 
ATOM     24  O   UNL     1       0.454   9.435  24.312  0.00  0.00    +0.000 OA
BRANCH  23  25
ATOM     25  C   UNL     1      -0.895  10.378  22.588  0.00  0.00    +0.000 C 
ATOM     26  C   UNL     1      -0.825  11.686  22.280  0.00  0.00    +0.000 C 
BRANCH  26  27
ATOM     27  C   UNL     1      -2.024  12.444  21.894  0.00  0.00    +0.000 A 
ATOM     28  C   UNL     1      -2.576  13.284  22.884  0.00  0.00    +0.000 A 
ATOM     29  C   UNL     1      -3.679  14.098  22.614  0.00  0.00    +0.000 A 
ATOM     30  C   UNL     1      -4.253  14.084  21.351  0.00  0.00    +0.000 A 
ATOM     31  C   UNL     1      -3.726  13.249  20.367  0.00  0.00    +0.000 A 
ATOM     32  C   UNL     1      -2.618  12.421  20.619  0.00  0.00    +0.000 A 
BRANCH  32  33
ATOM     33  O   UNL     1      -2.275  11.702  19.505  0.00  0.00    +0.000 OA
ATOM     34  C   UNL     1      -3.205  11.519  18.453  0.00  0.00    +0.000 C 
ENDBRANCH  32  33
ENDBRANCH  26  27
ENDBRANCH  23  25
ENDBRANCH  22  23
ENDBRANCH   6  21
TORSDOF 10
ENDMDL
MODEL 9
REMARK VINA RESULT:      -7.4      4.482      8.139
REMARK  Name = 
REMARK  14 active torsions:
REMARK  status: ('A' for Active; 'I' for Inactive)
REMARK    1  A    between atoms: C_1  and  O_2
REMARK    2  A    between atoms: O_2  and  C_3
REMARK    3  A    between atoms: C_6  and  C_7
REMARK    4  A    between atoms: C_8  and  C_9
REMARK    5  A    between atoms: C_11  and  O_12
REMARK    6  A    between atoms: O_12  and  C_13
REMARK    7  A    between atoms: C_15  and  O_16
REMARK    8  A    between atoms: O_16  and  C_17
REMARK    9  A    between atoms: C_18  and  C_19
REMARK   10  A    between atoms: C_20  and  C_21
REMARK   11  A    between atoms: C_21  and  C_23
REMARK   12  A    between atoms: C_24  and  C_25
REMARK   13  A    between atoms: C_30  and  O_31
REMARK   14  A    between atoms: O_31  and  C_32
REMARK                            x       y       z     vdW  Elec       q    Type
REMARK                         _______ _______ _______ _____ _____    ______ ____
ROOT
ATOM      1  C   UNL     1       2.031   8.565  18.600  0.00  0.00    +0.000 A 
ATOM      2  C   UNL     1       2.927   8.052  17.642  0.00  0.00    +0.000 A 
ATOM      3  C   UNL     1       3.490   6.791  17.775  0.00  0.00    +0.000 A 
ATOM      4  C   UNL     1       3.159   6.030  18.888  0.00  0.00    +0.000 A 
ATOM      5  C   UNL     1       2.293   6.526  19.885  0.00  0.00    +0.000 A 
ATOM      6  C   UNL     1       1.693   7.807  19.749  0.00  0.00    +0.000 A 
ENDROOT
BRANCH   1   8
ATOM      7  C   UNL     1       2.173  11.015  18.696  0.00  0.00    +0.000 C 
ATOM      8  C   UNL     1       1.526   9.913  18.280  0.00  0.00    +0.000 C 
BRANCH   7  12
ATOM      9  C   UNL     1       0.237  14.852  18.665  0.00  0.00    +0.000 A 
ATOM     10  C   UNL     1      -0.482  13.675  18.868  0.00  0.00    +0.000 A 
ATOM     11  C   UNL     1       0.173  12.442  18.937  0.00  0.00    +0.000 A 
ATOM     12  C   UNL     1       1.563  12.357  18.774  0.00  0.00    +0.000 A 
ATOM     13  C   UNL     1       2.281  13.548  18.606  0.00  0.00    +0.000 A 
ATOM     14  C   UNL     1       1.623  14.786  18.542  0.00  0.00    +0.000 A 
BRANCH   9  16
ATOM     15  C   UNL     1       0.139  17.206  18.858  0.00  0.00    +0.000 C 
ATOM     16  O   UNL     1      -0.521  15.984  18.557  0.00  0.00    +0.000 OA
ENDBRANCH   9  16
ENDBRANCH   7  12
ENDBRANCH   1   8
BRANCH   3  17
ATOM     17  O   UNL     1       4.336   6.421  16.768  0.00  0.00    +0.000 OA
ATOM     18  C   UNL     1       4.770   5.065  16.749  0.00  0.00    +0.000 C 
ENDBRANCH   3  17
BRANCH   5  19
ATOM     19  O   UNL     1       2.001   5.787  21.012  0.00  0.00    +0.000 OA
ATOM     20  C   UNL     1       1.786   4.389  20.826  0.00  0.00    +0.000 C 
ENDBRANCH   5  19
BRANCH   6  21
ATOM     21  C   UNL     1       0.834   8.436  20.793  0.00  0.00    +0.000 C 
ATOM     22  C   UNL     1       1.224   9.209  21.822  0.00  0.00    +0.000 C 
BRANCH  22  23
ATOM     23  C   UNL     1       0.208   9.778  22.756  0.00  0.00    +0.000 C 
ATOM     24  O   UNL     1      -0.221   9.165  23.728  0.00  0.00    +0.000 OA
BRANCH  23  25
ATOM     25  C   UNL     1      -0.294  11.131  22.382  0.00  0.00    +0.000 C 
ATOM     26  C   UNL     1      -1.518  11.531  22.772  0.00  0.00    +0.000 C 
BRANCH  26  27
ATOM     27  C   UNL     1      -2.093  12.798  22.299  0.00  0.00    +0.000 A 
ATOM     28  C   UNL     1      -3.072  12.700  21.289  0.00  0.00    +0.000 A 
ATOM     29  C   UNL     1      -3.732  13.831  20.802  0.00  0.00    +0.000 A 
ATOM     30  C   UNL     1      -3.423  15.082  21.316  0.00  0.00    +0.000 A 
ATOM     31  C   UNL     1      -2.448  15.196  22.306  0.00  0.00    +0.000 A 
ATOM     32  C   UNL     1      -1.771  14.071  22.806  0.00  0.00    +0.000 A 
BRANCH  32  33
ATOM     33  O   UNL     1      -0.870  14.425  23.774  0.00  0.00    +0.000 OA
ATOM     34  C   UNL     1      -1.288  15.161  24.910  0.00  0.00    +0.000 C 
ENDBRANCH  32  33
ENDBRANCH  26  27
ENDBRANCH  23  25
ENDBRANCH  22  23
ENDBRANCH   6  21
TORSDOF 10
ENDMDL
