MODEL 1
REMARK VINA RESULT:      -6.8      0.000      0.000
REMARK  Name = 
REMARK  4 active torsions:
REMARK  status: ('A' for Active; 'I' for Inactive)
REMARK    1  A    between atoms: C_1  and  C_2
REMARK    2  A    between atoms: C_2  and  O_3
REMARK    3  A    between atoms: O_3  and  C_4
REMARK    4  A    between atoms: C_7  and  N_8
REMARK                            x       y       z     vdW  Elec       q    Type
REMARK                         _______ _______ _______ _____ _____    ______ ____
ROOT
ATOM      1  N   UNL     1       1.715   8.169  19.308  0.00  0.00    +0.000 N 
ATOM      2  C   UNL     1       2.321   8.635  18.162  0.00  0.00    +0.000 C 
ATOM      3  O   UNL     1       2.306   9.796  17.761  0.00  0.00    +0.000 OA
ATOM      4  N   UNL     1       3.146   7.737  17.540  0.00  0.00    +0.000 N 
ATOM      5  C   UNL     1       3.215   6.365  17.769  0.00  0.00    +0.000 A 
ATOM      6  C   UNL     1       4.450   5.744  17.664  0.00  0.00    +0.000 A 
ATOM      7  C   UNL     1       4.537   4.381  17.955  0.00  0.00    +0.000 A 
ATOM      8  C   UNL     1       3.377   3.676  18.252  0.00  0.00    +0.000 A 
ATOM      9 BR   UNL     1       3.439   1.823  18.597  0.00  0.00    +0.000 Br
ATOM     10  C   UNL     1       2.182   4.366  18.300  0.00  0.00    +0.000 A 
ATOM     11  N   UNL     1       2.091   5.706  18.120  0.00  0.00    +0.000 NA
ATOM     12  H   UNL     1       1.891   7.191  19.510  0.00  0.00    +0.000 HD
ATOM     13  H   UNL     1       3.833   8.176  16.947  0.00  0.00    +0.000 HD
ENDROOT
BRANCH   1  17
ATOM     14  C   UNL     1      -0.200  10.333  22.357  0.00  0.00    +0.000 A 
ATOM     15  C   UNL     1      -0.443  10.659  21.023  0.00  0.00    +0.000 A 
ATOM     16  C   UNL     1       0.188   9.960  19.992  0.00  0.00    +0.000 A 
ATOM     17  C   UNL     1       1.060   8.918  20.291  0.00  0.00    +0.000 A 
ATOM     18  C   UNL     1       1.314   8.594  21.627  0.00  0.00    +0.000 A 
ATOM     19  C   UNL     1       0.709   9.317  22.660  0.00  0.00    +0.000 A 
BRANCH  14  20
ATOM     20  O   UNL     1      -0.891  11.077  23.267  0.00  0.00    +0.000 OA
BRANCH  20  22
ATOM     21  C   UNL     1      -2.998  12.157  23.428  0.00  0.00    +0.000 C 
ATOM     22  C   UNL     1      -1.640  12.175  22.752  0.00  0.00    +0.000 C 
ENDBRANCH  20  22
ENDBRANCH  14  20
ENDBRANCH   1  17
TORSDOF 3
ENDMDL
MODEL 2
REMARK VINA RESULT:      -6.8      0.115      1.082
REMARK  Name = 
REMARK  4 active torsions:
REMARK  status: ('A' for Active; 'I' for Inactive)
REMARK    1  A    between atoms: C_1  and  C_2
REMARK    2  A    between atoms: C_2  and  O_3
REMARK    3  A    between atoms: O_3  and  C_4
REMARK    4  A    between atoms: C_7  and  N_8
REMARK                            x       y       z     vdW  Elec       q    Type
REMARK                         _______ _______ _______ _____ _____    ______ ____
ROOT
ATOM      1  N   UNL     1       1.766   8.090  19.324  0.00  0.00    +0.000 N 
ATOM      2  C   UNL     1       2.366   8.573  18.182  0.00  0.00    +0.000 C 
ATOM      3  O   UNL     1       2.350   9.739  17.798  0.00  0.00    +0.000 OA
ATOM      4  N   UNL     1       3.186   7.684  17.541  0.00  0.00    +0.000 N 
ATOM      5  C   UNL     1       3.255   6.308  17.749  0.00  0.00    +0.000 A 
ATOM      6  C   UNL     1       4.488   5.687  17.628  0.00  0.00    +0.000 A 
ATOM      7  C   UNL     1       4.575   4.320  17.898  0.00  0.00    +0.000 A 
ATOM      8  C   UNL     1       3.415   3.612  18.191  0.00  0.00    +0.000 A 
ATOM      9 BR   UNL     1       3.477   1.754  18.508  0.00  0.00    +0.000 Br
ATOM     10  C   UNL     1       2.222   4.302  18.257  0.00  0.00    +0.000 A 
ATOM     11  N   UNL     1       2.132   5.645  18.098  0.00  0.00    +0.000 NA
ATOM     12  H   UNL     1       1.942   7.109  19.511  0.00  0.00    +0.000 HD
ATOM     13  H   UNL     1       3.870   8.130  16.951  0.00  0.00    +0.000 HD
ENDROOT
BRANCH   1  17
ATOM     14  C   UNL     1      -0.229  10.381  22.225  0.00  0.00    +0.000 A 
ATOM     15  C   UNL     1       0.632   9.361  22.625  0.00  0.00    +0.000 A 
ATOM     16  C   UNL     1       1.300   8.580  21.680  0.00  0.00    +0.000 A 
ATOM     17  C   UNL     1       1.119   8.825  20.323  0.00  0.00    +0.000 A 
ATOM     18  C   UNL     1       0.249   9.842  19.917  0.00  0.00    +0.000 A 
ATOM     19  C   UNL     1      -0.446  10.601  20.863  0.00  0.00    +0.000 A 
BRANCH  14  20
ATOM     20  O   UNL     1      -0.805  11.082  23.243  0.00  0.00    +0.000 OA
BRANCH  20  22
ATOM     21  C   UNL     1      -2.919  12.158  23.329  0.00  0.00    +0.000 C 
ATOM     22  C   UNL     1      -1.474  12.288  22.884  0.00  0.00    +0.000 C 
ENDBRANCH  20  22
ENDBRANCH  14  20
ENDBRANCH   1  17
TORSDOF 3
ENDMDL
MODEL 3
REMARK VINA RESULT:      -6.6      3.802      8.287
REMARK  Name = 
REMARK  4 active torsions:
REMARK  status: ('A' for Active; 'I' for Inactive)
REMARK    1  A    between atoms: C_1  and  C_2
REMARK    2  A    between atoms: C_2  and  O_3
REMARK    3  A    between atoms: O_3  and  C_4
REMARK    4  A    between atoms: C_7  and  N_8
REMARK                            x       y       z     vdW  Elec       q    Type
REMARK                         _______ _______ _______ _____ _____    ______ ____
ROOT
ATOM      1  N   UNL     1       3.184   6.675  19.042  0.00  0.00    +0.000 N 
ATOM      2  C   UNL     1       2.447   5.933  19.938  0.00  0.00    +0.000 C 
ATOM      3  O   UNL     1       2.534   4.720  20.111  0.00  0.00    +0.000 OA
ATOM      4  N   UNL     1       1.695   6.667  20.814  0.00  0.00    +0.000 N 
ATOM      5  C   UNL     1       1.382   8.021  20.718  0.00  0.00    +0.000 A 
ATOM      6  C   UNL     1       1.281   8.756  21.889  0.00  0.00    +0.000 A 
ATOM      7  C   UNL     1       1.031  10.127  21.797  0.00  0.00    +0.000 A 
ATOM      8  C   UNL     1       0.804  10.691  20.547  0.00  0.00    +0.000 A 
ATOM      9 BR   UNL     1       0.408  12.527  20.378  0.00  0.00    +0.000 Br
ATOM     10  C   UNL     1       0.888   9.879  19.433  0.00  0.00    +0.000 A 
ATOM     11  N   UNL     1       1.229   8.569  19.494  0.00  0.00    +0.000 NA
ATOM     12  H   UNL     1       3.020   7.675  19.087  0.00  0.00    +0.000 HD
ATOM     13  H   UNL     1       1.462   6.163  21.655  0.00  0.00    +0.000 HD
ENDROOT
BRANCH   1  17
ATOM     14  C   UNL     1       6.296   5.429  16.510  0.00  0.00    +0.000 A 
ATOM     15  C   UNL     1       6.172   4.864  17.779  0.00  0.00    +0.000 A 
ATOM     16  C   UNL     1       5.151   5.268  18.642  0.00  0.00    +0.000 A 
ATOM     17  C   UNL     1       4.237   6.235  18.233  0.00  0.00    +0.000 A 
ATOM     18  C   UNL     1       4.364   6.810  16.965  0.00  0.00    +0.000 A 
ATOM     19  C   UNL     1       5.406   6.430  16.115  0.00  0.00    +0.000 A 
BRANCH  14  20
ATOM     20  O   UNL     1       7.321   4.937  15.758  0.00  0.00    +0.000 OA
BRANCH  20  22
ATOM     21  C   UNL     1       6.154   3.794  14.035  0.00  0.00    +0.000 C 
ATOM     22  C   UNL     1       7.122   4.921  14.346  0.00  0.00    +0.000 C 
ENDBRANCH  20  22
ENDBRANCH  14  20
ENDBRANCH   1  17
TORSDOF 3
ENDMDL
MODEL 4
REMARK VINA RESULT:      -6.4      6.194      7.458
REMARK  Name = 
REMARK  4 active torsions:
REMARK  status: ('A' for Active; 'I' for Inactive)
REMARK    1  A    between atoms: C_1  and  C_2
REMARK    2  A    between atoms: C_2  and  O_3
REMARK    3  A    between atoms: O_3  and  C_4
REMARK    4  A    between atoms: C_7  and  N_8
REMARK                            x       y       z     vdW  Elec       q    Type
REMARK                         _______ _______ _______ _____ _____    ______ ____
ROOT
ATOM      1  N   UNL     1       6.147   5.507  17.380  0.00  0.00    +0.000 N 
ATOM      2  C   UNL     1       6.425   4.566  16.413  0.00  0.00    +0.000 C 
ATOM      3  O   UNL     1       7.400   4.569  15.665  0.00  0.00    +0.000 OA
ATOM      4  N   UNL     1       5.621   3.458  16.437  0.00  0.00    +0.000 N 
ATOM      5  C   UNL     1       4.417   3.313  17.123  0.00  0.00    +0.000 A 
ATOM      6  C   UNL     1       4.107   2.068  17.647  0.00  0.00    +0.000 A 
ATOM      7  C   UNL     1       2.932   1.931  18.389  0.00  0.00    +0.000 A 
ATOM      8  C   UNL     1       2.072   3.017  18.503  0.00  0.00    +0.000 A 
ATOM      9 BR   UNL     1       0.448   2.864  19.449  0.00  0.00    +0.000 Br
ATOM     10  C   UNL     1       2.442   4.213  17.919  0.00  0.00    +0.000 A 
ATOM     11  N   UNL     1       3.624   4.393  17.282  0.00  0.00    +0.000 NA
ATOM     12  H   UNL     1       5.329   5.303  17.944  0.00  0.00    +0.000 HD
ATOM     13  H   UNL     1       6.040   2.656  15.995  0.00  0.00    +0.000 HD
ENDROOT
BRANCH   1  17
ATOM     14  C   UNL     1       8.503   8.807  18.477  0.00  0.00    +0.000 A 
ATOM     15  C   UNL     1       8.669   7.591  19.139  0.00  0.00    +0.000 A 
ATOM     16  C   UNL     1       7.892   6.483  18.798  0.00  0.00    +0.000 A 
ATOM     17  C   UNL     1       6.948   6.581  17.780  0.00  0.00    +0.000 A 
ATOM     18  C   UNL     1       6.773   7.801  17.119  0.00  0.00    +0.000 A 
ATOM     19  C   UNL     1       7.527   8.920  17.484  0.00  0.00    +0.000 A 
BRANCH  14  20
ATOM     20  O   UNL     1       9.334   9.806  18.889  0.00  0.00    +0.000 OA
BRANCH  20  22
ATOM     21  C   UNL     1      10.543  11.572  17.862  0.00  0.00    +0.000 C 
ATOM     22  C   UNL     1       9.166  11.073  18.258  0.00  0.00    +0.000 C 
ENDBRANCH  20  22
ENDBRANCH  14  20
ENDBRANCH   1  17
TORSDOF 3
ENDMDL
MODEL 5
REMARK VINA RESULT:      -6.4      3.719      7.490
REMARK  Name = 
REMARK  4 active torsions:
REMARK  status: ('A' for Active; 'I' for Inactive)
REMARK    1  A    between atoms: C_1  and  C_2
REMARK    2  A    between atoms: C_2  and  O_3
REMARK    3  A    between atoms: O_3  and  C_4
REMARK    4  A    between atoms: C_7  and  N_8
REMARK                            x       y       z     vdW  Elec       q    Type
REMARK                         _______ _______ _______ _____ _____    ______ ____
ROOT
ATOM      1  N   UNL     1       1.771   8.243  19.325  0.00  0.00    +0.000 N 
ATOM      2  C   UNL     1       1.912   9.004  18.186  0.00  0.00    +0.000 C 
ATOM      3  O   UNL     1       2.556   8.693  17.188  0.00  0.00    +0.000 OA
ATOM      4  N   UNL     1       1.109  10.111  18.128  0.00  0.00    +0.000 N 
ATOM      5  C   UNL     1       0.401  10.687  19.180  0.00  0.00    +0.000 A 
ATOM      6  C   UNL     1      -0.830  11.263  18.905  0.00  0.00    +0.000 A 
ATOM      7  C   UNL     1      -1.573  11.786  19.965  0.00  0.00    +0.000 A 
ATOM      8  C   UNL     1      -1.022  11.792  21.241  0.00  0.00    +0.000 A 
ATOM      9 BR   UNL     1      -1.966  12.536  22.694  0.00  0.00    +0.000 Br
ATOM     10  C   UNL     1       0.226  11.229  21.421  0.00  0.00    +0.000 A 
ATOM     11  N   UNL     1       0.920  10.627  20.425  0.00  0.00    +0.000 NA
ATOM     12  H   UNL     1       1.147   8.637  20.021  0.00  0.00    +0.000 HD
ATOM     13  H   UNL     1       0.955  10.440  17.188  0.00  0.00    +0.000 HD
ENDROOT
BRANCH   1  17
ATOM     14  C   UNL     1       3.065   4.320  20.084  0.00  0.00    +0.000 A 
ATOM     15  C   UNL     1       3.713   5.084  19.115  0.00  0.00    +0.000 A 
ATOM     16  C   UNL     1       3.296   6.387  18.838  0.00  0.00    +0.000 A 
ATOM     17  C   UNL     1       2.231   6.940  19.543  0.00  0.00    +0.000 A 
ATOM     18  C   UNL     1       1.573   6.174  20.510  0.00  0.00    +0.000 A 
ATOM     19  C   UNL     1       1.968   4.858  20.762  0.00  0.00    +0.000 A 
BRANCH  14  20
ATOM     20  O   UNL     1       3.579   3.071  20.273  0.00  0.00    +0.000 OA
BRANCH  20  22
ATOM     21  C   UNL     1       3.427   1.559  18.449  0.00  0.00    +0.000 C 
ATOM     22  C   UNL     1       4.331   2.525  19.192  0.00  0.00    +0.000 C 
ENDBRANCH  20  22
ENDBRANCH  14  20
ENDBRANCH   1  17
TORSDOF 3
ENDMDL
MODEL 6
REMARK VINA RESULT:      -6.4      3.750      8.187
REMARK  Name = 
REMARK  4 active torsions:
REMARK  status: ('A' for Active; 'I' for Inactive)
REMARK    1  A    between atoms: C_1  and  C_2
REMARK    2  A    between atoms: C_2  and  O_3
REMARK    3  A    between atoms: O_3  and  C_4
REMARK    4  A    between atoms: C_7  and  N_8
REMARK                            x       y       z     vdW  Elec       q    Type
REMARK                         _______ _______ _______ _____ _____    ______ ____
ROOT
ATOM      1  N   UNL     1       2.370   7.035  19.004  0.00  0.00    +0.000 N 
ATOM      2  C   UNL     1       1.891   6.758  20.265  0.00  0.00    +0.000 C 
ATOM      3  O   UNL     1       2.030   5.698  20.871  0.00  0.00    +0.000 OA
ATOM      4  N   UNL     1       1.377   7.834  20.937  0.00  0.00    +0.000 N 
ATOM      5  C   UNL     1       1.036   9.072  20.399  0.00  0.00    +0.000 A 
ATOM      6  C   UNL     1       1.228  10.202  21.179  0.00  0.00    +0.000 A 
ATOM      7  C   UNL     1       0.948  11.452  20.622  0.00  0.00    +0.000 A 
ATOM      8  C   UNL     1       0.407  11.518  19.344  0.00  0.00    +0.000 A 
ATOM      9 BR   UNL     1      -0.037  13.180  18.572  0.00  0.00    +0.000 Br
ATOM     10  C   UNL     1       0.215  10.341  18.648  0.00  0.00    +0.000 A 
ATOM     11  N   UNL     1       0.573   9.126  19.132  0.00  0.00    +0.000 NA
ATOM     12  H   UNL     1       2.212   7.988  18.693  0.00  0.00    +0.000 HD
ATOM     13  H   UNL     1       1.369   7.709  21.937  0.00  0.00    +0.000 HD
ENDROOT
BRANCH   1  17
ATOM     14  C   UNL     1       4.752   4.505  16.645  0.00  0.00    +0.000 A 
ATOM     15  C   UNL     1       5.111   5.843  16.800  0.00  0.00    +0.000 A 
ATOM     16  C   UNL     1       4.331   6.706  17.572  0.00  0.00    +0.000 A 
ATOM     17  C   UNL     1       3.188   6.229  18.207  0.00  0.00    +0.000 A 
ATOM     18  C   UNL     1       2.819   4.890  18.046  0.00  0.00    +0.000 A 
ATOM     19  C   UNL     1       3.581   4.035  17.245  0.00  0.00    +0.000 A 
BRANCH  14  20
ATOM     20  O   UNL     1       5.605   3.763  15.883  0.00  0.00    +0.000 OA
BRANCH  20  22
ATOM     21  C   UNL     1       6.203   3.953  13.594  0.00  0.00    +0.000 C 
ATOM     22  C   UNL     1       6.453   4.485  14.994  0.00  0.00    +0.000 C 
ENDBRANCH  20  22
ENDBRANCH  14  20
ENDBRANCH   1  17
TORSDOF 3
ENDMDL
MODEL 7
REMARK VINA RESULT:      -6.4      2.545      3.386
REMARK  Name = 
REMARK  4 active torsions:
REMARK  status: ('A' for Active; 'I' for Inactive)
REMARK    1  A    between atoms: C_1  and  C_2
REMARK    2  A    between atoms: C_2  and  O_3
REMARK    3  A    between atoms: O_3  and  C_4
REMARK    4  A    between atoms: C_7  and  N_8
REMARK                            x       y       z     vdW  Elec       q    Type
REMARK                         _______ _______ _______ _____ _____    ______ ____
ROOT
ATOM      1  N   UNL     1       2.560   7.000  19.175  0.00  0.00    +0.000 N 
ATOM      2  C   UNL     1       2.433   5.825  19.882  0.00  0.00    +0.000 C 
ATOM      3  O   UNL     1       1.720   5.651  20.867  0.00  0.00    +0.000 OA
ATOM      4  N   UNL     1       3.028   4.736  19.304  0.00  0.00    +0.000 N 
ATOM      5  C   UNL     1       3.955   4.742  18.264  0.00  0.00    +0.000 A 
ATOM      6  C   UNL     1       3.921   3.702  17.349  0.00  0.00    +0.000 A 
ATOM      7  C   UNL     1       4.806   3.736  16.269  0.00  0.00    +0.000 A 
ATOM      8  C   UNL     1       5.746   4.757  16.195  0.00  0.00    +0.000 A 
ATOM      9 BR   UNL     1       6.997   4.813  14.784  0.00  0.00    +0.000 Br
ATOM     10  C   UNL     1       5.734   5.735  17.170  0.00  0.00    +0.000 A 
ATOM     11  N   UNL     1       4.819   5.775  18.169  0.00  0.00    +0.000 NA
ATOM     12  H   UNL     1       3.147   6.934  18.350  0.00  0.00    +0.000 HD
ATOM     13  H   UNL     1       2.639   3.860  19.616  0.00  0.00    +0.000 HD
ENDROOT
BRANCH   1  17
ATOM     14  C   UNL     1       0.435  10.599  19.593  0.00  0.00    +0.000 A 
ATOM     15  C   UNL     1       0.613   9.771  20.701  0.00  0.00    +0.000 A 
ATOM     16  C   UNL     1       1.308   8.566  20.585  0.00  0.00    +0.000 A 
ATOM     17  C   UNL     1       1.842   8.186  19.357  0.00  0.00    +0.000 A 
ATOM     18  C   UNL     1       1.658   9.009  18.242  0.00  0.00    +0.000 A 
ATOM     19  C   UNL     1       0.932  10.199  18.351  0.00  0.00    +0.000 A 
BRANCH  14  20
ATOM     20  O   UNL     1      -0.244  11.755  19.841  0.00  0.00    +0.000 OA
BRANCH  20  22
ATOM     21  C   UNL     1      -2.473  11.895  19.037  0.00  0.00    +0.000 C 
ATOM     22  C   UNL     1      -1.028  12.273  18.769  0.00  0.00    +0.000 C 
ENDBRANCH  20  22
ENDBRANCH  14  20
ENDBRANCH   1  17
TORSDOF 3
ENDMDL
MODEL 8
REMARK VINA RESULT:      -6.3      3.767      8.223
REMARK  Name = 
REMARK  4 active torsions:
REMARK  status: ('A' for Active; 'I' for Inactive)
REMARK    1  A    between atoms: C_1  and  C_2
REMARK    2  A    between atoms: C_2  and  O_3
REMARK    3  A    between atoms: O_3  and  C_4
REMARK    4  A    between atoms: C_7  and  N_8
REMARK                            x       y       z     vdW  Elec       q    Type
REMARK                         _______ _______ _______ _____ _____    ______ ____
ROOT
ATOM      1  N   UNL     1       2.340   7.082  19.010  0.00  0.00    +0.000 N 
ATOM      2  C   UNL     1       1.873   6.815  20.279  0.00  0.00    +0.000 C 
ATOM      3  O   UNL     1       2.010   5.757  20.887  0.00  0.00    +0.000 OA
ATOM      4  N   UNL     1       1.377   7.898  20.952  0.00  0.00    +0.000 N 
ATOM      5  C   UNL     1       1.042   9.138  20.411  0.00  0.00    +0.000 A 
ATOM      6  C   UNL     1       1.253  10.269  21.184  0.00  0.00    +0.000 A 
ATOM      7  C   UNL     1       0.978  11.519  20.624  0.00  0.00    +0.000 A 
ATOM      8  C   UNL     1       0.422  11.584  19.352  0.00  0.00    +0.000 A 
ATOM      9 BR   UNL     1      -0.016  13.247  18.578  0.00  0.00    +0.000 Br
ATOM     10  C   UNL     1       0.211  10.405  18.665  0.00  0.00    +0.000 A 
ATOM     11  N   UNL     1       0.564   9.190  19.150  0.00  0.00    +0.000 NA
ATOM     12  H   UNL     1       2.187   8.035  18.697  0.00  0.00    +0.000 HD
ATOM     13  H   UNL     1       1.380   7.778  21.952  0.00  0.00    +0.000 HD
ENDROOT
BRANCH   1  17
ATOM     14  C   UNL     1       4.810   4.740  16.549  0.00  0.00    +0.000 A 
ATOM     15  C   UNL     1       3.780   4.135  17.268  0.00  0.00    +0.000 A 
ATOM     16  C   UNL     1       2.951   4.890  18.099  0.00  0.00    +0.000 A 
ATOM     17  C   UNL     1       3.141   6.265  18.207  0.00  0.00    +0.000 A 
ATOM     18  C   UNL     1       4.178   6.874  17.495  0.00  0.00    +0.000 A 
ATOM     19  C   UNL     1       5.030   6.112  16.689  0.00  0.00    +0.000 A 
BRANCH  14  20
ATOM     20  O   UNL     1       5.535   3.897  15.760  0.00  0.00    +0.000 OA
BRANCH  20  22
ATOM     21  C   UNL     1       6.269   3.950  13.504  0.00  0.00    +0.000 C 
ATOM     22  C   UNL     1       6.495   4.503  14.898  0.00  0.00    +0.000 C 
ENDBRANCH  20  22
ENDBRANCH  14  20
ENDBRANCH   1  17
TORSDOF 3
ENDMDL
MODEL 9
REMARK VINA RESULT:      -6.3      3.786      8.312
REMARK  Name = 
REMARK  4 active torsions:
REMARK  status: ('A' for Active; 'I' for Inactive)
REMARK    1  A    between atoms: C_1  and  C_2
REMARK    2  A    between atoms: C_2  and  O_3
REMARK    3  A    between atoms: O_3  and  C_4
REMARK    4  A    between atoms: C_7  and  N_8
REMARK                            x       y       z     vdW  Elec       q    Type
REMARK                         _______ _______ _______ _____ _____    ______ ____
ROOT
ATOM      1  N   UNL     1       2.976   6.503  18.937  0.00  0.00    +0.000 N 
ATOM      2  C   UNL     1       2.354   5.914  20.016  0.00  0.00    +0.000 C 
ATOM      3  O   UNL     1       2.463   4.739  20.356  0.00  0.00    +0.000 OA
ATOM      4  N   UNL     1       1.712   6.783  20.856  0.00  0.00    +0.000 N 
ATOM      5  C   UNL     1       1.387   8.113  20.597  0.00  0.00    +0.000 A 
ATOM      6  C   UNL     1       1.427   9.014  21.649  0.00  0.00    +0.000 A 
ATOM      7  C   UNL     1       1.165  10.360  21.383  0.00  0.00    +0.000 A 
ATOM      8  C   UNL     1       0.787  10.736  20.100  0.00  0.00    +0.000 A 
ATOM      9 BR   UNL     1       0.370  12.533  19.707  0.00  0.00    +0.000 Br
ATOM     10  C   UNL     1       0.737   9.767  19.118  0.00  0.00    +0.000 A 
ATOM     11  N   UNL     1       1.086   8.475  19.332  0.00  0.00    +0.000 NA
ATOM     12  H   UNL     1       2.816   7.501  18.851  0.00  0.00    +0.000 HD
ATOM     13  H   UNL     1       1.583   6.413  21.785  0.00  0.00    +0.000 HD
ENDROOT
BRANCH   1  17
ATOM     14  C   UNL     1       5.745   4.670  16.365  0.00  0.00    +0.000 A 
ATOM     15  C   UNL     1       6.043   5.910  16.928  0.00  0.00    +0.000 A 
ATOM     16  C   UNL     1       5.135   6.544  17.778  0.00  0.00    +0.000 A 
ATOM     17  C   UNL     1       3.924   5.931  18.083  0.00  0.00    +0.000 A 
ATOM     18  C   UNL     1       3.617   4.691  17.514  0.00  0.00    +0.000 A 
ATOM     19  C   UNL     1       4.512   4.073  16.634  0.00  0.00    +0.000 A 
BRANCH  14  20
ATOM     20  O   UNL     1       6.721   4.149  15.568  0.00  0.00    +0.000 OA
BRANCH  20  22
ATOM     21  C   UNL     1       6.109   3.787  13.303  0.00  0.00    +0.000 C 
ATOM     22  C   UNL     1       6.839   4.709  14.262  0.00  0.00    +0.000 C 
ENDBRANCH  20  22
ENDBRANCH  14  20
ENDBRANCH   1  17
TORSDOF 3
ENDMDL
