MODEL 1
REMARK VINA RESULT:      -8.4      0.000      0.000
REMARK  Name = 
REMARK  8 active torsions:
REMARK  status: ('A' for Active; 'I' for Inactive)
REMARK    1  A    between atoms: C_1  and  C_2
REMARK    2  A    between atoms: C_2  and  C_3
REMARK    3  A    between atoms: C_3  and  C_4
REMARK    4  A    between atoms: C_4  and  C_5
REMARK    5  A    between atoms: C_5  and  C_6
REMARK    6  A    between atoms: C_6  and  C_7
REMARK    7  A    between atoms: N_9  and  C_10
REMARK    8  A    between atoms: C_15  and  N_16
REMARK                            x       y       z     vdW  Elec       q    Type
REMARK                         _______ _______ _______ _____ _____    ______ ____
ROOT
ATOM      1  C   UNL     1       7.319   5.475  18.498  0.00  0.00    +0.000 C 
ENDROOT
BRANCH   1   2
ATOM      2  C   UNL     1       6.032   5.355  19.315  0.00  0.00    +0.000 C 
BRANCH   2   3
ATOM      3  C   UNL     1       5.175   4.199  18.787  0.00  0.00    +0.000 C 
BRANCH   3   5
ATOM      4  C   UNL     1       2.982   3.283  17.988  0.00  0.00    +0.000 C 
ATOM      5  C   UNL     1       3.697   4.537  18.508  0.00  0.00    +0.000 C 
ATOM      6  C   UNL     1       3.495   5.727  17.525  0.00  0.00    +0.000 C 
ATOM      7  C   UNL     1       2.781   6.766  18.336  0.00  0.00    +0.000 A 
ATOM      8  C   UNL     1       2.388   8.031  17.934  0.00  0.00    +0.000 A 
ATOM      9  C   UNL     1       1.709   8.845  18.851  0.00  0.00    +0.000 A 
ATOM     10  C   UNL     1       1.430   8.391  20.151  0.00  0.00    +0.000 A 
ATOM     11  C   UNL     1       1.827   7.115  20.551  0.00  0.00    +0.000 A 
ATOM     12  C   UNL     1       2.493   6.334  19.626  0.00  0.00    +0.000 A 
ATOM     13  C   UNL     1       3.007   4.984  19.795  0.00  0.00    +0.000 C 
ATOM     14  O   UNL     1       2.897   4.345  20.822  0.00  0.00    +0.000 OA
ENDBRANCH   3   5
ENDBRANCH   2   3
ENDBRANCH   1   2
BRANCH   1  15
ATOM     15  C   UNL     1       7.275   6.693  17.588  0.00  0.00    +0.000 C 
BRANCH  15  16
ATOM     16  C   UNL     1       6.690   6.359  16.233  0.00  0.00    +0.000 C 
ATOM     17  O   UNL     1       5.754   7.021  15.796  0.00  0.00    +0.000 OA
ATOM     18  N   UNL     1       7.269   5.254  15.633  0.00  0.00    +0.000 N 
ATOM     19  H   UNL     1       7.938   4.711  16.160  0.00  0.00    +0.000 HD
BRANCH  18  20
ATOM     20  C   UNL     1       6.914   4.720  14.371  0.00  0.00    +0.000 A 
ATOM     21  C   UNL     1       5.789   3.905  14.211  0.00  0.00    +0.000 A 
ATOM     22  C   UNL     1       5.471   3.355  12.971  0.00  0.00    +0.000 A 
ATOM     23  C   UNL     1       6.261   3.642  11.865  0.00  0.00    +0.000 A 
ATOM     24  C   UNL     1       7.354   4.502  11.996  0.00  0.00    +0.000 A 
ATOM     25  C   UNL     1       7.718   5.020  13.248  0.00  0.00    +0.000 A 
BRANCH  25  26
ATOM     26  N   UNL     1       8.780   5.952  13.312  0.00  0.00    +0.000 N 
ATOM     27  H   UNL     1       9.392   5.787  14.106  0.00  0.00    +0.000 HD
ATOM     28  H   UNL     1       8.463   6.915  13.301  0.00  0.00    +0.000 HD
ENDBRANCH  25  26
ENDBRANCH  18  20
ENDBRANCH  15  16
ENDBRANCH   1  15
TORSDOF 7
ENDMDL
MODEL 2
REMARK VINA RESULT:      -8.2      4.830      6.792
REMARK  Name = 
REMARK  8 active torsions:
REMARK  status: ('A' for Active; 'I' for Inactive)
REMARK    1  A    between atoms: C_1  and  C_2
REMARK    2  A    between atoms: C_2  and  C_3
REMARK    3  A    between atoms: C_3  and  C_4
REMARK    4  A    between atoms: C_4  and  C_5
REMARK    5  A    between atoms: C_5  and  C_6
REMARK    6  A    between atoms: C_6  and  C_7
REMARK    7  A    between atoms: N_9  and  C_10
REMARK    8  A    between atoms: C_15  and  N_16
REMARK                            x       y       z     vdW  Elec       q    Type
REMARK                         _______ _______ _______ _____ _____    ______ ____
ROOT
ATOM      1  C   UNL     1       7.815   8.754  17.807  0.00  0.00    +0.000 C 
ENDROOT
BRANCH   1   2
ATOM      2  C   UNL     1       7.686   7.285  17.404  0.00  0.00    +0.000 C 
BRANCH   2   3
ATOM      3  C   UNL     1       6.209   6.897  17.277  0.00  0.00    +0.000 C 
BRANCH   3   5
ATOM      4  C   UNL     1       7.155   4.594  16.976  0.00  0.00    +0.000 C 
ATOM      5  C   UNL     1       5.904   5.389  17.373  0.00  0.00    +0.000 C 
ATOM      6  C   UNL     1       4.678   4.935  16.527  0.00  0.00    +0.000 C 
ATOM      7  C   UNL     1       3.699   4.415  17.535  0.00  0.00    +0.000 A 
ATOM      8  C   UNL     1       2.429   3.914  17.301  0.00  0.00    +0.000 A 
ATOM      9  C   UNL     1       1.678   3.458  18.393  0.00  0.00    +0.000 A 
ATOM     10  C   UNL     1       2.197   3.505  19.698  0.00  0.00    +0.000 A 
ATOM     11  C   UNL     1       3.476   4.010  19.928  0.00  0.00    +0.000 A 
ATOM     12  C   UNL     1       4.195   4.451  18.833  0.00  0.00    +0.000 A 
ATOM     13  C   UNL     1       5.535   5.016  18.808  0.00  0.00    +0.000 C 
ATOM     14  O   UNL     1       6.222   5.166  19.799  0.00  0.00    +0.000 OA
ENDBRANCH   3   5
ENDBRANCH   2   3
ENDBRANCH   1   2
BRANCH   1  15
ATOM     15  C   UNL     1       8.857   8.930  18.901  0.00  0.00    +0.000 C 
BRANCH  15  16
ATOM     16  C   UNL     1       9.192  10.388  19.125  0.00  0.00    +0.000 C 
ATOM     17  O   UNL     1       9.217  10.836  20.266  0.00  0.00    +0.000 OA
ATOM     18  N   UNL     1       9.390  11.101  17.954  0.00  0.00    +0.000 N 
ATOM     19  H   UNL     1       9.203  10.645  17.073  0.00  0.00    +0.000 HD
BRANCH  18  20
ATOM     20  C   UNL     1       9.710  12.477  17.871  0.00  0.00    +0.000 A 
ATOM     21  C   UNL     1       8.772  13.468  18.177  0.00  0.00    +0.000 A 
ATOM     22  C   UNL     1       9.088  14.819  18.055  0.00  0.00    +0.000 A 
ATOM     23  C   UNL     1      10.363  15.196  17.655  0.00  0.00    +0.000 A 
ATOM     24  C   UNL     1      11.330  14.220  17.402  0.00  0.00    +0.000 A 
ATOM     25  C   UNL     1      11.011  12.855  17.468  0.00  0.00    +0.000 A 
BRANCH  25  26
ATOM     26  N   UNL     1      12.046  11.908  17.287  0.00  0.00    +0.000 N 
ATOM     27  H   UNL     1      11.967  11.121  17.924  0.00  0.00    +0.000 HD
ATOM     28  H   UNL     1      12.972  12.319  17.342  0.00  0.00    +0.000 HD
ENDBRANCH  25  26
ENDBRANCH  18  20
ENDBRANCH  15  16
ENDBRANCH   1  15
TORSDOF 7
ENDMDL
MODEL 3
REMARK VINA RESULT:      -8.0      4.877      7.172
REMARK  Name = 
REMARK  8 active torsions:
REMARK  status: ('A' for Active; 'I' for Inactive)
REMARK    1  A    between atoms: C_1  and  C_2
REMARK    2  A    between atoms: C_2  and  C_3
REMARK    3  A    between atoms: C_3  and  C_4
REMARK    4  A    between atoms: C_4  and  C_5
REMARK    5  A    between atoms: C_5  and  C_6
REMARK    6  A    between atoms: C_6  and  C_7
REMARK    7  A    between atoms: N_9  and  C_10
REMARK    8  A    between atoms: C_15  and  N_16
REMARK                            x       y       z     vdW  Elec       q    Type
REMARK                         _______ _______ _______ _____ _____    ______ ____
ROOT
ATOM      1  C   UNL     1       8.080   7.979  18.227  0.00  0.00    +0.000 C 
ENDROOT
BRANCH   1   2
ATOM      2  C   UNL     1       7.418   7.061  17.199  0.00  0.00    +0.000 C 
BRANCH   2   3
ATOM      3  C   UNL     1       6.419   6.126  17.890  0.00  0.00    +0.000 C 
BRANCH   3   5
ATOM      4  C   UNL     1       5.140   6.628  15.793  0.00  0.00    +0.000 C 
ATOM      5  C   UNL     1       5.100   5.880  17.131  0.00  0.00    +0.000 C 
ATOM      6  C   UNL     1       3.825   6.269  17.935  0.00  0.00    +0.000 C 
ATOM      7  C   UNL     1       3.076   4.981  18.098  0.00  0.00    +0.000 A 
ATOM      8  C   UNL     1       1.881   4.775  18.766  0.00  0.00    +0.000 A 
ATOM      9  C   UNL     1       1.337   3.484  18.783  0.00  0.00    +0.000 A 
ATOM     10  C   UNL     1       1.986   2.418  18.137  0.00  0.00    +0.000 A 
ATOM     11  C   UNL     1       3.189   2.630  17.465  0.00  0.00    +0.000 A 
ATOM     12  C   UNL     1       3.701   3.914  17.463  0.00  0.00    +0.000 A 
ATOM     13  C   UNL     1       4.928   4.390  16.843  0.00  0.00    +0.000 C 
ATOM     14  O   UNL     1       5.683   3.679  16.209  0.00  0.00    +0.000 OA
ENDBRANCH   3   5
ENDBRANCH   2   3
ENDBRANCH   1   2
BRANCH   1  15
ATOM     15  C   UNL     1       8.142   9.411  17.717  0.00  0.00    +0.000 C 
BRANCH  15  16
ATOM     16  C   UNL     1       9.016  10.280  18.595  0.00  0.00    +0.000 C 
ATOM     17  O   UNL     1       9.382   9.863  19.689  0.00  0.00    +0.000 OA
ATOM     18  N   UNL     1       9.270  11.532  18.063  0.00  0.00    +0.000 N 
ATOM     19  H   UNL     1       8.794  11.804  17.215  0.00  0.00    +0.000 HD
BRANCH  18  20
ATOM     20  C   UNL     1      10.052  12.544  18.671  0.00  0.00    +0.000 A 
ATOM     21  C   UNL     1       9.506  13.426  19.610  0.00  0.00    +0.000 A 
ATOM     22  C   UNL     1      10.276  14.441  20.174  0.00  0.00    +0.000 A 
ATOM     23  C   UNL     1      11.616  14.565  19.827  0.00  0.00    +0.000 A 
ATOM     24  C   UNL     1      12.191  13.656  18.937  0.00  0.00    +0.000 A 
ATOM     25  C   UNL     1      11.416  12.662  18.319  0.00  0.00    +0.000 A 
BRANCH  25  26
ATOM     26  N   UNL     1      12.063  11.715  17.492  0.00  0.00    +0.000 N 
ATOM     27  H   UNL     1      11.516  10.867  17.373  0.00  0.00    +0.000 HD
ATOM     28  H   UNL     1      13.001  11.493  17.804  0.00  0.00    +0.000 HD
ENDBRANCH  25  26
ENDBRANCH  18  20
ENDBRANCH  15  16
ENDBRANCH   1  15
TORSDOF 7
ENDMDL
MODEL 4
REMARK VINA RESULT:      -8.0      0.675      1.384
REMARK  Name = 
REMARK  8 active torsions:
REMARK  status: ('A' for Active; 'I' for Inactive)
REMARK    1  A    between atoms: C_1  and  C_2
REMARK    2  A    between atoms: C_2  and  C_3
REMARK    3  A    between atoms: C_3  and  C_4
REMARK    4  A    between atoms: C_4  and  C_5
REMARK    5  A    between atoms: C_5  and  C_6
REMARK    6  A    between atoms: C_6  and  C_7
REMARK    7  A    between atoms: N_9  and  C_10
REMARK    8  A    between atoms: C_15  and  N_16
REMARK                            x       y       z     vdW  Elec       q    Type
REMARK                         _______ _______ _______ _____ _____    ______ ____
ROOT
ATOM      1  C   UNL     1       7.227   5.487  18.831  0.00  0.00    +0.000 C 
ENDROOT
BRANCH   1   2
ATOM      2  C   UNL     1       5.826   5.561  19.438  0.00  0.00    +0.000 C 
BRANCH   2   3
ATOM      3  C   UNL     1       4.962   4.405  18.920  0.00  0.00    +0.000 C 
BRANCH   3   5
ATOM      4  C   UNL     1       2.751   3.484  18.179  0.00  0.00    +0.000 C 
ATOM      5  C   UNL     1       3.487   4.750  18.635  0.00  0.00    +0.000 C 
ATOM      6  C   UNL     1       3.293   5.896  17.599  0.00  0.00    +0.000 C 
ATOM      7  C   UNL     1       2.599   6.981  18.365  0.00  0.00    +0.000 A 
ATOM      8  C   UNL     1       2.221   8.232  17.906  0.00  0.00    +0.000 A 
ATOM      9  C   UNL     1       1.560   9.097  18.789  0.00  0.00    +0.000 A 
ATOM     10  C   UNL     1       1.284   8.708  20.111  0.00  0.00    +0.000 A 
ATOM     11  C   UNL     1       1.667   7.447  20.568  0.00  0.00    +0.000 A 
ATOM     12  C   UNL     1       2.315   6.615  19.676  0.00  0.00    +0.000 A 
ATOM     13  C   UNL     1       2.813   5.267  19.904  0.00  0.00    +0.000 C 
ATOM     14  O   UNL     1       2.702   4.678  20.961  0.00  0.00    +0.000 OA
ENDBRANCH   3   5
ENDBRANCH   2   3
ENDBRANCH   1   2
BRANCH   1  15
ATOM     15  C   UNL     1       7.462   6.634  17.860  0.00  0.00    +0.000 C 
BRANCH  15  16
ATOM     16  C   UNL     1       6.892   6.335  16.492  0.00  0.00    +0.000 C 
ATOM     17  O   UNL     1       5.886   6.925  16.111  0.00  0.00    +0.000 OA
ATOM     18  N   UNL     1       7.570   5.338  15.811  0.00  0.00    +0.000 N 
ATOM     19  H   UNL     1       8.300   4.833  16.292  0.00  0.00    +0.000 HD
BRANCH  18  20
ATOM     20  C   UNL     1       7.250   4.858  14.518  0.00  0.00    +0.000 A 
ATOM     21  C   UNL     1       7.865   5.374  13.372  0.00  0.00    +0.000 A 
ATOM     22  C   UNL     1       7.515   4.919  12.103  0.00  0.00    +0.000 A 
ATOM     23  C   UNL     1       6.565   3.915  11.967  0.00  0.00    +0.000 A 
ATOM     24  C   UNL     1       5.986   3.347  13.104  0.00  0.00    +0.000 A 
ATOM     25  C   UNL     1       6.288   3.832  14.386  0.00  0.00    +0.000 A 
BRANCH  25  26
ATOM     26  N   UNL     1       5.739   3.167  15.508  0.00  0.00    +0.000 N 
ATOM     27  H   UNL     1       5.261   3.804  16.139  0.00  0.00    +0.000 HD
ATOM     28  H   UNL     1       6.422   2.612  16.011  0.00  0.00    +0.000 HD
ENDBRANCH  25  26
ENDBRANCH  18  20
ENDBRANCH  15  16
ENDBRANCH   1  15
TORSDOF 7
ENDMDL
MODEL 5
REMARK VINA RESULT:      -8.0      1.294      2.814
REMARK  Name = 
REMARK  8 active torsions:
REMARK  status: ('A' for Active; 'I' for Inactive)
REMARK    1  A    between atoms: C_1  and  C_2
REMARK    2  A    between atoms: C_2  and  C_3
REMARK    3  A    between atoms: C_3  and  C_4
REMARK    4  A    between atoms: C_4  and  C_5
REMARK    5  A    between atoms: C_5  and  C_6
REMARK    6  A    between atoms: C_6  and  C_7
REMARK    7  A    between atoms: N_9  and  C_10
REMARK    8  A    between atoms: C_15  and  N_16
REMARK                            x       y       z     vdW  Elec       q    Type
REMARK                         _______ _______ _______ _____ _____    ______ ____
ROOT
ATOM      1  C   UNL     1       7.263   5.491  18.694  0.00  0.00    +0.000 C 
ENDROOT
BRANCH   1   2
ATOM      2  C   UNL     1       5.782   5.121  18.777  0.00  0.00    +0.000 C 
BRANCH   2   3
ATOM      3  C   UNL     1       4.932   6.378  18.993  0.00  0.00    +0.000 C 
BRANCH   3   5
ATOM      4  C   UNL     1       2.978   7.471  17.865  0.00  0.00    +0.000 C 
ATOM      5  C   UNL     1       3.435   6.238  18.655  0.00  0.00    +0.000 C 
ATOM      6  C   UNL     1       2.523   6.017  19.897  0.00  0.00    +0.000 C 
ATOM      7  C   UNL     1       1.911   4.667  19.678  0.00  0.00    +0.000 A 
ATOM      8  C   UNL     1       1.038   3.988  20.512  0.00  0.00    +0.000 A 
ATOM      9  C   UNL     1       0.565   2.733  20.106  0.00  0.00    +0.000 A 
ATOM     10  C   UNL     1       0.963   2.172  18.881  0.00  0.00    +0.000 A 
ATOM     11  C   UNL     1       1.842   2.859  18.045  0.00  0.00    +0.000 A 
ATOM     12  C   UNL     1       2.291   4.095  18.469  0.00  0.00    +0.000 A 
ATOM     13  C   UNL     1       3.204   5.001  17.789  0.00  0.00    +0.000 C 
ATOM     14  O   UNL     1       3.698   4.770  16.703  0.00  0.00    +0.000 OA
ENDBRANCH   3   5
ENDBRANCH   2   3
ENDBRANCH   1   2
BRANCH   1  15
ATOM     15  C   UNL     1       7.489   6.611  17.689  0.00  0.00    +0.000 C 
BRANCH  15  16
ATOM     16  C   UNL     1       6.859   6.299  16.351  0.00  0.00    +0.000 C 
ATOM     17  O   UNL     1       5.882   6.939  15.975  0.00  0.00    +0.000 OA
ATOM     18  N   UNL     1       7.450   5.235  15.691  0.00  0.00    +0.000 N 
ATOM     19  H   UNL     1       8.159   4.701  16.171  0.00  0.00    +0.000 HD
BRANCH  18  20
ATOM     20  C   UNL     1       7.060   4.728  14.428  0.00  0.00    +0.000 A 
ATOM     21  C   UNL     1       5.936   3.907  14.284  0.00  0.00    +0.000 A 
ATOM     22  C   UNL     1       5.584   3.384  13.041  0.00  0.00    +0.000 A 
ATOM     23  C   UNL     1       6.337   3.704  11.919  0.00  0.00    +0.000 A 
ATOM     24  C   UNL     1       7.426   4.570  12.036  0.00  0.00    +0.000 A 
ATOM     25  C   UNL     1       7.825   5.062  13.288  0.00  0.00    +0.000 A 
BRANCH  25  26
ATOM     26  N   UNL     1       8.881   6.001  13.341  0.00  0.00    +0.000 N 
ATOM     27  H   UNL     1       9.600   5.738  14.008  0.00  0.00    +0.000 HD
ATOM     28  H   UNL     1       8.561   6.947  13.518  0.00  0.00    +0.000 HD
ENDBRANCH  25  26
ENDBRANCH  18  20
ENDBRANCH  15  16
ENDBRANCH   1  15
TORSDOF 7
ENDMDL
MODEL 6
REMARK VINA RESULT:      -8.0      5.045      7.293
REMARK  Name = 
REMARK  8 active torsions:
REMARK  status: ('A' for Active; 'I' for Inactive)
REMARK    1  A    between atoms: C_1  and  C_2
REMARK    2  A    between atoms: C_2  and  C_3
REMARK    3  A    between atoms: C_3  and  C_4
REMARK    4  A    between atoms: C_4  and  C_5
REMARK    5  A    between atoms: C_5  and  C_6
REMARK    6  A    between atoms: C_6  and  C_7
REMARK    7  A    between atoms: N_9  and  C_10
REMARK    8  A    between atoms: C_15  and  N_16
REMARK                            x       y       z     vdW  Elec       q    Type
REMARK                         _______ _______ _______ _____ _____    ______ ____
ROOT
ATOM      1  C   UNL     1       7.588   8.811  17.802  0.00  0.00    +0.000 C 
ENDROOT
BRANCH   1   2
ATOM      2  C   UNL     1       7.600   7.357  17.331  0.00  0.00    +0.000 C 
BRANCH   2   3
ATOM      3  C   UNL     1       6.166   6.834  17.186  0.00  0.00    +0.000 C 
BRANCH   3   5
ATOM      4  C   UNL     1       7.336   4.623  17.016  0.00  0.00    +0.000 C 
ATOM      5  C   UNL     1       5.996   5.308  17.315  0.00  0.00    +0.000 C 
ATOM      6  C   UNL     1       4.870   4.717  16.417  0.00  0.00    +0.000 C 
ATOM      7  C   UNL     1       3.884   4.136  17.384  0.00  0.00    +0.000 A 
ATOM      8  C   UNL     1       2.682   3.512  17.095  0.00  0.00    +0.000 A 
ATOM      9  C   UNL     1       1.912   3.018  18.157  0.00  0.00    +0.000 A 
ATOM     10  C   UNL     1       2.346   3.150  19.487  0.00  0.00    +0.000 A 
ATOM     11  C   UNL     1       3.557   3.779  19.773  0.00  0.00    +0.000 A 
ATOM     12  C   UNL     1       4.297   4.255  18.706  0.00  0.00    +0.000 A 
ATOM     13  C   UNL     1       5.578   4.943  18.738  0.00  0.00    +0.000 C 
ATOM     14  O   UNL     1       6.188   5.184  19.761  0.00  0.00    +0.000 OA
ENDBRANCH   3   5
ENDBRANCH   2   3
ENDBRANCH   1   2
BRANCH   1  15
ATOM     15  C   UNL     1       8.840   9.136  18.603  0.00  0.00    +0.000 C 
BRANCH  15  16
ATOM     16  C   UNL     1       9.177  10.609  18.541  0.00  0.00    +0.000 C 
ATOM     17  O   UNL     1       8.567  11.340  17.767  0.00  0.00    +0.000 OA
ATOM     18  N   UNL     1      10.226  10.976  19.367  0.00  0.00    +0.000 N 
ATOM     19  H   UNL     1      10.737  10.252  19.851  0.00  0.00    +0.000 HD
BRANCH  18  20
ATOM     20  C   UNL     1      10.750  12.284  19.503  0.00  0.00    +0.000 A 
ATOM     21  C   UNL     1      10.365  13.121  20.556  0.00  0.00    +0.000 A 
ATOM     22  C   UNL     1      10.860  14.419  20.658  0.00  0.00    +0.000 A 
ATOM     23  C   UNL     1      11.775  14.885  19.723  0.00  0.00    +0.000 A 
ATOM     24  C   UNL     1      12.215  14.042  18.701  0.00  0.00    +0.000 A 
ATOM     25  C   UNL     1      11.686  12.751  18.552  0.00  0.00    +0.000 A 
BRANCH  25  26
ATOM     26  N   UNL     1      12.226  11.908  17.553  0.00  0.00    +0.000 N 
ATOM     27  H   UNL     1      12.023  12.241  16.615  0.00  0.00    +0.000 HD
ATOM     28  H   UNL     1      11.943  10.940  17.657  0.00  0.00    +0.000 HD
ENDBRANCH  25  26
ENDBRANCH  18  20
ENDBRANCH  15  16
ENDBRANCH   1  15
TORSDOF 7
ENDMDL
MODEL 7
REMARK VINA RESULT:      -7.8      4.084      6.537
REMARK  Name = 
REMARK  8 active torsions:
REMARK  status: ('A' for Active; 'I' for Inactive)
REMARK    1  A    between atoms: C_1  and  C_2
REMARK    2  A    between atoms: C_2  and  C_3
REMARK    3  A    between atoms: C_3  and  C_4
REMARK    4  A    between atoms: C_4  and  C_5
REMARK    5  A    between atoms: C_5  and  C_6
REMARK    6  A    between atoms: C_6  and  C_7
REMARK    7  A    between atoms: N_9  and  C_10
REMARK    8  A    between atoms: C_15  and  N_16
REMARK                            x       y       z     vdW  Elec       q    Type
REMARK                         _______ _______ _______ _____ _____    ______ ____
ROOT
ATOM      1  C   UNL     1       7.947   6.941  18.661  0.00  0.00    +0.000 C 
ENDROOT
BRANCH   1   2
ATOM      2  C   UNL     1       7.211   5.692  18.178  0.00  0.00    +0.000 C 
BRANCH   2   3
ATOM      3  C   UNL     1       6.023   5.387  19.098  0.00  0.00    +0.000 C 
BRANCH   3   5
ATOM      4  C   UNL     1       4.661   6.599  17.376  0.00  0.00    +0.000 C 
ATOM      5  C   UNL     1       4.629   5.504  18.449  0.00  0.00    +0.000 C 
ATOM      6  C   UNL     1       3.479   5.769  19.464  0.00  0.00    +0.000 C 
ATOM      7  C   UNL     1       2.588   4.570  19.344  0.00  0.00    +0.000 A 
ATOM      8  C   UNL     1       1.431   4.300  20.055  0.00  0.00    +0.000 A 
ATOM      9  C   UNL     1       0.731   3.119  19.771  0.00  0.00    +0.000 A 
ATOM     10  C   UNL     1       1.189   2.226  18.788  0.00  0.00    +0.000 A 
ATOM     11  C   UNL     1       2.354   2.503  18.074  0.00  0.00    +0.000 A 
ATOM     12  C   UNL     1       3.023   3.675  18.373  0.00  0.00    +0.000 A 
ATOM     13  C   UNL     1       4.248   4.185  17.779  0.00  0.00    +0.000 C 
ATOM     14  O   UNL     1       4.857   3.616  16.894  0.00  0.00    +0.000 OA
ENDBRANCH   3   5
ENDBRANCH   2   3
ENDBRANCH   1   2
BRANCH   1  15
ATOM     15  C   UNL     1       8.084   7.961  17.540  0.00  0.00    +0.000 C 
BRANCH  15  16
ATOM     16  C   UNL     1       8.245   9.365  18.078  0.00  0.00    +0.000 C 
ATOM     17  O   UNL     1       7.517  10.262  17.664  0.00  0.00    +0.000 OA
ATOM     18  N   UNL     1       9.285   9.500  18.982  0.00  0.00    +0.000 N 
ATOM     19  H   UNL     1       9.899   8.713  19.134  0.00  0.00    +0.000 HD
BRANCH  18  20
ATOM     20  C   UNL     1       9.661  10.699  19.635  0.00  0.00    +0.000 A 
ATOM     21  C   UNL     1       9.218  10.999  20.927  0.00  0.00    +0.000 A 
ATOM     22  C   UNL     1       9.564  12.199  21.544  0.00  0.00    +0.000 A 
ATOM     23  C   UNL     1      10.389  13.102  20.885  0.00  0.00    +0.000 A 
ATOM     24  C   UNL     1      10.888  12.791  19.618  0.00  0.00    +0.000 A 
ATOM     25  C   UNL     1      10.505  11.611  18.962  0.00  0.00    +0.000 A 
BRANCH  25  26
ATOM     26  N   UNL     1      11.104  11.303  17.718  0.00  0.00    +0.000 N 
ATOM     27  H   UNL     1      10.439  11.327  16.951  0.00  0.00    +0.000 HD
ATOM     28  H   UNL     1      11.605  10.422  17.728  0.00  0.00    +0.000 HD
ENDBRANCH  25  26
ENDBRANCH  18  20
ENDBRANCH  15  16
ENDBRANCH   1  15
TORSDOF 7
ENDMDL
MODEL 8
REMARK VINA RESULT:      -7.7      5.171      7.502
REMARK  Name = 
REMARK  8 active torsions:
REMARK  status: ('A' for Active; 'I' for Inactive)
REMARK    1  A    between atoms: C_1  and  C_2
REMARK    2  A    between atoms: C_2  and  C_3
REMARK    3  A    between atoms: C_3  and  C_4
REMARK    4  A    between atoms: C_4  and  C_5
REMARK    5  A    between atoms: C_5  and  C_6
REMARK    6  A    between atoms: C_6  and  C_7
REMARK    7  A    between atoms: N_9  and  C_10
REMARK    8  A    between atoms: C_15  and  N_16
REMARK                            x       y       z     vdW  Elec       q    Type
REMARK                         _______ _______ _______ _____ _____    ______ ____
ROOT
ATOM      1  C   UNL     1       7.906   8.692  17.560  0.00  0.00    +0.000 C 
ENDROOT
BRANCH   1   2
ATOM      2  C   UNL     1       8.677   9.398  18.675  0.00  0.00    +0.000 C 
BRANCH   2   3
ATOM      3  C   UNL     1       9.415  10.621  18.118  0.00  0.00    +0.000 C 
BRANCH   3   5
ATOM      4  C   UNL     1      11.574  11.663  18.853  0.00  0.00    +0.000 C 
ATOM      5  C   UNL     1      10.078  11.536  19.167  0.00  0.00    +0.000 C 
ATOM      6  C   UNL     1       9.868  11.069  20.638  0.00  0.00    +0.000 C 
ATOM      7  C   UNL     1       9.097  12.183  21.278  0.00  0.00    +0.000 A 
ATOM      8  C   UNL     1       8.632  12.251  22.581  0.00  0.00    +0.000 A 
ATOM      9  C   UNL     1       7.943  13.402  22.986  0.00  0.00    +0.000 A 
ATOM     10  C   UNL     1       7.727  14.466  22.095  0.00  0.00    +0.000 A 
ATOM     11  C   UNL     1       8.198  14.394  20.785  0.00  0.00    +0.000 A 
ATOM     12  C   UNL     1       8.875  13.248  20.413  0.00  0.00    +0.000 A 
ATOM     13  C   UNL     1       9.456  12.930  19.118  0.00  0.00    +0.000 C 
ATOM     14  O   UNL     1       9.423  13.679  18.162  0.00  0.00    +0.000 OA
ENDBRANCH   3   5
ENDBRANCH   2   3
ENDBRANCH   1   2
BRANCH   1  15
ATOM     15  C   UNL     1       7.716   7.217  17.878  0.00  0.00    +0.000 C 
BRANCH  15  16
ATOM     16  C   UNL     1       6.396   6.697  17.355  0.00  0.00    +0.000 C 
ATOM     17  O   UNL     1       6.018   7.020  16.233  0.00  0.00    +0.000 OA
ATOM     18  N   UNL     1       5.702   5.920  18.266  0.00  0.00    +0.000 N 
ATOM     19  H   UNL     1       6.058   5.843  19.208  0.00  0.00    +0.000 HD
BRANCH  18  20
ATOM     20  C   UNL     1       4.443   5.312  18.043  0.00  0.00    +0.000 A 
ATOM     21  C   UNL     1       3.250   5.934  18.427  0.00  0.00    +0.000 A 
ATOM     22  C   UNL     1       2.020   5.309  18.235  0.00  0.00    +0.000 A 
ATOM     23  C   UNL     1       1.967   4.062  17.624  0.00  0.00    +0.000 A 
ATOM     24  C   UNL     1       3.144   3.454  17.181  0.00  0.00    +0.000 A 
ATOM     25  C   UNL     1       4.394   4.046  17.415  0.00  0.00    +0.000 A 
BRANCH  25  26
ATOM     26  N   UNL     1       5.546   3.432  16.873  0.00  0.00    +0.000 N 
ATOM     27  H   UNL     1       6.124   4.085  16.352  0.00  0.00    +0.000 HD
ATOM     28  H   UNL     1       5.331   2.617  16.309  0.00  0.00    +0.000 HD
ENDBRANCH  25  26
ENDBRANCH  18  20
ENDBRANCH  15  16
ENDBRANCH   1  15
TORSDOF 7
ENDMDL
MODEL 9
REMARK VINA RESULT:      -7.7      4.269      7.871
REMARK  Name = 
REMARK  8 active torsions:
REMARK  status: ('A' for Active; 'I' for Inactive)
REMARK    1  A    between atoms: C_1  and  C_2
REMARK    2  A    between atoms: C_2  and  C_3
REMARK    3  A    between atoms: C_3  and  C_4
REMARK    4  A    between atoms: C_4  and  C_5
REMARK    5  A    between atoms: C_5  and  C_6
REMARK    6  A    between atoms: C_6  and  C_7
REMARK    7  A    between atoms: N_9  and  C_10
REMARK    8  A    between atoms: C_15  and  N_16
REMARK                            x       y       z     vdW  Elec       q    Type
REMARK                         _______ _______ _______ _____ _____    ______ ____
ROOT
ATOM      1  C   UNL     1       2.611   7.855  18.250  0.00  0.00    +0.000 C 
ENDROOT
BRANCH   1   2
ATOM      2  C   UNL     1       3.581   7.321  17.196  0.00  0.00    +0.000 C 
BRANCH   2   3
ATOM      3  C   UNL     1       4.510   6.270  17.815  0.00  0.00    +0.000 C 
BRANCH   3   5
ATOM      4  C   UNL     1       4.545   4.105  16.549  0.00  0.00    +0.000 C 
ATOM      5  C   UNL     1       3.988   4.820  17.787  0.00  0.00    +0.000 C 
ATOM      6  C   UNL     1       2.436   4.704  17.831  0.00  0.00    +0.000 C 
ATOM      7  C   UNL     1       2.150   3.969  19.105  0.00  0.00    +0.000 A 
ATOM      8  C   UNL     1       0.913   3.632  19.628  0.00  0.00    +0.000 A 
ATOM      9  C   UNL     1       0.868   2.920  20.835  0.00  0.00    +0.000 A 
ATOM     10  C   UNL     1       2.049   2.555  21.502  0.00  0.00    +0.000 A 
ATOM     11  C   UNL     1       3.292   2.896  20.971  0.00  0.00    +0.000 A 
ATOM     12  C   UNL     1       3.307   3.596  19.780  0.00  0.00    +0.000 A 
ATOM     13  C   UNL     1       4.460   4.066  19.029  0.00  0.00    +0.000 C 
ATOM     14  O   UNL     1       5.610   3.881  19.374  0.00  0.00    +0.000 OA
ENDBRANCH   3   5
ENDBRANCH   2   3
ENDBRANCH   1   2
BRANCH   1  15
ATOM     15  C   UNL     1       2.208   9.289  17.944  0.00  0.00    +0.000 C 
BRANCH  15  16
ATOM     16  C   UNL     1       0.862   9.633  18.543  0.00  0.00    +0.000 C 
ATOM     17  O   UNL     1       0.644   9.388  19.725  0.00  0.00    +0.000 OA
ATOM     18  N   UNL     1      -0.036  10.162  17.631  0.00  0.00    +0.000 N 
ATOM     19  H   UNL     1       0.222  10.184  16.655  0.00  0.00    +0.000 HD
BRANCH  18  20
ATOM     20  C   UNL     1      -1.361  10.566  17.919  0.00  0.00    +0.000 A 
ATOM     21  C   UNL     1      -2.465   9.862  17.426  0.00  0.00    +0.000 A 
ATOM     22  C   UNL     1      -3.765  10.291  17.685  0.00  0.00    +0.000 A 
ATOM     23  C   UNL     1      -3.976  11.417  18.471  0.00  0.00    +0.000 A 
ATOM     24  C   UNL     1      -2.887  12.096  19.020  0.00  0.00    +0.000 A 
ATOM     25  C   UNL     1      -1.571  11.708  18.724  0.00  0.00    +0.000 A 
BRANCH  25  26
ATOM     26  N   UNL     1      -0.507  12.377  19.372  0.00  0.00    +0.000 N 
ATOM     27  H   UNL     1       0.187  11.733  19.742  0.00  0.00    +0.000 HD
ATOM     28  H   UNL     1      -0.822  13.014  20.095  0.00  0.00    +0.000 HD
ENDBRANCH  25  26
ENDBRANCH  18  20
ENDBRANCH  15  16
ENDBRANCH   1  15
TORSDOF 7
ENDMDL
