MODEL 1
REMARK VINA RESULT:      -5.5      0.000      0.000
REMARK  Name = 
REMARK  4 active torsions:
REMARK  status: ('A' for Active; 'I' for Inactive)
REMARK    1  A    between atoms: C_1  and  N_2
REMARK    2  A    between atoms: N_2  and  C_3
REMARK    3  A    between atoms: N_2  and  N_4
REMARK    4  A    between atoms: N_5  and  C_6
REMARK                            x       y       z     vdW  Elec       q    Type
REMARK                         _______ _______ _______ _____ _____    ______ ____
ROOT
ATOM      1  C   UNL     1       3.116   4.192  18.771  0.00  0.00    +0.000 A 
ATOM      2  C   UNL     1       2.408   5.270  19.344  0.00  0.00    +0.000 A 
ATOM      3 BR   UNL     1       2.643   7.079  18.784  0.00  0.00    +0.000 Br
ATOM      4  C   UNL     1       1.449   5.058  20.343  0.00  0.00    +0.000 A 
ATOM      5  C   UNL     1       1.148   3.767  20.771  0.00  0.00    +0.000 A 
ATOM      6  C   UNL     1       1.811   2.684  20.202  0.00  0.00    +0.000 A 
ATOM      7  C   UNL     1       2.783   2.899  19.215  0.00  0.00    +0.000 A 
ATOM      8 BR   UNL     1       3.620   1.353  18.478  0.00  0.00    +0.000 Br
ENDROOT
BRANCH   1  10
ATOM      9  N   UNL     1       5.228   4.431  18.151  0.00  0.00    +0.000 NA
ATOM     10  N   UNL     1       4.059   4.337  17.725  0.00  0.00    +0.000 NA
BRANCH   9  12
ATOM     11  C   UNL     1       5.775   4.019  15.881  0.00  0.00    +0.000 C 
ATOM     12  N   UNL     1       6.167   4.592  17.157  0.00  0.00    +0.000 N 
ATOM     13  C   UNL     1       7.586   4.631  17.476  0.00  0.00    +0.000 C 
ENDBRANCH   9  12
ENDBRANCH   1  10
TORSDOF 2
ENDMDL
MODEL 2
REMARK VINA RESULT:      -5.4      0.565      1.028
REMARK  Name = 
REMARK  4 active torsions:
REMARK  status: ('A' for Active; 'I' for Inactive)
REMARK    1  A    between atoms: C_1  and  N_2
REMARK    2  A    between atoms: N_2  and  C_3
REMARK    3  A    between atoms: N_2  and  N_4
REMARK    4  A    between atoms: N_5  and  C_6
REMARK                            x       y       z     vdW  Elec       q    Type
REMARK                         _______ _______ _______ _____ _____    ______ ____
ROOT
ATOM      1  C   UNL     1       3.055   4.335  18.684  0.00  0.00    +0.000 A 
ATOM      2  C   UNL     1       2.420   5.413  19.338  0.00  0.00    +0.000 A 
ATOM      3 BR   UNL     1       2.568   7.220  18.744  0.00  0.00    +0.000 Br
ATOM      4  C   UNL     1       1.600   5.200  20.455  0.00  0.00    +0.000 A 
ATOM      5  C   UNL     1       1.367   3.910  20.925  0.00  0.00    +0.000 A 
ATOM      6  C   UNL     1       1.957   2.828  20.279  0.00  0.00    +0.000 A 
ATOM      7  C   UNL     1       2.791   3.043  19.173  0.00  0.00    +0.000 A 
ATOM      8 BR   UNL     1       3.535   1.497  18.342  0.00  0.00    +0.000 Br
ENDROOT
BRANCH   1  10
ATOM      9  N   UNL     1       5.066   4.591  17.794  0.00  0.00    +0.000 NA
ATOM     10  N   UNL     1       3.853   4.480  17.523  0.00  0.00    +0.000 NA
BRANCH   9  12
ATOM     11  C   UNL     1       7.286   4.605  16.960  0.00  0.00    +0.000 C 
ATOM     12  N   UNL     1       5.866   4.751  16.686  0.00  0.00    +0.000 N 
ATOM     13  C   UNL     1       5.472   5.648  15.609  0.00  0.00    +0.000 C 
ENDBRANCH   9  12
ENDBRANCH   1  10
TORSDOF 2
ENDMDL
MODEL 3
REMARK VINA RESULT:      -5.4      0.622      2.841
REMARK  Name = 
REMARK  4 active torsions:
REMARK  status: ('A' for Active; 'I' for Inactive)
REMARK    1  A    between atoms: C_1  and  N_2
REMARK    2  A    between atoms: N_2  and  C_3
REMARK    3  A    between atoms: N_2  and  N_4
REMARK    4  A    between atoms: N_5  and  C_6
REMARK                            x       y       z     vdW  Elec       q    Type
REMARK                         _______ _______ _______ _____ _____    ______ ____
ROOT
ATOM      1  C   UNL     1       2.948   4.286  18.584  0.00  0.00    +0.000 A 
ATOM      2  C   UNL     1       2.754   3.004  19.142  0.00  0.00    +0.000 A 
ATOM      3 BR   UNL     1       3.555   1.428  18.426  0.00  0.00    +0.000 Br
ATOM      4  C   UNL     1       1.980   2.827  20.297  0.00  0.00    +0.000 A 
ATOM      5  C   UNL     1       1.411   3.923  20.941  0.00  0.00    +0.000 A 
ATOM      6  C   UNL     1       1.611   5.201  20.428  0.00  0.00    +0.000 A 
ATOM      7  C   UNL     1       2.371   5.375  19.262  0.00  0.00    +0.000 A 
ATOM      8 BR   UNL     1       2.609   7.164  18.648  0.00  0.00    +0.000 Br
ENDROOT
BRANCH   1  10
ATOM      9  N   UNL     1       4.975   4.523  17.724  0.00  0.00    +0.000 NA
ATOM     10  N   UNL     1       3.758   4.535  17.449  0.00  0.00    +0.000 NA
BRANCH   9  12
ATOM     11  C   UNL     1       7.203   4.599  16.916  0.00  0.00    +0.000 C 
ATOM     12  N   UNL     1       5.787   4.780  16.643  0.00  0.00    +0.000 N 
ATOM     13  C   UNL     1       5.409   5.776  15.651  0.00  0.00    +0.000 C 
ENDBRANCH   9  12
ENDBRANCH   1  10
TORSDOF 2
ENDMDL
MODEL 4
REMARK VINA RESULT:      -5.4      0.632      2.713
REMARK  Name = 
REMARK  4 active torsions:
REMARK  status: ('A' for Active; 'I' for Inactive)
REMARK    1  A    between atoms: C_1  and  N_2
REMARK    2  A    between atoms: N_2  and  C_3
REMARK    3  A    between atoms: N_2  and  N_4
REMARK    4  A    between atoms: N_5  and  C_6
REMARK                            x       y       z     vdW  Elec       q    Type
REMARK                         _______ _______ _______ _____ _____    ______ ____
ROOT
ATOM      1  C   UNL     1       2.952   4.320  18.690  0.00  0.00    +0.000 A 
ATOM      2  C   UNL     1       2.741   2.982  19.089  0.00  0.00    +0.000 A 
ATOM      3 BR   UNL     1       3.647   1.506  18.289  0.00  0.00    +0.000 Br
ATOM      4  C   UNL     1       1.869   2.670  20.140  0.00  0.00    +0.000 A 
ATOM      5  C   UNL     1       1.213   3.680  20.839  0.00  0.00    +0.000 A 
ATOM      6  C   UNL     1       1.426   5.009  20.485  0.00  0.00    +0.000 A 
ATOM      7  C   UNL     1       2.286   5.320  19.422  0.00  0.00    +0.000 A 
ATOM      8 BR   UNL     1       2.532   7.168  19.025  0.00  0.00    +0.000 Br
ENDROOT
BRANCH   1  10
ATOM      9  N   UNL     1       5.012   4.883  18.105  0.00  0.00    +0.000 NA
ATOM     10  N   UNL     1       3.856   4.703  17.670  0.00  0.00    +0.000 NA
BRANCH   9  12
ATOM     11  C   UNL     1       5.290   5.833  15.951  0.00  0.00    +0.000 C 
ATOM     12  N   UNL     1       5.911   5.274  17.139  0.00  0.00    +0.000 N 
ATOM     13  C   UNL     1       7.178   4.577  16.978  0.00  0.00    +0.000 C 
ENDBRANCH   9  12
ENDBRANCH   1  10
TORSDOF 2
ENDMDL
MODEL 5
REMARK VINA RESULT:      -5.2      1.230      1.631
REMARK  Name = 
REMARK  4 active torsions:
REMARK  status: ('A' for Active; 'I' for Inactive)
REMARK    1  A    between atoms: C_1  and  N_2
REMARK    2  A    between atoms: N_2  and  C_3
REMARK    3  A    between atoms: N_2  and  N_4
REMARK    4  A    between atoms: N_5  and  C_6
REMARK                            x       y       z     vdW  Elec       q    Type
REMARK                         _______ _______ _______ _____ _____    ______ ____
ROOT
ATOM      1  C   UNL     1       3.716   4.032  19.515  0.00  0.00    +0.000 A 
ATOM      2  C   UNL     1       2.672   4.980  19.455  0.00  0.00    +0.000 A 
ATOM      3 BR   UNL     1       2.724   6.511  18.319  0.00  0.00    +0.000 Br
ATOM      4  C   UNL     1       1.503   4.817  20.211  0.00  0.00    +0.000 A 
ATOM      5  C   UNL     1       1.332   3.695  21.017  0.00  0.00    +0.000 A 
ATOM      6  C   UNL     1       2.335   2.731  21.072  0.00  0.00    +0.000 A 
ATOM      7  C   UNL     1       3.511   2.903  20.329  0.00  0.00    +0.000 A 
ATOM      8 BR   UNL     1       4.817   1.519  20.450  0.00  0.00    +0.000 Br
ENDROOT
BRANCH   1  10
ATOM      9  N   UNL     1       5.778   4.808  19.288  0.00  0.00    +0.000 NA
ATOM     10  N   UNL     1       4.898   4.114  18.740  0.00  0.00    +0.000 NA
BRANCH   9  12
ATOM     11  C   UNL     1       7.840   5.949  19.029  0.00  0.00    +0.000 C 
ATOM     12  N   UNL     1       6.933   4.921  18.549  0.00  0.00    +0.000 N 
ATOM     13  C   UNL     1       6.933   4.629  17.122  0.00  0.00    +0.000 C 
ENDBRANCH   9  12
ENDBRANCH   1  10
TORSDOF 2
ENDMDL
MODEL 6
REMARK VINA RESULT:      -5.2      1.102      1.356
REMARK  Name = 
REMARK  4 active torsions:
REMARK  status: ('A' for Active; 'I' for Inactive)
REMARK    1  A    between atoms: C_1  and  N_2
REMARK    2  A    between atoms: N_2  and  C_3
REMARK    3  A    between atoms: N_2  and  N_4
REMARK    4  A    between atoms: N_5  and  C_6
REMARK                            x       y       z     vdW  Elec       q    Type
REMARK                         _______ _______ _______ _____ _____    ______ ____
ROOT
ATOM      1  C   UNL     1       3.126   4.178  19.108  0.00  0.00    +0.000 A 
ATOM      2  C   UNL     1       2.251   5.096  19.728  0.00  0.00    +0.000 A 
ATOM      3 BR   UNL     1       2.467   6.987  19.597  0.00  0.00    +0.000 Br
ATOM      4  C   UNL     1       1.134   4.655  20.450  0.00  0.00    +0.000 A 
ATOM      5  C   UNL     1       0.844   3.297  20.544  0.00  0.00    +0.000 A 
ATOM      6  C   UNL     1       1.674   2.373  19.917  0.00  0.00    +0.000 A 
ATOM      7  C   UNL     1       2.802   2.813  19.210  0.00  0.00    +0.000 A 
ATOM      8 BR   UNL     1       3.866   1.476  18.366  0.00  0.00    +0.000 Br
ENDROOT
BRANCH   1  10
ATOM      9  N   UNL     1       3.938   4.752  17.129  0.00  0.00    +0.000 NA
ATOM     10  N   UNL     1       4.241   4.562  18.324  0.00  0.00    +0.000 NA
BRANCH   9  12
ATOM     11  C   UNL     1       5.142   6.543  16.146  0.00  0.00    +0.000 C 
ATOM     12  N   UNL     1       5.006   5.109  16.338  0.00  0.00    +0.000 N 
ATOM     13  C   UNL     1       5.461   4.235  15.266  0.00  0.00    +0.000 C 
ENDBRANCH   9  12
ENDBRANCH   1  10
TORSDOF 2
ENDMDL
MODEL 7
REMARK VINA RESULT:      -5.1      0.841      2.683
REMARK  Name = 
REMARK  4 active torsions:
REMARK  status: ('A' for Active; 'I' for Inactive)
REMARK    1  A    between atoms: C_1  and  N_2
REMARK    2  A    between atoms: N_2  and  C_3
REMARK    3  A    between atoms: N_2  and  N_4
REMARK    4  A    between atoms: N_5  and  C_6
REMARK                            x       y       z     vdW  Elec       q    Type
REMARK                         _______ _______ _______ _____ _____    ______ ____
ROOT
ATOM      1  C   UNL     1       3.602   4.297  19.442  0.00  0.00    +0.000 A 
ATOM      2  C   UNL     1       3.419   3.093  20.155  0.00  0.00    +0.000 A 
ATOM      3 BR   UNL     1       4.778   1.763  20.312  0.00  0.00    +0.000 Br
ATOM      4  C   UNL     1       2.220   2.826  20.831  0.00  0.00    +0.000 A 
ATOM      5  C   UNL     1       1.191   3.764  20.840  0.00  0.00    +0.000 A 
ATOM      6  C   UNL     1       1.357   4.972  20.170  0.00  0.00    +0.000 A 
ATOM      7  C   UNL     1       2.550   5.230  19.479  0.00  0.00    +0.000 A 
ATOM      8 BR   UNL     1       2.693   6.921  18.610  0.00  0.00    +0.000 Br
ENDROOT
BRANCH   1  10
ATOM      9  N   UNL     1       4.874   4.161  17.635  0.00  0.00    +0.000 NA
ATOM     10  N   UNL     1       4.805   4.646  18.783  0.00  0.00    +0.000 NA
BRANCH   9  12
ATOM     11  C   UNL     1       6.112   3.933  15.626  0.00  0.00    +0.000 C 
ATOM     12  N   UNL     1       6.042   4.468  16.975  0.00  0.00    +0.000 N 
ATOM     13  C   UNL     1       7.289   4.625  17.708  0.00  0.00    +0.000 C 
ENDBRANCH   9  12
ENDBRANCH   1  10
TORSDOF 2
ENDMDL
MODEL 8
REMARK VINA RESULT:      -5.0      1.157      2.972
REMARK  Name = 
REMARK  4 active torsions:
REMARK  status: ('A' for Active; 'I' for Inactive)
REMARK    1  A    between atoms: C_1  and  N_2
REMARK    2  A    between atoms: N_2  and  C_3
REMARK    3  A    between atoms: N_2  and  N_4
REMARK    4  A    between atoms: N_5  and  C_6
REMARK                            x       y       z     vdW  Elec       q    Type
REMARK                         _______ _______ _______ _____ _____    ______ ____
ROOT
ATOM      1  C   UNL     1       3.871   4.742  18.919  0.00  0.00    +0.000 A 
ATOM      2  C   UNL     1       3.484   3.732  19.827  0.00  0.00    +0.000 A 
ATOM      3 BR   UNL     1       4.464   2.112  20.056  0.00  0.00    +0.000 Br
ATOM      4  C   UNL     1       2.361   3.891  20.651  0.00  0.00    +0.000 A 
ATOM      5  C   UNL     1       1.619   5.069  20.614  0.00  0.00    +0.000 A 
ATOM      6  C   UNL     1       1.997   6.091  19.749  0.00  0.00    +0.000 A 
ATOM      7  C   UNL     1       3.109   5.925  18.913  0.00  0.00    +0.000 A 
ATOM      8 BR   UNL     1       3.562   7.388  17.779  0.00  0.00    +0.000 Br
ENDROOT
BRANCH   1  10
ATOM      9  N   UNL     1       4.775   4.150  16.986  0.00  0.00    +0.000 NA
ATOM     10  N   UNL     1       5.021   4.662  18.097  0.00  0.00    +0.000 NA
BRANCH   9  12
ATOM     11  C   UNL     1       7.106   4.529  16.777  0.00  0.00    +0.000 C 
ATOM     12  N   UNL     1       5.879   4.042  16.171  0.00  0.00    +0.000 N 
ATOM     13  C   UNL     1       5.747   4.148  14.725  0.00  0.00    +0.000 C 
ENDBRANCH   9  12
ENDBRANCH   1  10
TORSDOF 2
ENDMDL
MODEL 9
REMARK VINA RESULT:      -5.0      1.319      3.023
REMARK  Name = 
REMARK  4 active torsions:
REMARK  status: ('A' for Active; 'I' for Inactive)
REMARK    1  A    between atoms: C_1  and  N_2
REMARK    2  A    between atoms: N_2  and  C_3
REMARK    3  A    between atoms: N_2  and  N_4
REMARK    4  A    between atoms: N_5  and  C_6
REMARK                            x       y       z     vdW  Elec       q    Type
REMARK                         _______ _______ _______ _____ _____    ______ ____
ROOT
ATOM      1  C   UNL     1       3.562   4.253  19.323  0.00  0.00    +0.000 A 
ATOM      2  C   UNL     1       3.406   3.087  20.103  0.00  0.00    +0.000 A 
ATOM      3 BR   UNL     1       4.751   1.742  20.239  0.00  0.00    +0.000 Br
ATOM      4  C   UNL     1       2.248   2.875  20.864  0.00  0.00    +0.000 A 
ATOM      5  C   UNL     1       1.236   3.831  20.893  0.00  0.00    +0.000 A 
ATOM      6  C   UNL     1       1.378   5.003  20.156  0.00  0.00    +0.000 A 
ATOM      7  C   UNL     1       2.529   5.206  19.381  0.00  0.00    +0.000 A 
ATOM      8 BR   UNL     1       2.643   6.851  18.424  0.00  0.00    +0.000 Br
ENDROOT
BRANCH   1  10
ATOM      9  N   UNL     1       5.572   5.179  19.240  0.00  0.00    +0.000 NA
ATOM     10  N   UNL     1       4.726   4.548  18.574  0.00  0.00    +0.000 NA
BRANCH   9  12
ATOM     11  C   UNL     1       7.868   5.756  19.368  0.00  0.00    +0.000 C 
ATOM     12  N   UNL     1       6.708   5.496  18.532  0.00  0.00    +0.000 N 
ATOM     13  C   UNL     1       6.619   6.195  17.259  0.00  0.00    +0.000 C 
ENDBRANCH   9  12
ENDBRANCH   1  10
TORSDOF 2
ENDMDL
