MODEL 1
REMARK VINA RESULT:      -9.1      0.000      0.000
REMARK  Name = 
REMARK  8 active torsions:
REMARK  status: ('A' for Active; 'I' for Inactive)
REMARK    1  A    between atoms: N_1  and  C_2
REMARK    2  A    between atoms: C_2  and  C_3
REMARK    3  A    between atoms: C_3  and  N_4
REMARK    4  A    between atoms: C_5  and  C_7
REMARK    5  A    between atoms: C_8  and  C_9
REMARK    6  A    between atoms: C_12  and  C_13
REMARK    7  A    between atoms: C_13  and  C_24
REMARK    8  A    between atoms: C_27  and  O_28
REMARK                            x       y       z     vdW  Elec       q    Type
REMARK                         _______ _______ _______ _____ _____    ______ ____
ROOT
ATOM      1  C   UNL     1       3.202   5.901  18.403  0.00  0.00    +0.000 C 
ATOM      2  C   UNL     1       2.749   4.790  19.049  0.00  0.00    +0.000 C 
ATOM      3  C   UNL     1       1.830   4.832  20.274  0.00  0.00    +0.000 C 
ATOM      4  C   UNL     1       0.579   3.983  20.017  0.00  0.00    +0.000 C 
ATOM      5  C   UNL     1       0.975   2.523  19.751  0.00  0.00    +0.000 C 
ATOM      6  C   UNL     1       1.745   1.968  20.961  0.00  0.00    +0.000 C 
ATOM      7  C   UNL     1       3.027   2.786  21.190  0.00  0.00    +0.000 C 
ATOM      8  C   UNL     1       2.634   4.249  21.465  0.00  0.00    +0.000 C 
ATOM      9  C   UNL     1       3.916   2.740  19.934  0.00  0.00    +0.000 C 
ATOM     10  C   UNL     1       3.155   3.333  18.740  0.00  0.00    +0.000 C 
ATOM     11  C   UNL     1       1.880   2.485  18.507  0.00  0.00    +0.000 C 
ENDROOT
BRANCH   1  15
ATOM     12  C   UNL     1       1.220   9.709  19.077  0.00  0.00    +0.000 A 
ATOM     13  C   UNL     1       1.771   9.404  17.827  0.00  0.00    +0.000 A 
ATOM     14  C   UNL     1       2.447   8.190  17.609  0.00  0.00    +0.000 A 
ATOM     15  C   UNL     1       2.574   7.241  18.629  0.00  0.00    +0.000 A 
ATOM     16  C   UNL     1       2.062   7.568  19.893  0.00  0.00    +0.000 A 
ATOM     17  C   UNL     1       1.401   8.790  20.116  0.00  0.00    +0.000 A 
BRANCH  12  19
ATOM     18  C   UNL     1      -0.751  11.092  19.698  0.00  0.00    +0.000 C 
ATOM     19  C   UNL     1       0.515  10.985  19.266  0.00  0.00    +0.000 C 
BRANCH  18  21
ATOM     20  N   UNL     1      -0.462  13.458  19.791  0.00  0.00    +0.000 N 
ATOM     21  C   UNL     1      -1.374  12.432  19.810  0.00  0.00    +0.000 C 
ATOM     22  O   UNL     1      -2.580  12.592  19.916  0.00  0.00    +0.000 OA
ATOM     23  H   UNL     1       0.519  13.303  19.592  0.00  0.00    +0.000 HD
BRANCH  20  24
ATOM     24  C   UNL     1      -0.897  14.840  19.857  0.00  0.00    +0.000 C 
BRANCH  24  25
ATOM     25  C   UNL     1      -0.202  15.710  18.802  0.00  0.00    +0.000 C 
BRANCH  25  26
ATOM     26  N   UNL     1      -0.998  16.893  18.450  0.00  0.00    +0.000 NA
ATOM     27  H   UNL     1      -1.602  16.653  17.661  0.00  0.00    +0.000 HD
ATOM     28  H   UNL     1      -0.374  17.622  18.104  0.00  0.00    +0.000 HD
ENDBRANCH  25  26
ENDBRANCH  24  25
ENDBRANCH  20  24
ENDBRANCH  18  21
ENDBRANCH  12  19
ENDBRANCH   1  15
BRANCH   1  29
ATOM     29  C   UNL     1       4.453   5.771  17.600  0.00  0.00    +0.000 A 
ATOM     30  C   UNL     1       5.667   6.371  17.960  0.00  0.00    +0.000 A 
ATOM     31  C   UNL     1       6.785   6.266  17.117  0.00  0.00    +0.000 A 
ATOM     32  C   UNL     1       6.693   5.542  15.929  0.00  0.00    +0.000 A 
ATOM     33  C   UNL     1       5.502   4.932  15.563  0.00  0.00    +0.000 A 
ATOM     34  C   UNL     1       4.386   5.053  16.392  0.00  0.00    +0.000 A 
BRANCH  32  35
ATOM     35  O   UNL     1       7.756   5.408  15.084  0.00  0.00    +0.000 OA
ATOM     36  H   UNL     1       7.792   6.184  14.501  0.00  0.00    +0.000 HD
ENDBRANCH  32  35
ENDBRANCH   1  29
TORSDOF 8
ENDMDL
MODEL 2
REMARK VINA RESULT:      -9.1      1.310      1.694
REMARK  Name = 
REMARK  8 active torsions:
REMARK  status: ('A' for Active; 'I' for Inactive)
REMARK    1  A    between atoms: N_1  and  C_2
REMARK    2  A    between atoms: C_2  and  C_3
REMARK    3  A    between atoms: C_3  and  N_4
REMARK    4  A    between atoms: C_5  and  C_7
REMARK    5  A    between atoms: C_8  and  C_9
REMARK    6  A    between atoms: C_12  and  C_13
REMARK    7  A    between atoms: C_13  and  C_24
REMARK    8  A    between atoms: C_27  and  O_28
REMARK                            x       y       z     vdW  Elec       q    Type
REMARK                         _______ _______ _______ _____ _____    ______ ____
ROOT
ATOM      1  C   UNL     1       3.173   5.898  18.403  0.00  0.00    +0.000 C 
ATOM      2  C   UNL     1       2.719   4.788  19.051  0.00  0.00    +0.000 C 
ATOM      3  C   UNL     1       1.795   4.832  20.272  0.00  0.00    +0.000 C 
ATOM      4  C   UNL     1       0.546   3.980  20.012  0.00  0.00    +0.000 C 
ATOM      5  C   UNL     1       0.945   2.519  19.750  0.00  0.00    +0.000 C 
ATOM      6  C   UNL     1       1.712   1.969  20.965  0.00  0.00    +0.000 C 
ATOM      7  C   UNL     1       2.992   2.789  21.198  0.00  0.00    +0.000 C 
ATOM      8  C   UNL     1       2.595   4.252  21.467  0.00  0.00    +0.000 C 
ATOM      9  C   UNL     1       3.885   2.741  19.945  0.00  0.00    +0.000 C 
ATOM     10  C   UNL     1       3.128   3.331  18.747  0.00  0.00    +0.000 C 
ATOM     11  C   UNL     1       1.856   2.480  18.510  0.00  0.00    +0.000 C 
ENDROOT
BRANCH   1  15
ATOM     12  C   UNL     1       1.182   9.704  19.061  0.00  0.00    +0.000 A 
ATOM     13  C   UNL     1       1.735   9.396  17.812  0.00  0.00    +0.000 A 
ATOM     14  C   UNL     1       2.414   8.183  17.600  0.00  0.00    +0.000 A 
ATOM     15  C   UNL     1       2.541   7.238  18.624  0.00  0.00    +0.000 A 
ATOM     16  C   UNL     1       2.027   7.568  19.886  0.00  0.00    +0.000 A 
ATOM     17  C   UNL     1       1.363   8.789  20.104  0.00  0.00    +0.000 A 
BRANCH  12  19
ATOM     18  C   UNL     1      -0.757  11.092  19.767  0.00  0.00    +0.000 C 
ATOM     19  C   UNL     1       0.474  10.980  19.244  0.00  0.00    +0.000 C 
BRANCH  18  21
ATOM     20  N   UNL     1      -2.303  12.524  20.885  0.00  0.00    +0.000 N 
ATOM     21  C   UNL     1      -1.390  12.429  19.865  0.00  0.00    +0.000 C 
ATOM     22  O   UNL     1      -1.120  13.343  19.101  0.00  0.00    +0.000 OA
ATOM     23  H   UNL     1      -2.426  11.786  21.569  0.00  0.00    +0.000 HD
BRANCH  20  24
ATOM     24  C   UNL     1      -2.995  13.772  21.149  0.00  0.00    +0.000 C 
BRANCH  24  25
ATOM     25  C   UNL     1      -4.518  13.603  21.102  0.00  0.00    +0.000 C 
BRANCH  25  26
ATOM     26  N   UNL     1      -4.976  12.492  21.946  0.00  0.00    +0.000 NA
ATOM     27  H   UNL     1      -5.918  12.227  21.650  0.00  0.00    +0.000 HD
ATOM     28  H   UNL     1      -5.076  12.824  22.906  0.00  0.00    +0.000 HD
ENDBRANCH  25  26
ENDBRANCH  24  25
ENDBRANCH  20  24
ENDBRANCH  18  21
ENDBRANCH  12  19
ENDBRANCH   1  15
BRANCH   1  29
ATOM     29  C   UNL     1       4.427   5.768  17.606  0.00  0.00    +0.000 A 
ATOM     30  C   UNL     1       5.640   6.365  17.973  0.00  0.00    +0.000 A 
ATOM     31  C   UNL     1       6.762   6.260  17.135  0.00  0.00    +0.000 A 
ATOM     32  C   UNL     1       6.675   5.540  15.945  0.00  0.00    +0.000 A 
ATOM     33  C   UNL     1       5.484   4.933  15.571  0.00  0.00    +0.000 A 
ATOM     34  C   UNL     1       4.364   5.054  16.395  0.00  0.00    +0.000 A 
BRANCH  32  35
ATOM     35  O   UNL     1       7.741   5.407  15.104  0.00  0.00    +0.000 OA
ATOM     36  H   UNL     1       8.481   5.016  15.595  0.00  0.00    +0.000 HD
ENDBRANCH  32  35
ENDBRANCH   1  29
TORSDOF 8
ENDMDL
MODEL 3
REMARK VINA RESULT:      -8.9      1.056      1.168
REMARK  Name = 
REMARK  8 active torsions:
REMARK  status: ('A' for Active; 'I' for Inactive)
REMARK    1  A    between atoms: N_1  and  C_2
REMARK    2  A    between atoms: C_2  and  C_3
REMARK    3  A    between atoms: C_3  and  N_4
REMARK    4  A    between atoms: C_5  and  C_7
REMARK    5  A    between atoms: C_8  and  C_9
REMARK    6  A    between atoms: C_12  and  C_13
REMARK    7  A    between atoms: C_13  and  C_24
REMARK    8  A    between atoms: C_27  and  O_28
REMARK                            x       y       z     vdW  Elec       q    Type
REMARK                         _______ _______ _______ _____ _____    ______ ____
ROOT
ATOM      1  C   UNL     1       3.200   5.925  18.390  0.00  0.00    +0.000 C 
ATOM      2  C   UNL     1       2.720   4.837  19.056  0.00  0.00    +0.000 C 
ATOM      3  C   UNL     1       1.801   4.922  20.278  0.00  0.00    +0.000 C 
ATOM      4  C   UNL     1       0.530   4.098  20.034  0.00  0.00    +0.000 C 
ATOM      5  C   UNL     1       0.893   2.624  19.794  0.00  0.00    +0.000 C 
ATOM      6  C   UNL     1       1.649   2.074  21.016  0.00  0.00    +0.000 C 
ATOM      7  C   UNL     1       2.949   2.866  21.233  0.00  0.00    +0.000 C 
ATOM      8  C   UNL     1       2.589   4.342  21.480  0.00  0.00    +0.000 C 
ATOM      9  C   UNL     1       3.838   2.776  19.979  0.00  0.00    +0.000 C 
ATOM     10  C   UNL     1       3.093   3.365  18.774  0.00  0.00    +0.000 C 
ATOM     11  C   UNL     1       1.799   2.543  18.553  0.00  0.00    +0.000 C 
ENDROOT
BRANCH   1  15
ATOM     12  C   UNL     1       1.303   9.790  18.984  0.00  0.00    +0.000 A 
ATOM     13  C   UNL     1       1.900   9.470  17.759  0.00  0.00    +0.000 A 
ATOM     14  C   UNL     1       2.549   8.237  17.568  0.00  0.00    +0.000 A 
ATOM     15  C   UNL     1       2.602   7.284  18.592  0.00  0.00    +0.000 A 
ATOM     16  C   UNL     1       2.044   7.624  19.832  0.00  0.00    +0.000 A 
ATOM     17  C   UNL     1       1.411   8.865  20.028  0.00  0.00    +0.000 A 
BRANCH  12  19
ATOM     18  C   UNL     1       1.169  12.266  18.798  0.00  0.00    +0.000 C 
ATOM     19  C   UNL     1       0.629  11.087  19.144  0.00  0.00    +0.000 C 
BRANCH  18  21
ATOM     20  N   UNL     1       1.143  14.652  18.799  0.00  0.00    +0.000 N 
ATOM     21  C   UNL     1       0.412  13.516  19.045  0.00  0.00    +0.000 C 
ATOM     22  O   UNL     1      -0.745  13.519  19.436  0.00  0.00    +0.000 OA
ATOM     23  H   UNL     1       2.061  14.619  18.372  0.00  0.00    +0.000 HD
BRANCH  20  24
ATOM     24  C   UNL     1       0.549  15.966  18.955  0.00  0.00    +0.000 C 
BRANCH  24  25
ATOM     25  C   UNL     1       1.371  17.053  18.251  0.00  0.00    +0.000 C 
BRANCH  25  26
ATOM     26  N   UNL     1       2.760  17.088  18.726  0.00  0.00    +0.000 NA
ATOM     27  H   UNL     1       2.838  17.810  19.445  0.00  0.00    +0.000 HD
ATOM     28  H   UNL     1       3.363  17.397  17.962  0.00  0.00    +0.000 HD
ENDBRANCH  25  26
ENDBRANCH  24  25
ENDBRANCH  20  24
ENDBRANCH  18  21
ENDBRANCH  12  19
ENDBRANCH   1  15
BRANCH   1  29
ATOM     29  C   UNL     1       4.449   5.752  17.592  0.00  0.00    +0.000 A 
ATOM     30  C   UNL     1       5.708   6.187  18.026  0.00  0.00    +0.000 A 
ATOM     31  C   UNL     1       6.828   6.056  17.189  0.00  0.00    +0.000 A 
ATOM     32  C   UNL     1       6.691   5.470  15.932  0.00  0.00    +0.000 A 
ATOM     33  C   UNL     1       5.453   5.024  15.491  0.00  0.00    +0.000 A 
ATOM     34  C   UNL     1       4.337   5.172  16.315  0.00  0.00    +0.000 A 
BRANCH  32  35
ATOM     35  O   UNL     1       7.752   5.317  15.089  0.00  0.00    +0.000 OA
ATOM     36  H   UNL     1       7.973   4.373  15.032  0.00  0.00    +0.000 HD
ENDBRANCH  32  35
ENDBRANCH   1  29
TORSDOF 8
ENDMDL
MODEL 4
REMARK VINA RESULT:      -8.9      0.938      1.327
REMARK  Name = 
REMARK  8 active torsions:
REMARK  status: ('A' for Active; 'I' for Inactive)
REMARK    1  A    between atoms: N_1  and  C_2
REMARK    2  A    between atoms: C_2  and  C_3
REMARK    3  A    between atoms: C_3  and  N_4
REMARK    4  A    between atoms: C_5  and  C_7
REMARK    5  A    between atoms: C_8  and  C_9
REMARK    6  A    between atoms: C_12  and  C_13
REMARK    7  A    between atoms: C_13  and  C_24
REMARK    8  A    between atoms: C_27  and  O_28
REMARK                            x       y       z     vdW  Elec       q    Type
REMARK                         _______ _______ _______ _____ _____    ______ ____
ROOT
ATOM      1  C   UNL     1       3.131   5.898  18.406  0.00  0.00    +0.000 C 
ATOM      2  C   UNL     1       2.701   4.775  19.047  0.00  0.00    +0.000 C 
ATOM      3  C   UNL     1       1.767   4.792  20.261  0.00  0.00    +0.000 C 
ATOM      4  C   UNL     1       0.542   3.910  19.990  0.00  0.00    +0.000 C 
ATOM      5  C   UNL     1       0.980   2.461  19.727  0.00  0.00    +0.000 C 
ATOM      6  C   UNL     1       1.752   1.926  20.946  0.00  0.00    +0.000 C 
ATOM      7  C   UNL     1       3.008   2.778  21.190  0.00  0.00    +0.000 C 
ATOM      8  C   UNL     1       2.572   4.229  21.461  0.00  0.00    +0.000 C 
ATOM      9  C   UNL     1       3.912   2.756  19.944  0.00  0.00    +0.000 C 
ATOM     10  C   UNL     1       3.149   3.330  18.742  0.00  0.00    +0.000 C 
ATOM     11  C   UNL     1       1.901   2.448  18.494  0.00  0.00    +0.000 C 
ENDROOT
BRANCH   1  15
ATOM     12  C   UNL     1       1.356   9.816  19.027  0.00  0.00    +0.000 A 
ATOM     13  C   UNL     1       1.411   8.885  20.070  0.00  0.00    +0.000 A 
ATOM     14  C   UNL     1       1.949   7.601  19.870  0.00  0.00    +0.000 A 
ATOM     15  C   UNL     1       2.465   7.221  18.626  0.00  0.00    +0.000 A 
ATOM     16  C   UNL     1       2.367   8.138  17.570  0.00  0.00    +0.000 A 
ATOM     17  C   UNL     1       1.813   9.416  17.765  0.00  0.00    +0.000 A 
BRANCH  12  19
ATOM     18  C   UNL     1       1.456  12.301  19.079  0.00  0.00    +0.000 C 
ATOM     19  C   UNL     1       0.792  11.151  19.275  0.00  0.00    +0.000 C 
BRANCH  18  21
ATOM     20  N   UNL     1       1.677  14.641  19.486  0.00  0.00    +0.000 N 
ATOM     21  C   UNL     1       0.799  13.588  19.404  0.00  0.00    +0.000 C 
ATOM     22  O   UNL     1      -0.404  13.686  19.586  0.00  0.00    +0.000 OA
ATOM     23  H   UNL     1       2.652  14.551  19.223  0.00  0.00    +0.000 HD
BRANCH  20  24
ATOM     24  C   UNL     1       1.203  15.984  19.762  0.00  0.00    +0.000 C 
BRANCH  24  25
ATOM     25  C   UNL     1       0.765  16.710  18.484  0.00  0.00    +0.000 C 
BRANCH  25  26
ATOM     26  N   UNL     1      -0.676  16.570  18.237  0.00  0.00    +0.000 NA
ATOM     27  H   UNL     1      -0.896  17.018  17.346  0.00  0.00    +0.000 HD
ATOM     28  H   UNL     1      -1.187  17.101  18.944  0.00  0.00    +0.000 HD
ENDBRANCH  25  26
ENDBRANCH  24  25
ENDBRANCH  20  24
ENDBRANCH  18  21
ENDBRANCH  12  19
ENDBRANCH   1  15
BRANCH   1  29
ATOM     29  C   UNL     1       4.394   5.803  17.618  0.00  0.00    +0.000 A 
ATOM     30  C   UNL     1       5.603   6.384  18.023  0.00  0.00    +0.000 A 
ATOM     31  C   UNL     1       6.734   6.315  17.194  0.00  0.00    +0.000 A 
ATOM     32  C   UNL     1       6.660   5.646  15.973  0.00  0.00    +0.000 A 
ATOM     33  C   UNL     1       5.474   5.055  15.561  0.00  0.00    +0.000 A 
ATOM     34  C   UNL     1       4.345   5.141  16.377  0.00  0.00    +0.000 A 
BRANCH  32  35
ATOM     35  O   UNL     1       7.735   5.549  15.139  0.00  0.00    +0.000 OA
ATOM     36  H   UNL     1       8.529   5.373  15.670  0.00  0.00    +0.000 HD
ENDBRANCH  32  35
ENDBRANCH   1  29
TORSDOF 8
ENDMDL
MODEL 5
REMARK VINA RESULT:      -8.8      2.309      4.747
REMARK  Name = 
REMARK  8 active torsions:
REMARK  status: ('A' for Active; 'I' for Inactive)
REMARK    1  A    between atoms: N_1  and  C_2
REMARK    2  A    between atoms: C_2  and  C_3
REMARK    3  A    between atoms: C_3  and  N_4
REMARK    4  A    between atoms: C_5  and  C_7
REMARK    5  A    between atoms: C_8  and  C_9
REMARK    6  A    between atoms: C_12  and  C_13
REMARK    7  A    between atoms: C_13  and  C_24
REMARK    8  A    between atoms: C_27  and  O_28
REMARK                            x       y       z     vdW  Elec       q    Type
REMARK                         _______ _______ _______ _____ _____    ______ ____
ROOT
ATOM      1  C   UNL     1       3.284   5.945  18.439  0.00  0.00    +0.000 C 
ATOM      2  C   UNL     1       4.486   5.869  17.802  0.00  0.00    +0.000 C 
ATOM      3  C   UNL     1       5.080   7.006  16.965  0.00  0.00    +0.000 C 
ATOM      4  C   UNL     1       6.488   7.346  17.472  0.00  0.00    +0.000 C 
ATOM      5  C   UNL     1       7.404   6.118  17.353  0.00  0.00    +0.000 C 
ATOM      6  C   UNL     1       7.470   5.664  15.884  0.00  0.00    +0.000 C 
ATOM      7  C   UNL     1       6.068   5.274  15.389  0.00  0.00    +0.000 C 
ATOM      8  C   UNL     1       5.148   6.504  15.500  0.00  0.00    +0.000 C 
ATOM      9  C   UNL     1       5.492   4.146  16.264  0.00  0.00    +0.000 C 
ATOM     10  C   UNL     1       5.391   4.621  17.720  0.00  0.00    +0.000 C 
ATOM     11  C   UNL     1       6.813   4.986  18.212  0.00  0.00    +0.000 C 
ENDROOT
BRANCH   1  15
ATOM     12  C   UNL     1       1.143   9.674  19.072  0.00  0.00    +0.000 A 
ATOM     13  C   UNL     1       1.700   9.375  17.823  0.00  0.00    +0.000 A 
ATOM     14  C   UNL     1       2.427   8.189  17.618  0.00  0.00    +0.000 A 
ATOM     15  C   UNL     1       2.599   7.261  18.651  0.00  0.00    +0.000 A 
ATOM     16  C   UNL     1       2.080   7.582  19.913  0.00  0.00    +0.000 A 
ATOM     17  C   UNL     1       1.368   8.777  20.123  0.00  0.00    +0.000 A 
BRANCH  12  19
ATOM     18  C   UNL     1      -0.785  11.009  19.900  0.00  0.00    +0.000 C 
ATOM     19  C   UNL     1       0.385  10.921  19.247  0.00  0.00    +0.000 C 
BRANCH  18  21
ATOM     20  N   UNL     1      -2.651  12.264  20.695  0.00  0.00    +0.000 N 
ATOM     21  C   UNL     1      -1.482  12.314  19.978  0.00  0.00    +0.000 C 
ATOM     22  O   UNL     1      -1.050  13.324  19.445  0.00  0.00    +0.000 OA
ATOM     23  H   UNL     1      -2.928  11.440  21.218  0.00  0.00    +0.000 HD
BRANCH  20  24
ATOM     24  C   UNL     1      -3.448  13.459  20.903  0.00  0.00    +0.000 C 
BRANCH  24  25
ATOM     25  C   UNL     1      -4.829  13.132  21.483  0.00  0.00    +0.000 C 
BRANCH  25  26
ATOM     26  N   UNL     1      -4.735  12.423  22.766  0.00  0.00    +0.000 NA
ATOM     27  H   UNL     1      -4.085  12.932  23.369  0.00  0.00    +0.000 HD
ATOM     28  H   UNL     1      -4.305  11.511  22.610  0.00  0.00    +0.000 HD
ENDBRANCH  25  26
ENDBRANCH  24  25
ENDBRANCH  20  24
ENDBRANCH  18  21
ENDBRANCH  12  19
ENDBRANCH   1  15
BRANCH   1  29
ATOM     29  C   UNL     1       2.589   4.664  18.760  0.00  0.00    +0.000 A 
ATOM     30  C   UNL     1       2.655   4.045  20.015  0.00  0.00    +0.000 A 
ATOM     31  C   UNL     1       2.035   2.802  20.224  0.00  0.00    +0.000 A 
ATOM     32  C   UNL     1       1.332   2.194  19.185  0.00  0.00    +0.000 A 
ATOM     33  C   UNL     1       1.248   2.799  17.939  0.00  0.00    +0.000 A 
ATOM     34  C   UNL     1       1.881   4.024  17.727  0.00  0.00    +0.000 A 
BRANCH  32  35
ATOM     35  O   UNL     1       0.710   0.991  19.344  0.00  0.00    +0.000 OA
ATOM     36  H   UNL     1       0.616   0.569  18.475  0.00  0.00    +0.000 HD
ENDBRANCH  32  35
ENDBRANCH   1  29
TORSDOF 8
ENDMDL
MODEL 6
REMARK VINA RESULT:      -8.8      1.238      1.717
REMARK  Name = 
REMARK  8 active torsions:
REMARK  status: ('A' for Active; 'I' for Inactive)
REMARK    1  A    between atoms: N_1  and  C_2
REMARK    2  A    between atoms: C_2  and  C_3
REMARK    3  A    between atoms: C_3  and  N_4
REMARK    4  A    between atoms: C_5  and  C_7
REMARK    5  A    between atoms: C_8  and  C_9
REMARK    6  A    between atoms: C_12  and  C_13
REMARK    7  A    between atoms: C_13  and  C_24
REMARK    8  A    between atoms: C_27  and  O_28
REMARK                            x       y       z     vdW  Elec       q    Type
REMARK                         _______ _______ _______ _____ _____    ______ ____
ROOT
ATOM      1  C   UNL     1       3.159   5.868  18.384  0.00  0.00    +0.000 C 
ATOM      2  C   UNL     1       2.717   4.761  19.045  0.00  0.00    +0.000 C 
ATOM      3  C   UNL     1       1.788   4.810  20.262  0.00  0.00    +0.000 C 
ATOM      4  C   UNL     1       0.550   3.939  20.009  0.00  0.00    +0.000 C 
ATOM      5  C   UNL     1       0.969   2.481  19.769  0.00  0.00    +0.000 C 
ATOM      6  C   UNL     1       1.738   1.956  20.994  0.00  0.00    +0.000 C 
ATOM      7  C   UNL     1       3.006   2.796  21.220  0.00  0.00    +0.000 C 
ATOM      8  C   UNL     1       2.590   4.257  21.468  0.00  0.00    +0.000 C 
ATOM      9  C   UNL     1       3.905   2.742  19.972  0.00  0.00    +0.000 C 
ATOM     10  C   UNL     1       3.145   3.305  18.763  0.00  0.00    +0.000 C 
ATOM     11  C   UNL     1       1.885   2.435  18.533  0.00  0.00    +0.000 C 
ENDROOT
BRANCH   1  15
ATOM     12  C   UNL     1       1.437   9.818  18.949  0.00  0.00    +0.000 A 
ATOM     13  C   UNL     1       1.462   8.894  20.001  0.00  0.00    +0.000 A 
ATOM     14  C   UNL     1       1.982   7.600  19.818  0.00  0.00    +0.000 A 
ATOM     15  C   UNL     1       2.510   7.203  18.585  0.00  0.00    +0.000 A 
ATOM     16  C   UNL     1       2.443   8.113  17.520  0.00  0.00    +0.000 A 
ATOM     17  C   UNL     1       1.906   9.401  17.698  0.00  0.00    +0.000 A 
BRANCH  12  19
ATOM     18  C   UNL     1       1.511  12.301  18.828  0.00  0.00    +0.000 C 
ATOM     19  C   UNL     1       0.890  11.163  19.179  0.00  0.00    +0.000 C 
BRANCH  18  21
ATOM     20  N   UNL     1       1.745  14.492  19.741  0.00  0.00    +0.000 N 
ATOM     21  C   UNL     1       0.882  13.604  19.149  0.00  0.00    +0.000 C 
ATOM     22  O   UNL     1      -0.291  13.846  18.911  0.00  0.00    +0.000 OA
ATOM     23  H   UNL     1       2.737  14.304  19.826  0.00  0.00    +0.000 HD
BRANCH  20  24
ATOM     24  C   UNL     1       1.308  15.830  20.093  0.00  0.00    +0.000 C 
BRANCH  24  25
ATOM     25  C   UNL     1       1.174  16.009  21.610  0.00  0.00    +0.000 C 
BRANCH  25  26
ATOM     26  N   UNL     1       1.852  14.939  22.353  0.00  0.00    +0.000 NA
ATOM     27  H   UNL     1       2.470  14.441  21.710  0.00  0.00    +0.000 HD
ATOM     28  H   UNL     1       1.158  14.252  22.651  0.00  0.00    +0.000 HD
ENDBRANCH  25  26
ENDBRANCH  24  25
ENDBRANCH  20  24
ENDBRANCH  18  21
ENDBRANCH  12  19
ENDBRANCH   1  15
BRANCH   1  29
ATOM     29  C   UNL     1       4.418   5.743  17.593  0.00  0.00    +0.000 A 
ATOM     30  C   UNL     1       5.635   6.317  17.984  0.00  0.00    +0.000 A 
ATOM     31  C   UNL     1       6.762   6.220  17.152  0.00  0.00    +0.000 A 
ATOM     32  C   UNL     1       6.675   5.529  15.944  0.00  0.00    +0.000 A 
ATOM     33  C   UNL     1       5.481   4.946  15.547  0.00  0.00    +0.000 A 
ATOM     34  C   UNL     1       4.356   5.059  16.365  0.00  0.00    +0.000 A 
BRANCH  32  35
ATOM     35  O   UNL     1       7.746   5.404  15.108  0.00  0.00    +0.000 OA
ATOM     36  H   UNL     1       7.423   5.218  14.211  0.00  0.00    +0.000 HD
ENDBRANCH  32  35
ENDBRANCH   1  29
TORSDOF 8
ENDMDL
MODEL 7
REMARK VINA RESULT:      -8.8      1.873      4.388
REMARK  Name = 
REMARK  8 active torsions:
REMARK  status: ('A' for Active; 'I' for Inactive)
REMARK    1  A    between atoms: N_1  and  C_2
REMARK    2  A    between atoms: C_2  and  C_3
REMARK    3  A    between atoms: C_3  and  N_4
REMARK    4  A    between atoms: C_5  and  C_7
REMARK    5  A    between atoms: C_8  and  C_9
REMARK    6  A    between atoms: C_12  and  C_13
REMARK    7  A    between atoms: C_13  and  C_24
REMARK    8  A    between atoms: C_27  and  O_28
REMARK                            x       y       z     vdW  Elec       q    Type
REMARK                         _______ _______ _______ _____ _____    ______ ____
ROOT
ATOM      1  C   UNL     1       3.279   5.913  18.467  0.00  0.00    +0.000 C 
ATOM      2  C   UNL     1       4.470   5.857  17.808  0.00  0.00    +0.000 C 
ATOM      3  C   UNL     1       5.046   7.016  16.989  0.00  0.00    +0.000 C 
ATOM      4  C   UNL     1       6.460   7.351  17.479  0.00  0.00    +0.000 C 
ATOM      5  C   UNL     1       7.380   6.131  17.316  0.00  0.00    +0.000 C 
ATOM      6  C   UNL     1       7.423   5.711  15.837  0.00  0.00    +0.000 C 
ATOM      7  C   UNL     1       6.014   5.326  15.356  0.00  0.00    +0.000 C 
ATOM      8  C   UNL     1       5.091   6.548  15.511  0.00  0.00    +0.000 C 
ATOM      9  C   UNL     1       5.459   4.175  16.215  0.00  0.00    +0.000 C 
ATOM     10  C   UNL     1       5.380   4.616  17.683  0.00  0.00    +0.000 C 
ATOM     11  C   UNL     1       6.809   4.977  18.159  0.00  0.00    +0.000 C 
ENDROOT
BRANCH   1  15
ATOM     12  C   UNL     1       1.132   9.615  19.223  0.00  0.00    +0.000 A 
ATOM     13  C   UNL     1       1.670   9.348  17.958  0.00  0.00    +0.000 A 
ATOM     14  C   UNL     1       2.399   8.171  17.713  0.00  0.00    +0.000 A 
ATOM     15  C   UNL     1       2.592   7.219  18.721  0.00  0.00    +0.000 A 
ATOM     16  C   UNL     1       2.092   7.509  19.999  0.00  0.00    +0.000 A 
ATOM     17  C   UNL     1       1.379   8.695  20.248  0.00  0.00    +0.000 A 
BRANCH  12  19
ATOM     18  C   UNL     1      -0.969  10.921  19.478  0.00  0.00    +0.000 C 
ATOM     19  C   UNL     1       0.371  10.854  19.439  0.00  0.00    +0.000 C 
BRANCH  18  21
ATOM     20  N   UNL     1      -0.760  13.235  20.018  0.00  0.00    +0.000 N 
ATOM     21  C   UNL     1      -1.630  12.234  19.661  0.00  0.00    +0.000 C 
ATOM     22  O   UNL     1      -2.831  12.394  19.513  0.00  0.00    +0.000 OA
ATOM     23  H   UNL     1       0.244  13.098  20.025  0.00  0.00    +0.000 HD
BRANCH  20  24
ATOM     24  C   UNL     1      -1.229  14.595  20.206  0.00  0.00    +0.000 C 
BRANCH  24  25
ATOM     25  C   UNL     1      -0.442  15.595  19.349  0.00  0.00    +0.000 C 
BRANCH  25  26
ATOM     26  N   UNL     1      -1.289  16.694  18.868  0.00  0.00    +0.000 NA
ATOM     27  H   UNL     1      -1.664  17.192  19.679  0.00  0.00    +0.000 HD
ATOM     28  H   UNL     1      -2.101  16.302  18.389  0.00  0.00    +0.000 HD
ENDBRANCH  25  26
ENDBRANCH  24  25
ENDBRANCH  20  24
ENDBRANCH  18  21
ENDBRANCH  12  19
ENDBRANCH   1  15
BRANCH   1  29
ATOM     29  C   UNL     1       2.596   4.621  18.771  0.00  0.00    +0.000 A 
ATOM     30  C   UNL     1       2.785   3.910  19.963  0.00  0.00    +0.000 A 
ATOM     31  C   UNL     1       2.165   2.664  20.149  0.00  0.00    +0.000 A 
ATOM     32  C   UNL     1       1.340   2.144  19.153  0.00  0.00    +0.000 A 
ATOM     33  C   UNL     1       1.133   2.840  17.971  0.00  0.00    +0.000 A 
ATOM     34  C   UNL     1       1.765   4.069  17.779  0.00  0.00    +0.000 A 
BRANCH  32  35
ATOM     35  O   UNL     1       0.713   0.941  19.294  0.00  0.00    +0.000 OA
ATOM     36  H   UNL     1       1.229   0.387  19.902  0.00  0.00    +0.000 HD
ENDBRANCH  32  35
ENDBRANCH   1  29
TORSDOF 8
ENDMDL
MODEL 8
REMARK VINA RESULT:      -8.8      2.058      2.515
REMARK  Name = 
REMARK  8 active torsions:
REMARK  status: ('A' for Active; 'I' for Inactive)
REMARK    1  A    between atoms: N_1  and  C_2
REMARK    2  A    between atoms: C_2  and  C_3
REMARK    3  A    between atoms: C_3  and  N_4
REMARK    4  A    between atoms: C_5  and  C_7
REMARK    5  A    between atoms: C_8  and  C_9
REMARK    6  A    between atoms: C_12  and  C_13
REMARK    7  A    between atoms: C_13  and  C_24
REMARK    8  A    between atoms: C_27  and  O_28
REMARK                            x       y       z     vdW  Elec       q    Type
REMARK                         _______ _______ _______ _____ _____    ______ ____
ROOT
ATOM      1  C   UNL     1       3.034   6.052  18.849  0.00  0.00    +0.000 C 
ATOM      2  C   UNL     1       2.596   4.809  19.194  0.00  0.00    +0.000 C 
ATOM      3  C   UNL     1       1.544   4.546  20.277  0.00  0.00    +0.000 C 
ATOM      4  C   UNL     1       0.396   3.710  19.698  0.00  0.00    +0.000 C 
ATOM      5  C   UNL     1       0.927   2.360  19.192  0.00  0.00    +0.000 C 
ATOM      6  C   UNL     1       1.596   1.601  20.351  0.00  0.00    +0.000 C 
ATOM      7  C   UNL     1       2.780   2.415  20.901  0.00  0.00    +0.000 C 
ATOM      8  C   UNL     1       2.251   3.766  21.415  0.00  0.00    +0.000 C 
ATOM      9  C   UNL     1       3.805   2.678  19.783  0.00  0.00    +0.000 C 
ATOM     10  C   UNL     1       3.141   3.471  18.649  0.00  0.00    +0.000 C 
ATOM     11  C   UNL     1       1.967   2.629  18.090  0.00  0.00    +0.000 C 
ENDROOT
BRANCH   1  15
ATOM     12  C   UNL     1       0.719   9.519  20.076  0.00  0.00    +0.000 A 
ATOM     13  C   UNL     1       1.151   9.382  18.751  0.00  0.00    +0.000 A 
ATOM     14  C   UNL     1       1.932   8.283  18.352  0.00  0.00    +0.000 A 
ATOM     15  C   UNL     1       2.287   7.282  19.263  0.00  0.00    +0.000 A 
ATOM     16  C   UNL     1       1.893   7.443  20.599  0.00  0.00    +0.000 A 
ATOM     17  C   UNL     1       1.126   8.552  21.002  0.00  0.00    +0.000 A 
BRANCH  12  19
ATOM     18  C   UNL     1      -0.404  11.008  21.720  0.00  0.00    +0.000 C 
ATOM     19  C   UNL     1      -0.101  10.679  20.455  0.00  0.00    +0.000 C 
BRANCH  18  21
ATOM     20  N   UNL     1      -2.276  11.919  22.885  0.00  0.00    +0.000 N 
ATOM     21  C   UNL     1      -1.276  12.178  21.982  0.00  0.00    +0.000 C 
ATOM     22  O   UNL     1      -1.112  13.257  21.434  0.00  0.00    +0.000 OA
ATOM     23  H   UNL     1      -2.320  11.050  23.405  0.00  0.00    +0.000 HD
BRANCH  20  24
ATOM     24  C   UNL     1      -3.204  12.960  23.286  0.00  0.00    +0.000 C 
BRANCH  24  25
ATOM     25  C   UNL     1      -4.087  12.518  24.459  0.00  0.00    +0.000 C 
BRANCH  25  26
ATOM     26  N   UNL     1      -5.489  12.342  24.057  0.00  0.00    +0.000 NA
ATOM     27  H   UNL     1      -5.570  11.463  23.544  0.00  0.00    +0.000 HD
ATOM     28  H   UNL     1      -5.736  13.073  23.389  0.00  0.00    +0.000 HD
ENDBRANCH  25  26
ENDBRANCH  24  25
ENDBRANCH  20  24
ENDBRANCH  18  21
ENDBRANCH  12  19
ENDBRANCH   1  15
BRANCH   1  29
ATOM     29  C   UNL     1       4.374   6.156  18.200  0.00  0.00    +0.000 A 
ATOM     30  C   UNL     1       5.581   5.966  18.885  0.00  0.00    +0.000 A 
ATOM     31  C   UNL     1       6.806   6.153  18.225  0.00  0.00    +0.000 A 
ATOM     32  C   UNL     1       6.821   6.504  16.876  0.00  0.00    +0.000 A 
ATOM     33  C   UNL     1       5.635   6.686  16.179  0.00  0.00    +0.000 A 
ATOM     34  C   UNL     1       4.418   6.519  16.841  0.00  0.00    +0.000 A 
BRANCH  32  35
ATOM     35  O   UNL     1       7.987   6.689  16.193  0.00  0.00    +0.000 OA
ATOM     36  H   UNL     1       8.697   6.875  16.829  0.00  0.00    +0.000 HD
ENDBRANCH  32  35
ENDBRANCH   1  29
TORSDOF 8
ENDMDL
MODEL 9
REMARK VINA RESULT:      -8.7      1.163      1.627
REMARK  Name = 
REMARK  8 active torsions:
REMARK  status: ('A' for Active; 'I' for Inactive)
REMARK    1  A    between atoms: N_1  and  C_2
REMARK    2  A    between atoms: C_2  and  C_3
REMARK    3  A    between atoms: C_3  and  N_4
REMARK    4  A    between atoms: C_5  and  C_7
REMARK    5  A    between atoms: C_8  and  C_9
REMARK    6  A    between atoms: C_12  and  C_13
REMARK    7  A    between atoms: C_13  and  C_24
REMARK    8  A    between atoms: C_27  and  O_28
REMARK                            x       y       z     vdW  Elec       q    Type
REMARK                         _______ _______ _______ _____ _____    ______ ____
ROOT
ATOM      1  C   UNL     1       3.146   5.876  18.395  0.00  0.00    +0.000 C 
ATOM      2  C   UNL     1       2.710   4.762  19.046  0.00  0.00    +0.000 C 
ATOM      3  C   UNL     1       1.778   4.795  20.261  0.00  0.00    +0.000 C 
ATOM      4  C   UNL     1       0.546   3.918  19.999  0.00  0.00    +0.000 C 
ATOM      5  C   UNL     1       0.975   2.464  19.748  0.00  0.00    +0.000 C 
ATOM      6  C   UNL     1       1.745   1.935  20.971  0.00  0.00    +0.000 C 
ATOM      7  C   UNL     1       3.007   2.781  21.206  0.00  0.00    +0.000 C 
ATOM      8  C   UNL     1       2.581   4.237  21.465  0.00  0.00    +0.000 C 
ATOM      9  C   UNL     1       3.909   2.743  19.958  0.00  0.00    +0.000 C 
ATOM     10  C   UNL     1       3.148   3.311  18.753  0.00  0.00    +0.000 C 
ATOM     11  C   UNL     1       1.893   2.435  18.514  0.00  0.00    +0.000 C 
ENDROOT
BRANCH   1  15
ATOM     12  C   UNL     1       1.397   9.811  18.986  0.00  0.00    +0.000 A 
ATOM     13  C   UNL     1       1.441   8.885  20.035  0.00  0.00    +0.000 A 
ATOM     14  C   UNL     1       1.971   7.597  19.845  0.00  0.00    +0.000 A 
ATOM     15  C   UNL     1       2.488   7.205  18.605  0.00  0.00    +0.000 A 
ATOM     16  C   UNL     1       2.401   8.117  17.543  0.00  0.00    +0.000 A 
ATOM     17  C   UNL     1       1.855   9.400  17.729  0.00  0.00    +0.000 A 
BRANCH  12  19
ATOM     18  C   UNL     1      -0.472  11.426  19.273  0.00  0.00    +0.000 C 
ATOM     19  C   UNL     1       0.841  11.151  19.224  0.00  0.00    +0.000 C 
BRANCH  18  21
ATOM     20  N   UNL     1      -1.754  12.975  20.557  0.00  0.00    +0.000 N 
ATOM     21  C   UNL     1      -0.918  12.824  19.478  0.00  0.00    +0.000 C 
ATOM     22  O   UNL     1      -0.573  13.739  18.748  0.00  0.00    +0.000 OA
ATOM     23  H   UNL     1      -1.934  12.220  21.209  0.00  0.00    +0.000 HD
BRANCH  20  24
ATOM     24  C   UNL     1      -2.260  14.283  20.927  0.00  0.00    +0.000 C 
BRANCH  24  25
ATOM     25  C   UNL     1      -1.977  14.611  22.398  0.00  0.00    +0.000 C 
BRANCH  25  26
ATOM     26  N   UNL     1      -0.989  13.697  22.987  0.00  0.00    +0.000 NA
ATOM     27  H   UNL     1      -1.167  13.632  23.991  0.00  0.00    +0.000 HD
ATOM     28  H   UNL     1      -0.061  14.113  22.900  0.00  0.00    +0.000 HD
ENDBRANCH  25  26
ENDBRANCH  24  25
ENDBRANCH  20  24
ENDBRANCH  18  21
ENDBRANCH  12  19
ENDBRANCH   1  15
BRANCH   1  29
ATOM     29  C   UNL     1       4.407   5.766  17.606  0.00  0.00    +0.000 A 
ATOM     30  C   UNL     1       5.615   6.359  17.995  0.00  0.00    +0.000 A 
ATOM     31  C   UNL     1       6.744   6.275  17.164  0.00  0.00    +0.000 A 
ATOM     32  C   UNL     1       6.669   5.578  15.959  0.00  0.00    +0.000 A 
ATOM     33  C   UNL     1       5.483   4.975  15.564  0.00  0.00    +0.000 A 
ATOM     34  C   UNL     1       4.356   5.076  16.380  0.00  0.00    +0.000 A 
BRANCH  32  35
ATOM     35  O   UNL     1       7.742   5.464  15.124  0.00  0.00    +0.000 OA
ATOM     36  H   UNL     1       7.531   5.898  14.282  0.00  0.00    +0.000 HD
ENDBRANCH  32  35
ENDBRANCH   1  29
TORSDOF 8
ENDMDL
