MODEL 1
REMARK VINA RESULT:      -6.8      0.000      0.000
REMARK  Name = 
REMARK  6 active torsions:
REMARK  status: ('A' for Active; 'I' for Inactive)
REMARK    1  A    between atoms: C_1  and  O_2
REMARK    2  A    between atoms: O_2  and  C_3
REMARK    3  A    between atoms: C_3  and  C_4
REMARK    4  A    between atoms: C_10  and  C_11
REMARK    5  A    between atoms: N_18  and  C_19
REMARK    6  A    between atoms: C_19  and  C_20
REMARK                            x       y       z     vdW  Elec       q    Type
REMARK                         _______ _______ _______ _____ _____    ______ ____
ROOT
ATOM      1  C   UNL     1       1.374   9.695  18.774  0.00  0.00    +0.000 C 
ATOM      2  C   UNL     1       1.906   8.268  18.377  0.00  0.00    +0.000 C 
ATOM      3  N   UNL     1       2.436   7.417  19.485  0.00  0.00    +0.000 N 
ATOM      4  C   UNL     1       2.637   6.075  19.052  0.00  0.00    +0.000 A 
ATOM      5  C   UNL     1       3.518   5.263  19.755  0.00  0.00    +0.000 A 
ATOM      6  C   UNL     1       3.665   3.924  19.399  0.00  0.00    +0.000 A 
ATOM      7  C   UNL     1       2.918   3.427  18.347  0.00  0.00    +0.000 A 
ATOM      8  C   UNL     1       2.987   1.995  17.927  0.00  0.00    +0.000 C 
ATOM      9  N   UNL     1       2.089   4.228  17.653  0.00  0.00    +0.000 NA
ATOM     10  N   UNL     1       1.960   5.554  18.004  0.00  0.00    +0.000 NA
ATOM     11  C   UNL     1       1.570   7.385  20.694  0.00  0.00    +0.000 C 
ATOM     12  C   UNL     1       1.162   8.745  21.125  0.00  0.00    +0.000 A 
ATOM     13  C   UNL     1       0.804   9.282  22.370  0.00  0.00    +0.000 A 
ATOM     14  N   UNL     1       0.537  10.592  22.292  0.00  0.00    +0.000 NA
ATOM     15  N   UNL     1       0.736  10.891  20.988  0.00  0.00    +0.000 N 
ATOM     16  C   UNL     1       1.079   9.795  20.242  0.00  0.00    +0.000 A 
ENDROOT
BRANCH   1  17
ATOM     17  C   UNL     1       0.127   9.999  17.913  0.00  0.00    +0.000 C 
BRANCH  17  19
ATOM     18  C   UNL     1      -2.241  10.089  17.939  0.00  0.00    +0.000 C 
ATOM     19  O   UNL     1      -1.063   9.843  18.691  0.00  0.00    +0.000 OA
ENDBRANCH  17  19
ENDBRANCH   1  17
BRANCH  15  20
ATOM     20  C   UNL     1       0.566  12.263  20.552  0.00  0.00    +0.000 C 
BRANCH  20  21
ATOM     21  C   UNL     1       1.871  13.019  20.247  0.00  0.00    +0.000 C 
ATOM     22  C   UNL     1       1.917  14.316  21.072  0.00  0.00    +0.000 C 
ATOM     23  C   UNL     1       3.116  15.173  20.691  0.00  0.00    +0.000 C 
ATOM     24  O   UNL     1       3.106  15.447  19.291  0.00  0.00    +0.000 OA
ATOM     25  C   UNL     1       3.218  14.255  18.515  0.00  0.00    +0.000 C 
ATOM     26  C   UNL     1       2.017  13.349  18.754  0.00  0.00    +0.000 C 
ENDBRANCH  20  21
ENDBRANCH  15  20
TORSDOF 4
ENDMDL
MODEL 2
REMARK VINA RESULT:      -6.5      3.291      7.875
REMARK  Name = 
REMARK  6 active torsions:
REMARK  status: ('A' for Active; 'I' for Inactive)
REMARK    1  A    between atoms: C_1  and  O_2
REMARK    2  A    between atoms: O_2  and  C_3
REMARK    3  A    between atoms: C_3  and  C_4
REMARK    4  A    between atoms: C_10  and  C_11
REMARK    5  A    between atoms: N_18  and  C_19
REMARK    6  A    between atoms: C_19  and  C_20
REMARK                            x       y       z     vdW  Elec       q    Type
REMARK                         _______ _______ _______ _____ _____    ______ ____
ROOT
ATOM      1  C   UNL     1       1.933   7.503  20.768  0.00  0.00    +0.000 C 
ATOM      2  C   UNL     1       1.176   8.593  21.612  0.00  0.00    +0.000 C 
ATOM      3  N   UNL     1       1.128   9.972  21.040  0.00  0.00    +0.000 N 
ATOM      4  C   UNL     1       0.205  10.792  21.749  0.00  0.00    +0.000 A 
ATOM      5  C   UNL     1       0.338  12.173  21.683  0.00  0.00    +0.000 A 
ATOM      6  C   UNL     1      -0.603  12.994  22.301  0.00  0.00    +0.000 A 
ATOM      7  C   UNL     1      -1.664  12.409  22.968  0.00  0.00    +0.000 A 
ATOM      8  C   UNL     1      -2.736  13.217  23.622  0.00  0.00    +0.000 C 
ATOM      9  N   UNL     1      -1.769  11.070  23.052  0.00  0.00    +0.000 NA
ATOM     10  N   UNL     1      -0.827  10.267  22.449  0.00  0.00    +0.000 NA
ATOM     11  C   UNL     1       0.769  10.019  19.597  0.00  0.00    +0.000 C 
ATOM     12  C   UNL     1       1.568   9.062  18.791  0.00  0.00    +0.000 A 
ATOM     13  C   UNL     1       1.964   9.049  17.447  0.00  0.00    +0.000 A 
ATOM     14  N   UNL     1       2.720   7.982  17.158  0.00  0.00    +0.000 NA
ATOM     15  N   UNL     1       2.812   7.317  18.332  0.00  0.00    +0.000 N 
ATOM     16  C   UNL     1       2.100   7.917  19.336  0.00  0.00    +0.000 A 
ENDROOT
BRANCH   1  17
ATOM     17  C   UNL     1       1.159   6.171  20.898  0.00  0.00    +0.000 C 
BRANCH  17  19
ATOM     18  C   UNL     1       1.532   3.831  20.870  0.00  0.00    +0.000 C 
ATOM     19  O   UNL     1       2.058   5.104  21.212  0.00  0.00    +0.000 OA
ENDBRANCH  17  19
ENDBRANCH   1  17
BRANCH  15  20
ATOM     20  C   UNL     1       3.607   6.105  18.389  0.00  0.00    +0.000 C 
BRANCH  20  21
ATOM     21  C   UNL     1       4.640   5.947  17.262  0.00  0.00    +0.000 C 
ATOM     22  C   UNL     1       4.608   4.502  16.736  0.00  0.00    +0.000 C 
ATOM     23  C   UNL     1       5.719   4.256  15.725  0.00  0.00    +0.000 C 
ATOM     24  O   UNL     1       6.988   4.574  16.293  0.00  0.00    +0.000 OA
ATOM     25  C   UNL     1       7.082   5.954  16.644  0.00  0.00    +0.000 C 
ATOM     26  C   UNL     1       6.063   6.299  17.722  0.00  0.00    +0.000 C 
ENDBRANCH  20  21
ENDBRANCH  15  20
TORSDOF 4
ENDMDL
MODEL 3
REMARK VINA RESULT:      -6.5      1.847      2.511
REMARK  Name = 
REMARK  6 active torsions:
REMARK  status: ('A' for Active; 'I' for Inactive)
REMARK    1  A    between atoms: C_1  and  O_2
REMARK    2  A    between atoms: O_2  and  C_3
REMARK    3  A    between atoms: C_3  and  C_4
REMARK    4  A    between atoms: C_10  and  C_11
REMARK    5  A    between atoms: N_18  and  C_19
REMARK    6  A    between atoms: C_19  and  C_20
REMARK                            x       y       z     vdW  Elec       q    Type
REMARK                         _______ _______ _______ _____ _____    ______ ____
ROOT
ATOM      1  C   UNL     1       1.304   9.779  18.937  0.00  0.00    +0.000 C 
ATOM      2  C   UNL     1       1.859   8.369  18.514  0.00  0.00    +0.000 C 
ATOM      3  N   UNL     1       2.344   7.481  19.612  0.00  0.00    +0.000 N 
ATOM      4  C   UNL     1       2.569   6.155  19.142  0.00  0.00    +0.000 A 
ATOM      5  C   UNL     1       3.423   5.321  19.852  0.00  0.00    +0.000 A 
ATOM      6  C   UNL     1       3.591   3.996  19.456  0.00  0.00    +0.000 A 
ATOM      7  C   UNL     1       2.891   3.534  18.356  0.00  0.00    +0.000 A 
ATOM      8  C   UNL     1       2.985   2.119  17.889  0.00  0.00    +0.000 C 
ATOM      9  N   UNL     1       2.089   4.358  17.656  0.00  0.00    +0.000 NA
ATOM     10  N   UNL     1       1.940   5.669  18.047  0.00  0.00    +0.000 NA
ATOM     11  C   UNL     1       1.428   7.403  20.781  0.00  0.00    +0.000 C 
ATOM     12  C   UNL     1       0.996   8.746  21.242  0.00  0.00    +0.000 A 
ATOM     13  C   UNL     1       0.583   9.238  22.488  0.00  0.00    +0.000 A 
ATOM     14  N   UNL     1       0.314  10.549  22.446  0.00  0.00    +0.000 NA
ATOM     15  N   UNL     1       0.567  10.895  21.163  0.00  0.00    +0.000 N 
ATOM     16  C   UNL     1       0.947   9.827  20.394  0.00  0.00    +0.000 A 
ENDROOT
BRANCH   1  17
ATOM     17  C   UNL     1       0.094  10.110  18.034  0.00  0.00    +0.000 C 
BRANCH  17  19
ATOM     18  C   UNL     1      -2.270  10.029  17.900  0.00  0.00    +0.000 C 
ATOM     19  O   UNL     1      -1.127   9.790  18.706  0.00  0.00    +0.000 OA
ENDBRANCH  17  19
ENDBRANCH   1  17
BRANCH  15  20
ATOM     20  C   UNL     1       0.411  12.281  20.768  0.00  0.00    +0.000 C 
BRANCH  20  21
ATOM     21  C   UNL     1      -0.832  12.987  21.337  0.00  0.00    +0.000 C 
ATOM     22  C   UNL     1      -2.019  12.784  20.380  0.00  0.00    +0.000 C 
ATOM     23  C   UNL     1      -3.231  13.592  20.823  0.00  0.00    +0.000 C 
ATOM     24  O   UNL     1      -2.891  14.972  20.944  0.00  0.00    +0.000 OA
ATOM     25  C   UNL     1      -1.895  15.188  21.943  0.00  0.00    +0.000 C 
ATOM     26  C   UNL     1      -0.598  14.488  21.560  0.00  0.00    +0.000 C 
ENDBRANCH  20  21
ENDBRANCH  15  20
TORSDOF 4
ENDMDL
MODEL 4
REMARK VINA RESULT:      -6.4      2.663      8.327
REMARK  Name = 
REMARK  6 active torsions:
REMARK  status: ('A' for Active; 'I' for Inactive)
REMARK    1  A    between atoms: C_1  and  O_2
REMARK    2  A    between atoms: O_2  and  C_3
REMARK    3  A    between atoms: C_3  and  C_4
REMARK    4  A    between atoms: C_10  and  C_11
REMARK    5  A    between atoms: N_18  and  C_19
REMARK    6  A    between atoms: C_19  and  C_20
REMARK                            x       y       z     vdW  Elec       q    Type
REMARK                         _______ _______ _______ _____ _____    ______ ____
ROOT
ATOM      1  C   UNL     1       0.913   9.618  21.012  0.00  0.00    +0.000 C 
ATOM      2  C   UNL     1       0.666  11.166  20.876  0.00  0.00    +0.000 C 
ATOM      3  N   UNL     1       1.370  11.863  19.757  0.00  0.00    +0.000 N 
ATOM      4  C   UNL     1       0.868  13.184  19.577  0.00  0.00    +0.000 A 
ATOM      5  C   UNL     1       1.659  14.124  18.930  0.00  0.00    +0.000 A 
ATOM      6  C   UNL     1       1.155  15.397  18.669  0.00  0.00    +0.000 A 
ATOM      7  C   UNL     1      -0.138  15.696  19.059  0.00  0.00    +0.000 A 
ATOM      8  C   UNL     1      -0.767  17.021  18.782  0.00  0.00    +0.000 C 
ATOM      9  N   UNL     1      -0.887  14.788  19.712  0.00  0.00    +0.000 NA
ATOM     10  N   UNL     1      -0.375  13.537  19.977  0.00  0.00    +0.000 NA
ATOM     11  C   UNL     1       1.283  11.157  18.452  0.00  0.00    +0.000 C 
ATOM     12  C   UNL     1       1.625   9.717  18.571  0.00  0.00    +0.000 A 
ATOM     13  C   UNL     1       2.148   8.784  17.665  0.00  0.00    +0.000 A 
ATOM     14  N   UNL     1       2.328   7.583  18.230  0.00  0.00    +0.000 NA
ATOM     15  N   UNL     1       1.923   7.758  19.508  0.00  0.00    +0.000 N 
ATOM     16  C   UNL     1       1.457   9.023  19.746  0.00  0.00    +0.000 A 
ENDROOT
BRANCH   1  17
ATOM     17  C   UNL     1      -0.418   8.955  21.437  0.00  0.00    +0.000 C 
BRANCH  17  19
ATOM     18  C   UNL     1       0.202   9.374  23.685  0.00  0.00    +0.000 C 
ATOM     19  O   UNL     1      -0.830   9.448  22.714  0.00  0.00    +0.000 OA
ENDBRANCH  17  19
ENDBRANCH   1  17
BRANCH  15  20
ATOM     20  C   UNL     1       2.018   6.643  20.431  0.00  0.00    +0.000 C 
BRANCH  20  21
ATOM     21  C   UNL     1       2.074   5.254  19.774  0.00  0.00    +0.000 C 
ATOM     22  C   UNL     1       1.100   4.306  20.494  0.00  0.00    +0.000 C 
ATOM     23  C   UNL     1       1.232   2.880  19.980  0.00  0.00    +0.000 C 
ATOM     24  O   UNL     1       2.580   2.430  20.101  0.00  0.00    +0.000 OA
ATOM     25  C   UNL     1       3.474   3.212  19.310  0.00  0.00    +0.000 C 
ATOM     26  C   UNL     1       3.489   4.656  19.795  0.00  0.00    +0.000 C 
ENDBRANCH  20  21
ENDBRANCH  15  20
TORSDOF 4
ENDMDL
MODEL 5
REMARK VINA RESULT:      -6.4      2.330      3.302
REMARK  Name = 
REMARK  6 active torsions:
REMARK  status: ('A' for Active; 'I' for Inactive)
REMARK    1  A    between atoms: C_1  and  O_2
REMARK    2  A    between atoms: O_2  and  C_3
REMARK    3  A    between atoms: C_3  and  C_4
REMARK    4  A    between atoms: C_10  and  C_11
REMARK    5  A    between atoms: N_18  and  C_19
REMARK    6  A    between atoms: C_19  and  C_20
REMARK                            x       y       z     vdW  Elec       q    Type
REMARK                         _______ _______ _______ _____ _____    ______ ____
ROOT
ATOM      1  C   UNL     1       0.595   9.988  19.377  0.00  0.00    +0.000 C 
ATOM      2  C   UNL     1       1.343   8.734  18.789  0.00  0.00    +0.000 C 
ATOM      3  N   UNL     1       2.143   7.918  19.752  0.00  0.00    +0.000 N 
ATOM      4  C   UNL     1       2.547   6.683  19.168  0.00  0.00    +0.000 A 
ATOM      5  C   UNL     1       3.638   6.009  19.701  0.00  0.00    +0.000 A 
ATOM      6  C   UNL     1       3.998   4.760  19.198  0.00  0.00    +0.000 A 
ATOM      7  C   UNL     1       3.249   4.211  18.173  0.00  0.00    +0.000 A 
ATOM      8  C   UNL     1       3.543   2.862  17.605  0.00  0.00    +0.000 C 
ATOM      9  N   UNL     1       2.211   4.885  17.643  0.00  0.00    +0.000 NA
ATOM     10  N   UNL     1       1.871   6.125  18.138  0.00  0.00    +0.000 NA
ATOM     11  C   UNL     1       1.436   7.614  21.024  0.00  0.00    +0.000 C 
ATOM     12  C   UNL     1       0.826   8.825  21.628  0.00  0.00    +0.000 A 
ATOM     13  C   UNL     1       0.511   9.176  22.948  0.00  0.00    +0.000 A 
ATOM     14  N   UNL     1      -0.008  10.407  23.029  0.00  0.00    +0.000 NA
ATOM     15  N   UNL     1      -0.013  10.847  21.750  0.00  0.00    +0.000 N 
ATOM     16  C   UNL     1       0.449   9.907  20.868  0.00  0.00    +0.000 A 
ENDROOT
BRANCH   1  17
ATOM     17  C   UNL     1      -0.774  10.106  18.668  0.00  0.00    +0.000 C 
BRANCH  17  19
ATOM     18  C   UNL     1      -2.189  11.587  17.477  0.00  0.00    +0.000 C 
ATOM     19  O   UNL     1      -0.950  11.428  18.150  0.00  0.00    +0.000 OA
ENDBRANCH  17  19
ENDBRANCH   1  17
BRANCH  15  20
ATOM     20  C   UNL     1      -0.487  12.189  21.473  0.00  0.00    +0.000 C 
BRANCH  20  21
ATOM     21  C   UNL     1      -2.016  12.355  21.473  0.00  0.00    +0.000 C 
ATOM     22  C   UNL     1      -2.398  13.584  20.630  0.00  0.00    +0.000 C 
ATOM     23  C   UNL     1      -3.888  13.879  20.725  0.00  0.00    +0.000 C 
ATOM     24  O   UNL     1      -4.277  14.042  22.088  0.00  0.00    +0.000 OA
ATOM     25  C   UNL     1      -4.069  12.851  22.846  0.00  0.00    +0.000 C 
ATOM     26  C   UNL     1      -2.587  12.501  22.891  0.00  0.00    +0.000 C 
ENDBRANCH  20  21
ENDBRANCH  15  20
TORSDOF 4
ENDMDL
MODEL 6
REMARK VINA RESULT:      -6.4      2.229      3.210
REMARK  Name = 
REMARK  6 active torsions:
REMARK  status: ('A' for Active; 'I' for Inactive)
REMARK    1  A    between atoms: C_1  and  O_2
REMARK    2  A    between atoms: O_2  and  C_3
REMARK    3  A    between atoms: C_3  and  C_4
REMARK    4  A    between atoms: C_10  and  C_11
REMARK    5  A    between atoms: N_18  and  C_19
REMARK    6  A    between atoms: C_19  and  C_20
REMARK                            x       y       z     vdW  Elec       q    Type
REMARK                         _______ _______ _______ _____ _____    ______ ____
ROOT
ATOM      1  C   UNL     1       0.994  10.300  19.562  0.00  0.00    +0.000 C 
ATOM      2  C   UNL     1       1.624   8.970  19.006  0.00  0.00    +0.000 C 
ATOM      3  N   UNL     1       2.054   7.957  20.016  0.00  0.00    +0.000 N 
ATOM      4  C   UNL     1       2.356   6.710  19.398  0.00  0.00    +0.000 A 
ATOM      5  C   UNL     1       3.180   5.809  20.061  0.00  0.00    +0.000 A 
ATOM      6  C   UNL     1       3.420   4.551  19.512  0.00  0.00    +0.000 A 
ATOM      7  C   UNL     1       2.820   4.221  18.310  0.00  0.00    +0.000 A 
ATOM      8  C   UNL     1       2.993   2.881  17.675  0.00  0.00    +0.000 C 
ATOM      9  N   UNL     1       2.046   5.111  17.661  0.00  0.00    +0.000 NA
ATOM     10  N   UNL     1       1.826   6.357  18.205  0.00  0.00    +0.000 NA
ATOM     11  C   UNL     1       1.056   7.708  21.090  0.00  0.00    +0.000 C 
ATOM     12  C   UNL     1       0.547   8.969  21.684  0.00  0.00    +0.000 A 
ATOM     13  C   UNL     1       0.027   9.285  22.947  0.00  0.00    +0.000 A 
ATOM     14  N   UNL     1      -0.280  10.584  23.052  0.00  0.00    +0.000 NA
ATOM     15  N   UNL     1       0.057  11.099  21.848  0.00  0.00    +0.000 N 
ATOM     16  C   UNL     1       0.528  10.150  20.980  0.00  0.00    +0.000 A 
ENDROOT
BRANCH   1  17
ATOM     17  C   UNL     1      -0.155  10.720  18.617  0.00  0.00    +0.000 C 
BRANCH  17  19
ATOM     18  C   UNL     1      -2.241   9.983  17.769  0.00  0.00    +0.000 C 
ATOM     19  O   UNL     1      -1.295   9.881  18.822  0.00  0.00    +0.000 OA
ENDBRANCH  17  19
ENDBRANCH   1  17
BRANCH  15  20
ATOM     20  C   UNL     1      -0.113  12.522  21.623  0.00  0.00    +0.000 C 
BRANCH  20  21
ATOM     21  C   UNL     1      -1.550  13.043  21.794  0.00  0.00    +0.000 C 
ATOM     22  C   UNL     1      -2.017  12.796  23.239  0.00  0.00    +0.000 C 
ATOM     23  C   UNL     1      -3.485  13.156  23.416  0.00  0.00    +0.000 C 
ATOM     24  O   UNL     1      -4.289  12.440  22.480  0.00  0.00    +0.000 OA
ATOM     25  C   UNL     1      -3.966  12.780  21.132  0.00  0.00    +0.000 C 
ATOM     26  C   UNL     1      -2.530  12.384  20.813  0.00  0.00    +0.000 C 
ENDBRANCH  20  21
ENDBRANCH  15  20
TORSDOF 4
ENDMDL
MODEL 7
REMARK VINA RESULT:      -6.3      2.372      3.035
REMARK  Name = 
REMARK  6 active torsions:
REMARK  status: ('A' for Active; 'I' for Inactive)
REMARK    1  A    between atoms: C_1  and  O_2
REMARK    2  A    between atoms: O_2  and  C_3
REMARK    3  A    between atoms: C_3  and  C_4
REMARK    4  A    between atoms: C_10  and  C_11
REMARK    5  A    between atoms: N_18  and  C_19
REMARK    6  A    between atoms: C_19  and  C_20
REMARK                            x       y       z     vdW  Elec       q    Type
REMARK                         _______ _______ _______ _____ _____    ______ ____
ROOT
ATOM      1  C   UNL     1       0.755   9.974  19.407  0.00  0.00    +0.000 C 
ATOM      2  C   UNL     1       1.469   8.700  18.823  0.00  0.00    +0.000 C 
ATOM      3  N   UNL     1       2.191   7.828  19.798  0.00  0.00    +0.000 N 
ATOM      4  C   UNL     1       2.563   6.589  19.203  0.00  0.00    +0.000 A 
ATOM      5  C   UNL     1       3.600   5.854  19.763  0.00  0.00    +0.000 A 
ATOM      6  C   UNL     1       3.924   4.601  19.248  0.00  0.00    +0.000 A 
ATOM      7  C   UNL     1       3.192   4.108  18.182  0.00  0.00    +0.000 A 
ATOM      8  C   UNL     1       3.449   2.759  17.596  0.00  0.00    +0.000 C 
ATOM      9  N   UNL     1       2.209   4.840  17.626  0.00  0.00    +0.000 NA
ATOM     10  N   UNL     1       1.905   6.083  18.134  0.00  0.00    +0.000 NA
ATOM     11  C   UNL     1       1.421   7.531  21.034  0.00  0.00    +0.000 C 
ATOM     12  C   UNL     1       0.842   8.756  21.640  0.00  0.00    +0.000 A 
ATOM     13  C   UNL     1       0.489   9.094  22.954  0.00  0.00    +0.000 A 
ATOM     14  N   UNL     1       0.024  10.346  23.042  0.00  0.00    +0.000 NA
ATOM     15  N   UNL     1       0.090  10.811  21.774  0.00  0.00    +0.000 N 
ATOM     16  C   UNL     1       0.545   9.870  20.890  0.00  0.00    +0.000 A 
ENDROOT
BRANCH   1  17
ATOM     17  C   UNL     1      -0.577  10.170  18.648  0.00  0.00    +0.000 C 
BRANCH  17  19
ATOM     18  C   UNL     1      -2.013  12.000  18.200  0.00  0.00    +0.000 C 
ATOM     19  O   UNL     1      -0.681  11.513  18.168  0.00  0.00    +0.000 OA
ENDBRANCH  17  19
ENDBRANCH   1  17
BRANCH  15  20
ATOM     20  C   UNL     1      -0.312  12.179  21.508  0.00  0.00    +0.000 C 
BRANCH  20  21
ATOM     21  C   UNL     1      -1.084  12.867  22.646  0.00  0.00    +0.000 C 
ATOM     22  C   UNL     1      -2.592  12.806  22.353  0.00  0.00    +0.000 C 
ATOM     23  C   UNL     1      -3.388  13.607  23.373  0.00  0.00    +0.000 C 
ATOM     24  O   UNL     1      -2.921  14.954  23.421  0.00  0.00    +0.000 OA
ATOM     25  C   UNL     1      -1.560  15.031  23.843  0.00  0.00    +0.000 C 
ATOM     26  C   UNL     1      -0.652  14.328  22.842  0.00  0.00    +0.000 C 
ENDBRANCH  20  21
ENDBRANCH  15  20
TORSDOF 4
ENDMDL
MODEL 8
REMARK VINA RESULT:      -6.3      3.008      8.014
REMARK  Name = 
REMARK  6 active torsions:
REMARK  status: ('A' for Active; 'I' for Inactive)
REMARK    1  A    between atoms: C_1  and  O_2
REMARK    2  A    between atoms: O_2  and  C_3
REMARK    3  A    between atoms: C_3  and  C_4
REMARK    4  A    between atoms: C_10  and  C_11
REMARK    5  A    between atoms: N_18  and  C_19
REMARK    6  A    between atoms: C_19  and  C_20
REMARK                            x       y       z     vdW  Elec       q    Type
REMARK                         _______ _______ _______ _____ _____    ______ ____
ROOT
ATOM      1  C   UNL     1       0.660  10.795  18.828  0.00  0.00    +0.000 C 
ATOM      2  C   UNL     1      -0.258  11.857  19.539  0.00  0.00    +0.000 C 
ATOM      3  N   UNL     1      -0.981  11.406  20.766  0.00  0.00    +0.000 N 
ATOM      4  C   UNL     1      -1.557  12.509  21.459  0.00  0.00    +0.000 A 
ATOM      5  C   UNL     1      -2.615  12.282  22.330  0.00  0.00    +0.000 A 
ATOM      6  C   UNL     1      -3.137  13.334  23.080  0.00  0.00    +0.000 A 
ATOM      7  C   UNL     1      -2.580  14.593  22.943  0.00  0.00    +0.000 A 
ATOM      8  C   UNL     1      -3.055  15.764  23.738  0.00  0.00    +0.000 C 
ATOM      9  N   UNL     1      -1.575  14.809  22.075  0.00  0.00    +0.000 NA
ATOM     10  N   UNL     1      -1.074  13.766  21.328  0.00  0.00    +0.000 NA
ATOM     11  C   UNL     1      -0.133  10.652  21.728  0.00  0.00    +0.000 C 
ATOM     12  C   UNL     1       0.647   9.579  21.063  0.00  0.00    +0.000 A 
ATOM     13  C   UNL     1       1.166   8.359  21.517  0.00  0.00    +0.000 A 
ATOM     14  N   UNL     1       1.787   7.684  20.541  0.00  0.00    +0.000 NA
ATOM     15  N   UNL     1       1.652   8.479  19.455  0.00  0.00    +0.000 N 
ATOM     16  C   UNL     1       1.001   9.651  19.736  0.00  0.00    +0.000 A 
ENDROOT
BRANCH   1  17
ATOM     17  C   UNL     1       1.924  11.520  18.312  0.00  0.00    +0.000 C 
BRANCH  17  19
ATOM     18  C   UNL     1       2.921  13.666  18.432  0.00  0.00    +0.000 C 
ATOM     19  O   UNL     1       2.212  12.656  19.132  0.00  0.00    +0.000 OA
ENDBRANCH  17  19
ENDBRANCH   1  17
BRANCH  15  20
ATOM     20  C   UNL     1       2.189   8.027  18.186  0.00  0.00    +0.000 C 
BRANCH  20  21
ATOM     21  C   UNL     1       3.068   6.768  18.258  0.00  0.00    +0.000 C 
ATOM     22  C   UNL     1       4.254   6.914  17.289  0.00  0.00    +0.000 C 
ATOM     23  C   UNL     1       5.068   5.631  17.212  0.00  0.00    +0.000 C 
ATOM     24  O   UNL     1       4.232   4.533  16.850  0.00  0.00    +0.000 OA
ATOM     25  C   UNL     1       3.219   4.292  17.826  0.00  0.00    +0.000 C 
ATOM     26  C   UNL     1       2.284   5.490  17.929  0.00  0.00    +0.000 C 
ENDBRANCH  20  21
ENDBRANCH  15  20
TORSDOF 4
ENDMDL
MODEL 9
REMARK VINA RESULT:      -6.2      1.125      1.509
REMARK  Name = 
REMARK  6 active torsions:
REMARK  status: ('A' for Active; 'I' for Inactive)
REMARK    1  A    between atoms: C_1  and  O_2
REMARK    2  A    between atoms: O_2  and  C_3
REMARK    3  A    between atoms: C_3  and  C_4
REMARK    4  A    between atoms: C_10  and  C_11
REMARK    5  A    between atoms: N_18  and  C_19
REMARK    6  A    between atoms: C_19  and  C_20
REMARK                            x       y       z     vdW  Elec       q    Type
REMARK                         _______ _______ _______ _____ _____    ______ ____
ROOT
ATOM      1  C   UNL     1       1.262   9.721  18.761  0.00  0.00    +0.000 C 
ATOM      2  C   UNL     1       1.845   8.312  18.374  0.00  0.00    +0.000 C 
ATOM      3  N   UNL     1       2.399   7.485  19.489  0.00  0.00    +0.000 N 
ATOM      4  C   UNL     1       2.647   6.148  19.064  0.00  0.00    +0.000 A 
ATOM      5  C   UNL     1       3.553   5.371  19.775  0.00  0.00    +0.000 A 
ATOM      6  C   UNL     1       3.748   4.036  19.427  0.00  0.00    +0.000 A 
ATOM      7  C   UNL     1       3.023   3.507  18.374  0.00  0.00    +0.000 A 
ATOM      8  C   UNL     1       3.143   2.077  17.963  0.00  0.00    +0.000 C 
ATOM      9  N   UNL     1       2.170   4.276  17.672  0.00  0.00    +0.000 NA
ATOM     10  N   UNL     1       1.994   5.598  18.016  0.00  0.00    +0.000 NA
ATOM     11  C   UNL     1       1.529   7.429  20.694  0.00  0.00    +0.000 C 
ATOM     12  C   UNL     1       1.072   8.777  21.116  0.00  0.00    +0.000 A 
ATOM     13  C   UNL     1       0.691   9.308  22.356  0.00  0.00    +0.000 A 
ATOM     14  N   UNL     1       0.379  10.607  22.271  0.00  0.00    +0.000 NA
ATOM     15  N   UNL     1       0.573  10.906  20.966  0.00  0.00    +0.000 N 
ATOM     16  C   UNL     1       0.957   9.819  20.227  0.00  0.00    +0.000 A 
ENDROOT
BRANCH   1  17
ATOM     17  C   UNL     1       0.008   9.977  17.892  0.00  0.00    +0.000 C 
BRANCH  17  19
ATOM     18  C   UNL     1      -2.358  10.084  17.934  0.00  0.00    +0.000 C 
ATOM     19  O   UNL     1      -1.177   9.824  18.677  0.00  0.00    +0.000 OA
ENDBRANCH  17  19
ENDBRANCH   1  17
BRANCH  15  20
ATOM     20  C   UNL     1       0.358  12.269  20.521  0.00  0.00    +0.000 C 
BRANCH  20  21
ATOM     21  C   UNL     1       0.729  13.357  21.543  0.00  0.00    +0.000 C 
ATOM     22  C   UNL     1      -0.508  14.222  21.842  0.00  0.00    +0.000 C 
ATOM     23  C   UNL     1      -0.154  15.406  22.731  0.00  0.00    +0.000 C 
ATOM     24  O   UNL     1       0.890  16.177  22.139  0.00  0.00    +0.000 OA
ATOM     25  C   UNL     1       2.094  15.424  21.999  0.00  0.00    +0.000 C 
ATOM     26  C   UNL     1       1.879  14.249  21.054  0.00  0.00    +0.000 C 
ENDBRANCH  20  21
ENDBRANCH  15  20
TORSDOF 4
ENDMDL
