MODEL 1
REMARK VINA RESULT:      -8.9      0.000      0.000
REMARK  Name = 
REMARK  5 active torsions:
REMARK  status: ('A' for Active; 'I' for Inactive)
REMARK    1  A    between atoms: C_1  and  C_2
REMARK    2  A    between atoms: C_5  and  N_6
REMARK    3  A    between atoms: N_6  and  C_7
REMARK    4  A    between atoms: C_13  and  C_14
REMARK    5  A    between atoms: C_14  and  C_15
REMARK                            x       y       z     vdW  Elec       q    Type
REMARK                         _______ _______ _______ _____ _____    ______ ____
ROOT
ATOM      1  C   UNL     1       1.926   6.716  19.860  0.00  0.00    +0.000 A 
ATOM      2  C   UNL     1       1.433   5.867  20.883  0.00  0.00    +0.000 A 
ATOM      3  C   UNL     1       1.588   4.482  20.819  0.00  0.00    +0.000 A 
ATOM      4  C   UNL     1       2.292   3.984  19.749  0.00  0.00    +0.000 A 
ATOM      5  C   UNL     1       2.842   4.791  18.753  0.00  0.00    +0.000 A 
ATOM      6  C   UNL     1       2.605   6.158  18.762  0.00  0.00    +0.000 A 
ATOM      7  C   UNL     1       3.615   3.932  17.782  0.00  0.00    +0.000 C 
ATOM      8  C   UNL     1       3.220   2.510  18.276  0.00  0.00    +0.000 C 
ATOM      9  O   UNL     1       3.512   1.443  17.756  0.00  0.00    +0.000 OA
ATOM     10  N   UNL     1       2.534   2.652  19.471  0.00  0.00    +0.000 N 
ATOM     11  H   UNL     1       2.216   1.864  20.015  0.00  0.00    +0.000 HD
ENDROOT
BRANCH   1  12
ATOM     12  N   UNL     1       1.859   8.112  20.058  0.00  0.00    +0.000 N 
ATOM     13  H   UNL     1       2.779   8.534  20.160  0.00  0.00    +0.000 HD
BRANCH  12  18
ATOM     14  C   UNL     1      -1.445  11.775  22.950  0.00  0.00    +0.000 C 
ATOM     15  C   UNL     1      -0.646  10.741  22.220  0.00  0.00    +0.000 A 
ATOM     16  C   UNL     1       0.115   9.785  22.906  0.00  0.00    +0.000 A 
ATOM     17  C   UNL     1       0.898   8.850  22.205  0.00  0.00    +0.000 A 
ATOM     18  C   UNL     1       0.925   8.860  20.806  0.00  0.00    +0.000 A 
ATOM     19  C   UNL     1       0.172   9.824  20.131  0.00  0.00    +0.000 A 
ATOM     20  C   UNL     1      -0.621  10.741  20.824  0.00  0.00    +0.000 A 
ENDBRANCH  12  18
ENDBRANCH   1  12
BRANCH   7  21
ATOM     21  C   UNL     1       5.153   3.961  17.902  0.00  0.00    +0.000 C 
BRANCH  21  22
ATOM     22  C   UNL     1       6.048   4.318  16.693  0.00  0.00    +0.000 C 
ATOM     23  C   UNL     1       5.464   5.553  15.963  0.00  0.00    +0.000 C 
ATOM     24  C   UNL     1       5.538   6.834  16.804  0.00  0.00    +0.000 C 
ATOM     25  C   UNL     1       6.919   7.089  17.410  0.00  0.00    +0.000 C 
ATOM     26  C   UNL     1       7.621   5.846  17.959  0.00  0.00    +0.000 C 
ATOM     27  C   UNL     1       7.506   4.641  17.031  0.00  0.00    +0.000 C 
ENDBRANCH  21  22
ENDBRANCH   7  21
TORSDOF 4
ENDMDL
MODEL 2
REMARK VINA RESULT:      -8.8      1.151      1.808
REMARK  Name = 
REMARK  5 active torsions:
REMARK  status: ('A' for Active; 'I' for Inactive)
REMARK    1  A    between atoms: C_1  and  C_2
REMARK    2  A    between atoms: C_5  and  N_6
REMARK    3  A    between atoms: N_6  and  C_7
REMARK    4  A    between atoms: C_13  and  C_14
REMARK    5  A    between atoms: C_14  and  C_15
REMARK                            x       y       z     vdW  Elec       q    Type
REMARK                         _______ _______ _______ _____ _____    ______ ____
ROOT
ATOM      1  C   UNL     1       1.924   7.224  19.499  0.00  0.00    +0.000 A 
ATOM      2  C   UNL     1       1.564   6.500  20.664  0.00  0.00    +0.000 A 
ATOM      3  C   UNL     1       1.601   5.106  20.697  0.00  0.00    +0.000 A 
ATOM      4  C   UNL     1       2.060   4.469  19.568  0.00  0.00    +0.000 A 
ATOM      5  C   UNL     1       2.478   5.149  18.424  0.00  0.00    +0.000 A 
ATOM      6  C   UNL     1       2.349   6.528  18.354  0.00  0.00    +0.000 A 
ATOM      7  C   UNL     1       2.997   4.155  17.413  0.00  0.00    +0.000 C 
ATOM      8  C   UNL     1       2.593   2.814  18.092  0.00  0.00    +0.000 C 
ATOM      9  O   UNL     1       2.707   1.690  17.626  0.00  0.00    +0.000 OA
ATOM     10  N   UNL     1       2.149   3.104  19.372  0.00  0.00    +0.000 N 
ATOM     11  H   UNL     1       1.878   2.390  20.030  0.00  0.00    +0.000 HD
ENDROOT
BRANCH   1  12
ATOM     12  N   UNL     1       1.998   8.631  19.581  0.00  0.00    +0.000 N 
ATOM     13  H   UNL     1       2.615   8.944  20.326  0.00  0.00    +0.000 HD
BRANCH  12  18
ATOM     14  C   UNL     1      -2.629  11.972  19.223  0.00  0.00    +0.000 C 
ATOM     15  C   UNL     1      -1.366  11.170  19.264  0.00  0.00    +0.000 A 
ATOM     16  C   UNL     1      -0.865  10.534  18.120  0.00  0.00    +0.000 A 
ATOM     17  C   UNL     1       0.298   9.745  18.186  0.00  0.00    +0.000 A 
ATOM     18  C   UNL     1       0.975   9.586  19.400  0.00  0.00    +0.000 A 
ATOM     19  C   UNL     1       0.461  10.215  20.538  0.00  0.00    +0.000 A 
ATOM     20  C   UNL     1      -0.682  11.014  20.471  0.00  0.00    +0.000 A 
ENDBRANCH  12  18
ENDBRANCH   1  12
BRANCH   7  21
ATOM     21  C   UNL     1       4.529   4.056  17.259  0.00  0.00    +0.000 C 
BRANCH  21  22
ATOM     22  C   UNL     1       5.252   4.631  16.019  0.00  0.00    +0.000 C 
ATOM     23  C   UNL     1       5.117   6.174  16.010  0.00  0.00    +0.000 C 
ATOM     24  C   UNL     1       5.875   6.846  17.161  0.00  0.00    +0.000 C 
ATOM     25  C   UNL     1       7.321   6.369  17.303  0.00  0.00    +0.000 C 
ATOM     26  C   UNL     1       7.524   4.865  17.111  0.00  0.00    +0.000 C 
ATOM     27  C   UNL     1       6.745   4.308  15.924  0.00  0.00    +0.000 C 
ENDBRANCH  21  22
ENDBRANCH   7  21
TORSDOF 4
ENDMDL
MODEL 3
REMARK VINA RESULT:      -8.6      0.982      1.322
REMARK  Name = 
REMARK  5 active torsions:
REMARK  status: ('A' for Active; 'I' for Inactive)
REMARK    1  A    between atoms: C_1  and  C_2
REMARK    2  A    between atoms: C_5  and  N_6
REMARK    3  A    between atoms: N_6  and  C_7
REMARK    4  A    between atoms: C_13  and  C_14
REMARK    5  A    between atoms: C_14  and  C_15
REMARK                            x       y       z     vdW  Elec       q    Type
REMARK                         _______ _______ _______ _____ _____    ______ ____
ROOT
ATOM      1  C   UNL     1       1.922   7.091  19.566  0.00  0.00    +0.000 A 
ATOM      2  C   UNL     1       1.572   6.344  20.719  0.00  0.00    +0.000 A 
ATOM      3  C   UNL     1       1.640   4.951  20.736  0.00  0.00    +0.000 A 
ATOM      4  C   UNL     1       2.120   4.339  19.602  0.00  0.00    +0.000 A 
ATOM      5  C   UNL     1       2.528   5.042  18.468  0.00  0.00    +0.000 A 
ATOM      6  C   UNL     1       2.369   6.418  18.414  0.00  0.00    +0.000 A 
ATOM      7  C   UNL     1       3.074   4.072  17.448  0.00  0.00    +0.000 C 
ATOM      8  C   UNL     1       2.697   2.714  18.108  0.00  0.00    +0.000 C 
ATOM      9  O   UNL     1       2.838   1.599  17.629  0.00  0.00    +0.000 OA
ATOM     10  N   UNL     1       2.240   2.979  19.389  0.00  0.00    +0.000 N 
ATOM     11  H   UNL     1       1.981   2.251  20.037  0.00  0.00    +0.000 HD
ENDROOT
BRANCH   1  12
ATOM     12  N   UNL     1       1.964   8.498  19.665  0.00  0.00    +0.000 N 
ATOM     13  H   UNL     1       2.740   8.823  20.236  0.00  0.00    +0.000 HD
BRANCH  12  18
ATOM     14  C   UNL     1      -1.850  12.754  19.827  0.00  0.00    +0.000 C 
ATOM     15  C   UNL     1      -0.924  11.579  19.827  0.00  0.00    +0.000 A 
ATOM     16  C   UNL     1      -0.371  11.083  21.015  0.00  0.00    +0.000 A 
ATOM     17  C   UNL     1       0.535  10.007  20.992  0.00  0.00    +0.000 A 
ATOM     18  C   UNL     1       0.896   9.413  19.777  0.00  0.00    +0.000 A 
ATOM     19  C   UNL     1       0.348   9.923  18.597  0.00  0.00    +0.000 A 
ATOM     20  C   UNL     1      -0.566  10.978  18.618  0.00  0.00    +0.000 A 
ENDBRANCH  12  18
ENDBRANCH   1  12
BRANCH   7  21
ATOM     21  C   UNL     1       4.609   4.009  17.301  0.00  0.00    +0.000 C 
BRANCH  21  22
ATOM     22  C   UNL     1       5.324   4.602  16.066  0.00  0.00    +0.000 C 
ATOM     23  C   UNL     1       5.127   6.139  16.040  0.00  0.00    +0.000 C 
ATOM     24  C   UNL     1       5.843   6.850  17.195  0.00  0.00    +0.000 C 
ATOM     25  C   UNL     1       7.305   6.433  17.359  0.00  0.00    +0.000 C 
ATOM     26  C   UNL     1       7.571   4.937  17.184  0.00  0.00    +0.000 C 
ATOM     27  C   UNL     1       6.830   4.339  15.992  0.00  0.00    +0.000 C 
ENDBRANCH  21  22
ENDBRANCH   7  21
TORSDOF 4
ENDMDL
MODEL 4
REMARK VINA RESULT:      -8.5      2.650      3.628
REMARK  Name = 
REMARK  5 active torsions:
REMARK  status: ('A' for Active; 'I' for Inactive)
REMARK    1  A    between atoms: C_1  and  C_2
REMARK    2  A    between atoms: C_5  and  N_6
REMARK    3  A    between atoms: N_6  and  C_7
REMARK    4  A    between atoms: C_13  and  C_14
REMARK    5  A    between atoms: C_14  and  C_15
REMARK                            x       y       z     vdW  Elec       q    Type
REMARK                         _______ _______ _______ _____ _____    ______ ____
ROOT
ATOM      1  C   UNL     1       1.599   9.204  18.528  0.00  0.00    +0.000 A 
ATOM      2  C   UNL     1       1.196   9.154  19.886  0.00  0.00    +0.000 A 
ATOM      3  C   UNL     1       1.425   8.027  20.674  0.00  0.00    +0.000 A 
ATOM      4  C   UNL     1       2.113   6.989  20.091  0.00  0.00    +0.000 A 
ATOM      5  C   UNL     1       2.576   7.024  18.775  0.00  0.00    +0.000 A 
ATOM      6  C   UNL     1       2.264   8.102  17.961  0.00  0.00    +0.000 A 
ATOM      7  C   UNL     1       3.358   5.765  18.486  0.00  0.00    +0.000 C 
ATOM      8  C   UNL     1       3.062   4.940  19.772  0.00  0.00    +0.000 C 
ATOM      9  O   UNL     1       3.394   3.786  19.998  0.00  0.00    +0.000 OA
ATOM     10  N   UNL     1       2.418   5.774  20.672  0.00  0.00    +0.000 N 
ATOM     11  H   UNL     1       2.167   5.481  21.604  0.00  0.00    +0.000 HD
ENDROOT
BRANCH   1  12
ATOM     12  N   UNL     1       1.461  10.425  17.832  0.00  0.00    +0.000 N 
ATOM     13  H   UNL     1       1.908  10.403  16.919  0.00  0.00    +0.000 HD
BRANCH  12  18
ATOM     14  C   UNL     1       1.226  15.971  19.202  0.00  0.00    +0.000 C 
ATOM     15  C   UNL     1       1.344  14.505  18.929  0.00  0.00    +0.000 A 
ATOM     16  C   UNL     1       2.552  13.934  18.505  0.00  0.00    +0.000 A 
ATOM     17  C   UNL     1       2.633  12.561  18.207  0.00  0.00    +0.000 A 
ATOM     18  C   UNL     1       1.506  11.743  18.334  0.00  0.00    +0.000 A 
ATOM     19  C   UNL     1       0.303  12.324  18.747  0.00  0.00    +0.000 A 
ATOM     20  C   UNL     1       0.224  13.681  19.062  0.00  0.00    +0.000 A 
ENDBRANCH  12  18
ENDBRANCH   1  12
BRANCH   7  21
ATOM     21  C   UNL     1       4.895   5.892  18.462  0.00  0.00    +0.000 C 
BRANCH  21  22
ATOM     22  C   UNL     1       5.624   6.612  17.304  0.00  0.00    +0.000 C 
ATOM     23  C   UNL     1       7.137   6.282  17.360  0.00  0.00    +0.000 C 
ATOM     24  C   UNL     1       7.437   4.808  17.059  0.00  0.00    +0.000 C 
ATOM     25  C   UNL     1       6.755   4.290  15.793  0.00  0.00    +0.000 C 
ATOM     26  C   UNL     1       5.315   4.768  15.597  0.00  0.00    +0.000 C 
ATOM     27  C   UNL     1       5.136   6.252  15.899  0.00  0.00    +0.000 C 
ENDBRANCH  21  22
ENDBRANCH   7  21
TORSDOF 4
ENDMDL
MODEL 5
REMARK VINA RESULT:      -8.3      2.250      3.419
REMARK  Name = 
REMARK  5 active torsions:
REMARK  status: ('A' for Active; 'I' for Inactive)
REMARK    1  A    between atoms: C_1  and  C_2
REMARK    2  A    between atoms: C_5  and  N_6
REMARK    3  A    between atoms: N_6  and  C_7
REMARK    4  A    between atoms: C_13  and  C_14
REMARK    5  A    between atoms: C_14  and  C_15
REMARK                            x       y       z     vdW  Elec       q    Type
REMARK                         _______ _______ _______ _____ _____    ______ ____
ROOT
ATOM      1  C   UNL     1       1.225   9.027  18.838  0.00  0.00    +0.000 A 
ATOM      2  C   UNL     1       0.972   8.706  20.196  0.00  0.00    +0.000 A 
ATOM      3  C   UNL     1       1.505   7.560  20.786  0.00  0.00    +0.000 A 
ATOM      4  C   UNL     1       2.336   6.788  20.007  0.00  0.00    +0.000 A 
ATOM      5  C   UNL     1       2.655   7.103  18.686  0.00  0.00    +0.000 A 
ATOM      6  C   UNL     1       2.049   8.187  18.068  0.00  0.00    +0.000 A 
ATOM      7  C   UNL     1       3.651   6.098  18.158  0.00  0.00    +0.000 C 
ATOM      8  C   UNL     1       3.657   5.061  19.319  0.00  0.00    +0.000 C 
ATOM      9  O   UNL     1       4.242   3.989  19.343  0.00  0.00    +0.000 OA
ATOM     10  N   UNL     1       2.942   5.602  20.375  0.00  0.00    +0.000 N 
ATOM     11  H   UNL     1       2.847   5.138  21.265  0.00  0.00    +0.000 HD
ENDROOT
BRANCH   1  12
ATOM     12  N   UNL     1       0.771  10.271  18.348  0.00  0.00    +0.000 N 
ATOM     13  H   UNL     1       1.365  11.043  18.641  0.00  0.00    +0.000 HD
BRANCH  12  18
ATOM     14  C   UNL     1      -4.728  11.832  18.480  0.00  0.00    +0.000 C 
ATOM     15  C   UNL     1      -3.283  11.465  18.351  0.00  0.00    +0.000 A 
ATOM     16  C   UNL     1      -2.862  10.438  17.496  0.00  0.00    +0.000 A 
ATOM     17  C   UNL     1      -1.505  10.075  17.421  0.00  0.00    +0.000 A 
ATOM     18  C   UNL     1      -0.552  10.738  18.202  0.00  0.00    +0.000 A 
ATOM     19  C   UNL     1      -0.984  11.753  19.061  0.00  0.00    +0.000 A 
ATOM     20  C   UNL     1      -2.327  12.130  19.122  0.00  0.00    +0.000 A 
ENDBRANCH  12  18
ENDBRANCH   1  12
BRANCH   7  21
ATOM     21  C   UNL     1       5.118   6.563  18.056  0.00  0.00    +0.000 C 
BRANCH  21  22
ATOM     22  C   UNL     1       5.810   6.747  16.687  0.00  0.00    +0.000 C 
ATOM     23  C   UNL     1       7.272   6.241  16.773  0.00  0.00    +0.000 C 
ATOM     24  C   UNL     1       7.367   4.724  16.977  0.00  0.00    +0.000 C 
ATOM     25  C   UNL     1       6.508   3.919  16.001  0.00  0.00    +0.000 C 
ATOM     26  C   UNL     1       5.122   4.506  15.729  0.00  0.00    +0.000 C 
ATOM     27  C   UNL     1       5.149   6.016  15.515  0.00  0.00    +0.000 C 
ENDBRANCH  21  22
ENDBRANCH   7  21
TORSDOF 4
ENDMDL
MODEL 6
REMARK VINA RESULT:      -8.3      0.621      1.444
REMARK  Name = 
REMARK  5 active torsions:
REMARK  status: ('A' for Active; 'I' for Inactive)
REMARK    1  A    between atoms: C_1  and  C_2
REMARK    2  A    between atoms: C_5  and  N_6
REMARK    3  A    between atoms: N_6  and  C_7
REMARK    4  A    between atoms: C_13  and  C_14
REMARK    5  A    between atoms: C_14  and  C_15
REMARK                            x       y       z     vdW  Elec       q    Type
REMARK                         _______ _______ _______ _____ _____    ______ ____
ROOT
ATOM      1  C   UNL     1       1.869   6.830  19.945  0.00  0.00    +0.000 A 
ATOM      2  C   UNL     1       1.463   5.963  20.992  0.00  0.00    +0.000 A 
ATOM      3  C   UNL     1       1.613   4.580  20.894  0.00  0.00    +0.000 A 
ATOM      4  C   UNL     1       2.228   4.100  19.762  0.00  0.00    +0.000 A 
ATOM      5  C   UNL     1       2.694   4.924  18.737  0.00  0.00    +0.000 A 
ATOM      6  C   UNL     1       2.457   6.290  18.788  0.00  0.00    +0.000 A 
ATOM      7  C   UNL     1       3.387   4.082  17.693  0.00  0.00    +0.000 C 
ATOM      8  C   UNL     1       3.034   2.652  18.195  0.00  0.00    +0.000 C 
ATOM      9  O   UNL     1       3.285   1.594  17.637  0.00  0.00    +0.000 OA
ATOM     10  N   UNL     1       2.449   2.773  19.445  0.00  0.00    +0.000 N 
ATOM     11  H   UNL     1       2.177   1.977  20.000  0.00  0.00    +0.000 HD
ENDROOT
BRANCH   1  12
ATOM     12  N   UNL     1       1.817   8.222  20.170  0.00  0.00    +0.000 N 
ATOM     13  H   UNL     1       2.737   8.623  20.333  0.00  0.00    +0.000 HD
BRANCH  12  18
ATOM     14  C   UNL     1      -1.584  11.891  22.938  0.00  0.00    +0.000 C 
ATOM     15  C   UNL     1      -0.762  10.856  22.237  0.00  0.00    +0.000 A 
ATOM     16  C   UNL     1      -0.040   9.889  22.950  0.00  0.00    +0.000 A 
ATOM     17  C   UNL     1       0.765   8.952  22.277  0.00  0.00    +0.000 A 
ATOM     18  C   UNL     1       0.856   8.972  20.881  0.00  0.00    +0.000 A 
ATOM     19  C   UNL     1       0.143   9.948  20.180  0.00  0.00    +0.000 A 
ATOM     20  C   UNL     1      -0.673  10.867  20.843  0.00  0.00    +0.000 A 
ENDBRANCH  12  18
ENDBRANCH   1  12
BRANCH   7  21
ATOM     21  C   UNL     1       4.929   4.113  17.688  0.00  0.00    +0.000 C 
BRANCH  21  22
ATOM     22  C   UNL     1       5.707   5.431  17.473  0.00  0.00    +0.000 C 
ATOM     23  C   UNL     1       7.207   5.117  17.243  0.00  0.00    +0.000 C 
ATOM     24  C   UNL     1       7.465   4.376  15.926  0.00  0.00    +0.000 C 
ATOM     25  C   UNL     1       6.794   5.027  14.715  0.00  0.00    +0.000 C 
ATOM     26  C   UNL     1       5.375   5.540  14.965  0.00  0.00    +0.000 C 
ATOM     27  C   UNL     1       5.238   6.283  16.291  0.00  0.00    +0.000 C 
ENDBRANCH  21  22
ENDBRANCH   7  21
TORSDOF 4
ENDMDL
MODEL 7
REMARK VINA RESULT:      -8.3      2.366      3.015
REMARK  Name = 
REMARK  5 active torsions:
REMARK  status: ('A' for Active; 'I' for Inactive)
REMARK    1  A    between atoms: C_1  and  C_2
REMARK    2  A    between atoms: C_5  and  N_6
REMARK    3  A    between atoms: N_6  and  C_7
REMARK    4  A    between atoms: C_13  and  C_14
REMARK    5  A    between atoms: C_14  and  C_15
REMARK                            x       y       z     vdW  Elec       q    Type
REMARK                         _______ _______ _______ _____ _____    ______ ____
ROOT
ATOM      1  C   UNL     1       1.870   8.714  18.671  0.00  0.00    +0.000 A 
ATOM      2  C   UNL     1       1.337   8.735  19.984  0.00  0.00    +0.000 A 
ATOM      3  C   UNL     1       1.410   7.620  20.819  0.00  0.00    +0.000 A 
ATOM      4  C   UNL     1       2.075   6.520  20.330  0.00  0.00    +0.000 A 
ATOM      5  C   UNL     1       2.663   6.482  19.066  0.00  0.00    +0.000 A 
ATOM      6  C   UNL     1       2.506   7.553  18.198  0.00  0.00    +0.000 A 
ATOM      7  C   UNL     1       3.378   5.164  18.885  0.00  0.00    +0.000 C 
ATOM      8  C   UNL     1       2.904   4.402  20.157  0.00  0.00    +0.000 C 
ATOM      9  O   UNL     1       3.130   3.235  20.442  0.00  0.00    +0.000 OA
ATOM     10  N   UNL     1       2.237   5.305  20.969  0.00  0.00    +0.000 N 
ATOM     11  H   UNL     1       1.878   5.060  21.879  0.00  0.00    +0.000 HD
ENDROOT
BRANCH   1  12
ATOM     12  N   UNL     1       1.886   9.919  17.935  0.00  0.00    +0.000 N 
ATOM     13  H   UNL     1       2.701   9.995  17.333  0.00  0.00    +0.000 HD
BRANCH  12  18
ATOM     14  C   UNL     1      -0.084  15.207  18.859  0.00  0.00    +0.000 C 
ATOM     15  C   UNL     1       0.479  13.829  18.709  0.00  0.00    +0.000 A 
ATOM     16  C   UNL     1       1.841  13.618  18.457  0.00  0.00    +0.000 A 
ATOM     17  C   UNL     1       2.346  12.318  18.272  0.00  0.00    +0.000 A 
ATOM     18  C   UNL     1       1.491  11.212  18.340  0.00  0.00    +0.000 A 
ATOM     19  C   UNL     1       0.132  11.434  18.580  0.00  0.00    +0.000 A 
ATOM     20  C   UNL     1      -0.368  12.721  18.784  0.00  0.00    +0.000 A 
ENDBRANCH  12  18
ENDBRANCH   1  12
BRANCH   7  21
ATOM     21  C   UNL     1       4.915   5.186  19.007  0.00  0.00    +0.000 C 
BRANCH  21  22
ATOM     22  C   UNL     1       5.823   4.839  17.805  0.00  0.00    +0.000 C 
ATOM     23  C   UNL     1       5.575   5.852  16.659  0.00  0.00    +0.000 C 
ATOM     24  C   UNL     1       6.038   7.272  17.008  0.00  0.00    +0.000 C 
ATOM     25  C   UNL     1       7.459   7.332  17.568  0.00  0.00    +0.000 C 
ATOM     26  C   UNL     1       7.810   6.217  18.555  0.00  0.00    +0.000 C 
ATOM     27  C   UNL     1       7.326   4.846  18.095  0.00  0.00    +0.000 C 
ENDBRANCH  21  22
ENDBRANCH   7  21
TORSDOF 4
ENDMDL
MODEL 8
REMARK VINA RESULT:      -8.2      1.521      2.006
REMARK  Name = 
REMARK  5 active torsions:
REMARK  status: ('A' for Active; 'I' for Inactive)
REMARK    1  A    between atoms: C_1  and  C_2
REMARK    2  A    between atoms: C_5  and  N_6
REMARK    3  A    between atoms: N_6  and  C_7
REMARK    4  A    between atoms: C_13  and  C_14
REMARK    5  A    between atoms: C_14  and  C_15
REMARK                            x       y       z     vdW  Elec       q    Type
REMARK                         _______ _______ _______ _____ _____    ______ ____
ROOT
ATOM      1  C   UNL     1       1.974   7.807  19.114  0.00  0.00    +0.000 A 
ATOM      2  C   UNL     1       1.452   7.486  20.393  0.00  0.00    +0.000 A 
ATOM      3  C   UNL     1       1.596   6.212  20.941  0.00  0.00    +0.000 A 
ATOM      4  C   UNL     1       2.319   5.298  20.210  0.00  0.00    +0.000 A 
ATOM      5  C   UNL     1       2.896   5.594  18.974  0.00  0.00    +0.000 A 
ATOM      6  C   UNL     1       2.671   6.828  18.384  0.00  0.00    +0.000 A 
ATOM      7  C   UNL     1       3.683   4.399  18.491  0.00  0.00    +0.000 C 
ATOM      8  C   UNL     1       3.265   3.332  19.545  0.00  0.00    +0.000 C 
ATOM      9  O   UNL     1       3.559   2.146  19.547  0.00  0.00    +0.000 OA
ATOM     10  N   UNL     1       2.556   3.979  20.544  0.00  0.00    +0.000 N 
ATOM     11  H   UNL     1       2.219   3.505  21.369  0.00  0.00    +0.000 HD
ENDROOT
BRANCH   1  12
ATOM     12  N   UNL     1       1.915   9.151  18.684  0.00  0.00    +0.000 N 
ATOM     13  H   UNL     1       2.794   9.641  18.824  0.00  0.00    +0.000 HD
BRANCH  12  18
ATOM     14  C   UNL     1      -2.604  12.475  19.790  0.00  0.00    +0.000 C 
ATOM     15  C   UNL     1      -1.406  11.661  19.415  0.00  0.00    +0.000 A 
ATOM     16  C   UNL     1      -1.439  10.759  18.343  0.00  0.00    +0.000 A 
ATOM     17  C   UNL     1      -0.319   9.967  18.033  0.00  0.00    +0.000 A 
ATOM     18  C   UNL     1       0.852  10.072  18.793  0.00  0.00    +0.000 A 
ATOM     19  C   UNL     1       0.872  10.966  19.867  0.00  0.00    +0.000 A 
ATOM     20  C   UNL     1      -0.232  11.767  20.165  0.00  0.00    +0.000 A 
ENDBRANCH  12  18
ENDBRANCH   1  12
BRANCH   7  21
ATOM     21  C   UNL     1       5.218   4.480  18.622  0.00  0.00    +0.000 C 
BRANCH  21  22
ATOM     22  C   UNL     1       6.132   4.484  17.376  0.00  0.00    +0.000 C 
ATOM     23  C   UNL     1       5.701   5.624  16.420  0.00  0.00    +0.000 C 
ATOM     24  C   UNL     1       5.953   7.019  17.004  0.00  0.00    +0.000 C 
ATOM     25  C   UNL     1       7.364   7.204  17.563  0.00  0.00    +0.000 C 
ATOM     26  C   UNL     1       7.909   6.006  18.344  0.00  0.00    +0.000 C 
ATOM     27  C   UNL     1       7.625   4.673  17.659  0.00  0.00    +0.000 C 
ENDBRANCH  21  22
ENDBRANCH   7  21
TORSDOF 4
ENDMDL
MODEL 9
REMARK VINA RESULT:      -8.2      3.928      8.462
REMARK  Name = 
REMARK  5 active torsions:
REMARK  status: ('A' for Active; 'I' for Inactive)
REMARK    1  A    between atoms: C_1  and  C_2
REMARK    2  A    between atoms: C_5  and  N_6
REMARK    3  A    between atoms: N_6  and  C_7
REMARK    4  A    between atoms: C_13  and  C_14
REMARK    5  A    between atoms: C_14  and  C_15
REMARK                            x       y       z     vdW  Elec       q    Type
REMARK                         _______ _______ _______ _____ _____    ______ ____
ROOT
ATOM      1  C   UNL     1       1.521   8.688  19.964  0.00  0.00    +0.000 A 
ATOM      2  C   UNL     1       0.881   8.435  21.204  0.00  0.00    +0.000 A 
ATOM      3  C   UNL     1      -0.059   9.319  21.733  0.00  0.00    +0.000 A 
ATOM      4  C   UNL     1      -0.381  10.416  20.968  0.00  0.00    +0.000 A 
ATOM      5  C   UNL     1       0.184  10.668  19.717  0.00  0.00    +0.000 A 
ATOM      6  C   UNL     1       1.190   9.844  19.235  0.00  0.00    +0.000 A 
ATOM      7  C   UNL     1      -0.451  11.900  19.121  0.00  0.00    +0.000 C 
ATOM      8  C   UNL     1      -1.290  12.408  20.330  0.00  0.00    +0.000 C 
ATOM      9  O   UNL     1      -1.930  13.447  20.397  0.00  0.00    +0.000 OA
ATOM     10  N   UNL     1      -1.256  11.429  21.309  0.00  0.00    +0.000 N 
ATOM     11  H   UNL     1      -1.770  11.504  22.174  0.00  0.00    +0.000 HD
ENDROOT
BRANCH   1  12
ATOM     12  N   UNL     1       2.355   7.685  19.424  0.00  0.00    +0.000 N 
ATOM     13  H   UNL     1       2.818   7.985  18.570  0.00  0.00    +0.000 HD
BRANCH  12  18
ATOM     14  C   UNL     1       0.795   2.213  18.865  0.00  0.00    +0.000 C 
ATOM     15  C   UNL     1       1.290   3.612  19.058  0.00  0.00    +0.000 A 
ATOM     16  C   UNL     1       1.315   4.212  20.324  0.00  0.00    +0.000 A 
ATOM     17  C   UNL     1       1.739   5.544  20.480  0.00  0.00    +0.000 A 
ATOM     18  C   UNL     1       2.146   6.291  19.369  0.00  0.00    +0.000 A 
ATOM     19  C   UNL     1       2.107   5.687  18.109  0.00  0.00    +0.000 A 
ATOM     20  C   UNL     1       1.705   4.359  17.953  0.00  0.00    +0.000 A 
ENDBRANCH  12  18
ENDBRANCH   1  12
BRANCH   7  21
ATOM     21  C   UNL     1      -1.493  11.674  18.005  0.00  0.00    +0.000 C 
BRANCH  21  22
ATOM     22  C   UNL     1      -2.364  10.398  17.966  0.00  0.00    +0.000 C 
ATOM     23  C   UNL     1      -3.858  10.786  18.102  0.00  0.00    +0.000 C 
ATOM     24  C   UNL     1      -4.383  11.569  16.892  0.00  0.00    +0.000 C 
ATOM     25  C   UNL     1      -4.050  10.917  15.549  0.00  0.00    +0.000 C 
ATOM     26  C   UNL     1      -2.640  10.333  15.449  0.00  0.00    +0.000 C 
ATOM     27  C   UNL     1      -2.232   9.554  16.696  0.00  0.00    +0.000 C 
ENDBRANCH  21  22
ENDBRANCH   7  21
TORSDOF 4
ENDMDL
