MODEL 1
REMARK VINA RESULT:      -5.9      0.000      0.000
REMARK  Name = 
REMARK  10 active torsions:
REMARK  status: ('A' for Active; 'I' for Inactive)
REMARK    1  A    between atoms: C_1  and  C_2
REMARK    2  A    between atoms: C_2  and  C_3
REMARK    3  A    between atoms: C_3  and  C_4
REMARK    4  A    between atoms: C_3  and  N_14
REMARK    5  A    between atoms: C_4  and  N_5
REMARK    6  A    between atoms: N_8  and  C_9
REMARK    7  A    between atoms: C_10  and  C_11
REMARK    8  A    between atoms: N_12  and  O_13
REMARK    9  A    between atoms: N_14  and  C_15
REMARK   10  A    between atoms: N_14  and  C_16
REMARK                            x       y       z     vdW  Elec       q    Type
REMARK                         _______ _______ _______ _____ _____    ______ ____
ROOT
ATOM      1  N   UNL     1       4.028   4.722  18.039  0.00  0.00    +0.000 N 
ATOM      2  C   UNL     1       3.377   5.950  18.113  0.00  0.00    +0.000 A 
ATOM      3  C   UNL     1       2.379   5.826  19.025  0.00  0.00    +0.000 A 
ATOM      4  N   UNL     1       2.438   4.535  19.503  0.00  0.00    +0.000 N 
ATOM      5  C   UNL     1       1.448   3.941  20.405  0.00  0.00    +0.000 C 
ATOM      6  C   UNL     1       3.531   3.891  19.007  0.00  0.00    +0.000 A 
ENDROOT
BRANCH   6   7
ATOM      7  C   UNL     1       4.025   2.635  19.409  0.00  0.00    +0.000 C 
ATOM      8  N   UNL     1       5.071   2.434  20.160  0.00  0.00    +0.000 NA
BRANCH   8   9
ATOM      9  O   UNL     1       5.281   1.057  20.296  0.00  0.00    +0.000 OA
ATOM     10  H   UNL     1       5.178   0.905  21.258  0.00  0.00    +0.000 HD
ENDBRANCH   8   9
ENDBRANCH   6   7
BRANCH   1  11
ATOM     11  C   UNL     1       5.035   4.332  17.012  0.00  0.00    +0.000 C 
BRANCH  11  12
ATOM     12  C   UNL     1       5.797   5.490  16.275  0.00  0.00    +0.000 C 
BRANCH  12  13
ATOM     13  N   UNL     1       7.204   5.675  16.758  0.00  0.00    +0.000 NA
ATOM     14  C   UNL     1       7.418   6.977  17.409  0.00  0.00    +0.000 C 
ATOM     15  C   UNL     1       7.637   4.623  17.692  0.00  0.00    +0.000 C 
ENDBRANCH  12  13
BRANCH  12  17
ATOM     16  C   UNL     1       6.250   3.904  14.256  0.00  0.00    +0.000 C 
ATOM     17  C   UNL     1       5.738   5.260  14.736  0.00  0.00    +0.000 C 
ENDBRANCH  12  17
ENDBRANCH  11  12
ENDBRANCH   1  11
TORSDOF 6
ENDMDL
MODEL 2
REMARK VINA RESULT:      -5.8      1.917      5.096
REMARK  Name = 
REMARK  10 active torsions:
REMARK  status: ('A' for Active; 'I' for Inactive)
REMARK    1  A    between atoms: C_1  and  C_2
REMARK    2  A    between atoms: C_2  and  C_3
REMARK    3  A    between atoms: C_3  and  C_4
REMARK    4  A    between atoms: C_3  and  N_14
REMARK    5  A    between atoms: C_4  and  N_5
REMARK    6  A    between atoms: N_8  and  C_9
REMARK    7  A    between atoms: C_10  and  C_11
REMARK    8  A    between atoms: N_12  and  O_13
REMARK    9  A    between atoms: N_14  and  C_15
REMARK   10  A    between atoms: N_14  and  C_16
REMARK                            x       y       z     vdW  Elec       q    Type
REMARK                         _______ _______ _______ _____ _____    ______ ____
ROOT
ATOM      1  N   UNL     1       5.256   4.659  17.746  0.00  0.00    +0.000 N 
ATOM      2  C   UNL     1       5.095   4.859  16.378  0.00  0.00    +0.000 A 
ATOM      3  C   UNL     1       5.880   5.909  16.026  0.00  0.00    +0.000 A 
ATOM      4  N   UNL     1       6.517   6.329  17.174  0.00  0.00    +0.000 N 
ATOM      5  C   UNL     1       7.350   7.530  17.265  0.00  0.00    +0.000 C 
ATOM      6  C   UNL     1       6.248   5.483  18.207  0.00  0.00    +0.000 A 
ENDROOT
BRANCH   6   7
ATOM      7  C   UNL     1       6.862   5.477  19.475  0.00  0.00    +0.000 C 
ATOM      8  N   UNL     1       8.106   5.175  19.715  0.00  0.00    +0.000 NA
BRANCH   8   9
ATOM      9  O   UNL     1       8.332   5.228  21.096  0.00  0.00    +0.000 OA
ATOM     10  H   UNL     1       7.461   5.491  21.459  0.00  0.00    +0.000 HD
ENDBRANCH   8   9
ENDBRANCH   6   7
BRANCH   1  11
ATOM     11  C   UNL     1       4.423   3.765  18.599  0.00  0.00    +0.000 C 
BRANCH  11  12
ATOM     12  C   UNL     1       2.947   4.215  18.886  0.00  0.00    +0.000 C 
BRANCH  12  13
ATOM     13  N   UNL     1       2.187   3.245  19.741  0.00  0.00    +0.000 NA
ATOM     14  C   UNL     1       2.996   2.695  20.841  0.00  0.00    +0.000 C 
ATOM     15  C   UNL     1       0.963   3.821  20.321  0.00  0.00    +0.000 C 
ENDBRANCH  12  13
BRANCH  12  17
ATOM     16  C   UNL     1       2.608   6.772  18.515  0.00  0.00    +0.000 C 
ATOM     17  C   UNL     1       2.943   5.648  19.493  0.00  0.00    +0.000 C 
ENDBRANCH  12  17
ENDBRANCH  11  12
ENDBRANCH   1  11
TORSDOF 6
ENDMDL
MODEL 3
REMARK VINA RESULT:      -5.8      1.980      4.797
REMARK  Name = 
REMARK  10 active torsions:
REMARK  status: ('A' for Active; 'I' for Inactive)
REMARK    1  A    between atoms: C_1  and  C_2
REMARK    2  A    between atoms: C_2  and  C_3
REMARK    3  A    between atoms: C_3  and  C_4
REMARK    4  A    between atoms: C_3  and  N_14
REMARK    5  A    between atoms: C_4  and  N_5
REMARK    6  A    between atoms: N_8  and  C_9
REMARK    7  A    between atoms: C_10  and  C_11
REMARK    8  A    between atoms: N_12  and  O_13
REMARK    9  A    between atoms: N_14  and  C_15
REMARK   10  A    between atoms: N_14  and  C_16
REMARK                            x       y       z     vdW  Elec       q    Type
REMARK                         _______ _______ _______ _____ _____    ______ ____
ROOT
ATOM      1  N   UNL     1       5.240   4.467  17.754  0.00  0.00    +0.000 N 
ATOM      2  C   UNL     1       5.023   4.670  16.395  0.00  0.00    +0.000 A 
ATOM      3  C   UNL     1       5.687   5.801  16.043  0.00  0.00    +0.000 A 
ATOM      4  N   UNL     1       6.307   6.267  17.182  0.00  0.00    +0.000 N 
ATOM      5  C   UNL     1       7.014   7.547  17.274  0.00  0.00    +0.000 C 
ATOM      6  C   UNL     1       6.153   5.383  18.206  0.00  0.00    +0.000 A 
ENDROOT
BRANCH   6   7
ATOM      7  C   UNL     1       6.797   5.421  19.458  0.00  0.00    +0.000 C 
ATOM      8  N   UNL     1       8.056   5.167  19.673  0.00  0.00    +0.000 NA
BRANCH   8   9
ATOM      9  O   UNL     1       8.313   5.252  21.046  0.00  0.00    +0.000 OA
ATOM     10  H   UNL     1       8.196   6.205  21.241  0.00  0.00    +0.000 HD
ENDBRANCH   8   9
ENDBRANCH   6   7
BRANCH   1  11
ATOM     11  C   UNL     1       4.525   3.479  18.611  0.00  0.00    +0.000 C 
BRANCH  11  12
ATOM     12  C   UNL     1       3.086   3.862  19.105  0.00  0.00    +0.000 C 
BRANCH  12  13
ATOM     13  N   UNL     1       2.923   5.328  19.378  0.00  0.00    +0.000 NA
ATOM     14  C   UNL     1       2.331   6.059  18.247  0.00  0.00    +0.000 C 
ATOM     15  C   UNL     1       2.113   5.605  20.574  0.00  0.00    +0.000 C 
ENDBRANCH  12  13
BRANCH  12  17
ATOM     16  C   UNL     1       0.888   2.523  18.695  0.00  0.00    +0.000 C 
ATOM     17  C   UNL     1       2.026   3.340  18.090  0.00  0.00    +0.000 C 
ENDBRANCH  12  17
ENDBRANCH  11  12
ENDBRANCH   1  11
TORSDOF 6
ENDMDL
MODEL 4
REMARK VINA RESULT:      -5.8      1.596      1.958
REMARK  Name = 
REMARK  10 active torsions:
REMARK  status: ('A' for Active; 'I' for Inactive)
REMARK    1  A    between atoms: C_1  and  C_2
REMARK    2  A    between atoms: C_2  and  C_3
REMARK    3  A    between atoms: C_3  and  C_4
REMARK    4  A    between atoms: C_3  and  N_14
REMARK    5  A    between atoms: C_4  and  N_5
REMARK    6  A    between atoms: N_8  and  C_9
REMARK    7  A    between atoms: C_10  and  C_11
REMARK    8  A    between atoms: N_12  and  O_13
REMARK    9  A    between atoms: N_14  and  C_15
REMARK   10  A    between atoms: N_14  and  C_16
REMARK                            x       y       z     vdW  Elec       q    Type
REMARK                         _______ _______ _______ _____ _____    ______ ____
ROOT
ATOM      1  N   UNL     1       3.456   4.862  19.192  0.00  0.00    +0.000 N 
ATOM      2  C   UNL     1       2.711   5.814  19.882  0.00  0.00    +0.000 A 
ATOM      3  C   UNL     1       1.903   5.148  20.747  0.00  0.00    +0.000 A 
ATOM      4  N   UNL     1       2.170   3.806  20.584  0.00  0.00    +0.000 N 
ATOM      5  C   UNL     1       1.414   2.729  21.228  0.00  0.00    +0.000 C 
ATOM      6  C   UNL     1       3.218   3.627  19.733  0.00  0.00    +0.000 A 
ENDROOT
BRANCH   6   7
ATOM      7  C   UNL     1       3.895   2.420  19.470  0.00  0.00    +0.000 C 
ATOM      8  N   UNL     1       3.599   1.573  18.525  0.00  0.00    +0.000 NA
BRANCH   8   9
ATOM      9  O   UNL     1       4.458   0.471  18.612  0.00  0.00    +0.000 OA
ATOM     10  H   UNL     1       5.345   0.862  18.470  0.00  0.00    +0.000 HD
ENDBRANCH   8   9
ENDBRANCH   6   7
BRANCH   1  11
ATOM     11  C   UNL     1       4.303   5.122  17.993  0.00  0.00    +0.000 C 
BRANCH  11  12
ATOM     12  C   UNL     1       5.652   5.891  18.218  0.00  0.00    +0.000 C 
BRANCH  12  13
ATOM     13  N   UNL     1       6.780   4.998  18.641  0.00  0.00    +0.000 NA
ATOM     14  C   UNL     1       7.577   4.506  17.507  0.00  0.00    +0.000 C 
ATOM     15  C   UNL     1       7.696   5.640  19.598  0.00  0.00    +0.000 C 
ENDBRANCH  12  13
BRANCH  12  17
ATOM     16  C   UNL     1       5.097   6.480  15.741  0.00  0.00    +0.000 C 
ATOM     17  C   UNL     1       6.008   6.711  16.943  0.00  0.00    +0.000 C 
ENDBRANCH  12  17
ENDBRANCH  11  12
ENDBRANCH   1  11
TORSDOF 6
ENDMDL
MODEL 5
REMARK VINA RESULT:      -5.8      1.103      1.108
REMARK  Name = 
REMARK  10 active torsions:
REMARK  status: ('A' for Active; 'I' for Inactive)
REMARK    1  A    between atoms: C_1  and  C_2
REMARK    2  A    between atoms: C_2  and  C_3
REMARK    3  A    between atoms: C_3  and  C_4
REMARK    4  A    between atoms: C_3  and  N_14
REMARK    5  A    between atoms: C_4  and  N_5
REMARK    6  A    between atoms: N_8  and  C_9
REMARK    7  A    between atoms: C_10  and  C_11
REMARK    8  A    between atoms: N_12  and  O_13
REMARK    9  A    between atoms: N_14  and  C_15
REMARK   10  A    between atoms: N_14  and  C_16
REMARK                            x       y       z     vdW  Elec       q    Type
REMARK                         _______ _______ _______ _____ _____    ______ ____
ROOT
ATOM      1  N   UNL     1       4.314   4.779  17.367  0.00  0.00    +0.000 N 
ATOM      2  C   UNL     1       3.819   6.075  17.474  0.00  0.00    +0.000 A 
ATOM      3  C   UNL     1       2.761   6.037  18.323  0.00  0.00    +0.000 A 
ATOM      4  N   UNL     1       2.629   4.728  18.733  0.00  0.00    +0.000 N 
ATOM      5  C   UNL     1       1.520   4.224  19.546  0.00  0.00    +0.000 C 
ATOM      6  C   UNL     1       3.659   3.973  18.261  0.00  0.00    +0.000 A 
ENDROOT
BRANCH   6   7
ATOM      7  C   UNL     1       3.967   2.646  18.619  0.00  0.00    +0.000 C 
ATOM      8  N   UNL     1       3.542   1.576  18.010  0.00  0.00    +0.000 NA
BRANCH   8   9
ATOM      9  O   UNL     1       4.013   0.445  18.687  0.00  0.00    +0.000 OA
ATOM     10  H   UNL     1       4.436  -0.084  17.979  0.00  0.00    +0.000 HD
ENDBRANCH   8   9
ENDBRANCH   6   7
BRANCH   1  11
ATOM     11  C   UNL     1       5.323   4.311  16.375  0.00  0.00    +0.000 C 
BRANCH  11  12
ATOM     12  C   UNL     1       6.330   5.377  15.816  0.00  0.00    +0.000 C 
BRANCH  12  13
ATOM     13  N   UNL     1       7.470   5.663  16.748  0.00  0.00    +0.000 NA
ATOM     14  C   UNL     1       7.348   6.966  17.419  0.00  0.00    +0.000 C 
ATOM     15  C   UNL     1       7.640   4.631  17.784  0.00  0.00    +0.000 C 
ENDBRANCH  12  13
BRANCH  12  17
ATOM     16  C   UNL     1       5.976   3.883  13.710  0.00  0.00    +0.000 C 
ATOM     17  C   UNL     1       6.828   4.941  14.407  0.00  0.00    +0.000 C 
ENDBRANCH  12  17
ENDBRANCH  11  12
ENDBRANCH   1  11
TORSDOF 6
ENDMDL
MODEL 6
REMARK VINA RESULT:      -5.7      1.991      5.102
REMARK  Name = 
REMARK  10 active torsions:
REMARK  status: ('A' for Active; 'I' for Inactive)
REMARK    1  A    between atoms: C_1  and  C_2
REMARK    2  A    between atoms: C_2  and  C_3
REMARK    3  A    between atoms: C_3  and  C_4
REMARK    4  A    between atoms: C_3  and  N_14
REMARK    5  A    between atoms: C_4  and  N_5
REMARK    6  A    between atoms: N_8  and  C_9
REMARK    7  A    between atoms: C_10  and  C_11
REMARK    8  A    between atoms: N_12  and  O_13
REMARK    9  A    between atoms: N_14  and  C_15
REMARK   10  A    between atoms: N_14  and  C_16
REMARK                            x       y       z     vdW  Elec       q    Type
REMARK                         _______ _______ _______ _____ _____    ______ ____
ROOT
ATOM      1  N   UNL     1       5.293   4.403  17.735  0.00  0.00    +0.000 N 
ATOM      2  C   UNL     1       5.084   4.599  16.373  0.00  0.00    +0.000 A 
ATOM      3  C   UNL     1       5.739   5.736  16.022  0.00  0.00    +0.000 A 
ATOM      4  N   UNL     1       6.345   6.211  17.164  0.00  0.00    +0.000 N 
ATOM      5  C   UNL     1       7.039   7.499  17.257  0.00  0.00    +0.000 C 
ATOM      6  C   UNL     1       6.193   5.329  18.190  0.00  0.00    +0.000 A 
ENDROOT
BRANCH   6   7
ATOM      7  C   UNL     1       6.827   5.377  19.447  0.00  0.00    +0.000 C 
ATOM      8  N   UNL     1       8.099   5.199  19.664  0.00  0.00    +0.000 NA
BRANCH   8   9
ATOM      9  O   UNL     1       8.344   5.268  21.040  0.00  0.00    +0.000 OA
ATOM     10  H   UNL     1       8.488   4.333  21.293  0.00  0.00    +0.000 HD
ENDBRANCH   8   9
ENDBRANCH   6   7
BRANCH   1  11
ATOM     11  C   UNL     1       4.582   3.410  18.590  0.00  0.00    +0.000 C 
BRANCH  11  12
ATOM     12  C   UNL     1       3.438   3.948  19.519  0.00  0.00    +0.000 C 
BRANCH  12  13
ATOM     13  N   UNL     1       2.651   5.066  18.903  0.00  0.00    +0.000 NA
ATOM     14  C   UNL     1       1.526   4.590  18.082  0.00  0.00    +0.000 C 
ATOM     15  C   UNL     1       2.120   6.014  19.896  0.00  0.00    +0.000 C 
ENDBRANCH  12  13
BRANCH  12  17
ATOM     16  C   UNL     1       2.172   2.735  21.447  0.00  0.00    +0.000 C 
ATOM     17  C   UNL     1       2.522   2.770  19.962  0.00  0.00    +0.000 C 
ENDBRANCH  12  17
ENDBRANCH  11  12
ENDBRANCH   1  11
TORSDOF 6
ENDMDL
MODEL 7
REMARK VINA RESULT:      -5.7      0.893      1.236
REMARK  Name = 
REMARK  10 active torsions:
REMARK  status: ('A' for Active; 'I' for Inactive)
REMARK    1  A    between atoms: C_1  and  C_2
REMARK    2  A    between atoms: C_2  and  C_3
REMARK    3  A    between atoms: C_3  and  C_4
REMARK    4  A    between atoms: C_3  and  N_14
REMARK    5  A    between atoms: C_4  and  N_5
REMARK    6  A    between atoms: N_8  and  C_9
REMARK    7  A    between atoms: C_10  and  C_11
REMARK    8  A    between atoms: N_12  and  O_13
REMARK    9  A    between atoms: N_14  and  C_15
REMARK   10  A    between atoms: N_14  and  C_16
REMARK                            x       y       z     vdW  Elec       q    Type
REMARK                         _______ _______ _______ _____ _____    ______ ____
ROOT
ATOM      1  N   UNL     1       3.792   5.480  17.803  0.00  0.00    +0.000 N 
ATOM      2  C   UNL     1       3.343   6.786  17.973  0.00  0.00    +0.000 A 
ATOM      3  C   UNL     1       2.598   6.815  19.108  0.00  0.00    +0.000 A 
ATOM      4  N   UNL     1       2.610   5.536  19.621  0.00  0.00    +0.000 N 
ATOM      5  C   UNL     1       1.809   5.098  20.767  0.00  0.00    +0.000 C 
ATOM      6  C   UNL     1       3.451   4.741  18.904  0.00  0.00    +0.000 A 
ENDROOT
BRANCH   6   7
ATOM      7  C   UNL     1       3.866   3.436  19.235  0.00  0.00    +0.000 C 
ATOM      8  N   UNL     1       5.028   3.108  19.723  0.00  0.00    +0.000 NA
BRANCH   8   9
ATOM      9  O   UNL     1       5.089   1.718  19.870  0.00  0.00    +0.000 OA
ATOM     10  H   UNL     1       4.517   1.546  20.647  0.00  0.00    +0.000 HD
ENDBRANCH   8   9
ENDBRANCH   6   7
BRANCH   1  11
ATOM     11  C   UNL     1       4.451   4.939  16.581  0.00  0.00    +0.000 C 
BRANCH  11  12
ATOM     12  C   UNL     1       5.924   5.399  16.294  0.00  0.00    +0.000 C 
BRANCH  12  13
ATOM     13  N   UNL     1       6.702   5.706  17.538  0.00  0.00    +0.000 NA
ATOM     14  C   UNL     1       7.699   4.673  17.861  0.00  0.00    +0.000 C 
ATOM     15  C   UNL     1       7.394   7.004  17.480  0.00  0.00    +0.000 C 
ENDBRANCH  12  13
BRANCH  12  17
ATOM     16  C   UNL     1       6.962   4.784  13.983  0.00  0.00    +0.000 C 
ATOM     17  C   UNL     1       6.642   4.339  15.408  0.00  0.00    +0.000 C 
ENDBRANCH  12  17
ENDBRANCH  11  12
ENDBRANCH   1  11
TORSDOF 6
ENDMDL
MODEL 8
REMARK VINA RESULT:      -5.7      1.008      1.014
REMARK  Name = 
REMARK  10 active torsions:
REMARK  status: ('A' for Active; 'I' for Inactive)
REMARK    1  A    between atoms: C_1  and  C_2
REMARK    2  A    between atoms: C_2  and  C_3
REMARK    3  A    between atoms: C_3  and  C_4
REMARK    4  A    between atoms: C_3  and  N_14
REMARK    5  A    between atoms: C_4  and  N_5
REMARK    6  A    between atoms: N_8  and  C_9
REMARK    7  A    between atoms: C_10  and  C_11
REMARK    8  A    between atoms: N_12  and  O_13
REMARK    9  A    between atoms: N_14  and  C_15
REMARK   10  A    between atoms: N_14  and  C_16
REMARK                            x       y       z     vdW  Elec       q    Type
REMARK                         _______ _______ _______ _____ _____    ______ ____
ROOT
ATOM      1  N   UNL     1       4.452   4.465  17.964  0.00  0.00    +0.000 N 
ATOM      2  C   UNL     1       3.595   5.522  17.672  0.00  0.00    +0.000 A 
ATOM      3  C   UNL     1       2.337   5.124  17.992  0.00  0.00    +0.000 A 
ATOM      4  N   UNL     1       2.440   3.841  18.483  0.00  0.00    +0.000 N 
ATOM      5  C   UNL     1       1.296   2.987  18.813  0.00  0.00    +0.000 C 
ATOM      6  C   UNL     1       3.748   3.477  18.599  0.00  0.00    +0.000 A 
ENDROOT
BRANCH   6   7
ATOM      7  C   UNL     1       4.250   2.324  19.233  0.00  0.00    +0.000 C 
ATOM      8  N   UNL     1       5.015   2.309  20.287  0.00  0.00    +0.000 NA
BRANCH   8   9
ATOM      9  O   UNL     1       5.352   0.984  20.589  0.00  0.00    +0.000 OA
ATOM     10  H   UNL     1       4.887   0.818  21.435  0.00  0.00    +0.000 HD
ENDBRANCH   8   9
ENDBRANCH   6   7
BRANCH   1  11
ATOM     11  C   UNL     1       5.885   4.372  17.566  0.00  0.00    +0.000 C 
BRANCH  11  12
ATOM     12  C   UNL     1       6.487   5.574  16.756  0.00  0.00    +0.000 C 
BRANCH  12  13
ATOM     13  N   UNL     1       7.629   6.248  17.456  0.00  0.00    +0.000 NA
ATOM     14  C   UNL     1       7.525   7.715  17.441  0.00  0.00    +0.000 C 
ATOM     15  C   UNL     1       7.783   5.817  18.855  0.00  0.00    +0.000 C 
ENDBRANCH  12  13
BRANCH  12  17
ATOM     16  C   UNL     1       5.734   4.562  14.475  0.00  0.00    +0.000 C 
ATOM     17  C   UNL     1       6.882   5.099  15.327  0.00  0.00    +0.000 C 
ENDBRANCH  12  17
ENDBRANCH  11  12
ENDBRANCH   1  11
TORSDOF 6
ENDMDL
MODEL 9
REMARK VINA RESULT:      -5.7      0.867      1.269
REMARK  Name = 
REMARK  10 active torsions:
REMARK  status: ('A' for Active; 'I' for Inactive)
REMARK    1  A    between atoms: C_1  and  C_2
REMARK    2  A    between atoms: C_2  and  C_3
REMARK    3  A    between atoms: C_3  and  C_4
REMARK    4  A    between atoms: C_3  and  N_14
REMARK    5  A    between atoms: C_4  and  N_5
REMARK    6  A    between atoms: N_8  and  C_9
REMARK    7  A    between atoms: C_10  and  C_11
REMARK    8  A    between atoms: N_12  and  O_13
REMARK    9  A    between atoms: N_14  and  C_15
REMARK   10  A    between atoms: N_14  and  C_16
REMARK                            x       y       z     vdW  Elec       q    Type
REMARK                         _______ _______ _______ _____ _____    ______ ____
ROOT
ATOM      1  N   UNL     1       3.537   4.696  18.759  0.00  0.00    +0.000 N 
ATOM      2  C   UNL     1       2.827   5.804  19.209  0.00  0.00    +0.000 A 
ATOM      3  C   UNL     1       2.056   5.398  20.250  0.00  0.00    +0.000 A 
ATOM      4  N   UNL     1       2.312   4.056  20.431  0.00  0.00    +0.000 N 
ATOM      5  C   UNL     1       1.582   3.193  21.363  0.00  0.00    +0.000 C 
ATOM      6  C   UNL     1       3.320   3.647  19.612  0.00  0.00    +0.000 A 
ENDROOT
BRANCH   6   7
ATOM      7  C   UNL     1       3.982   2.403  19.643  0.00  0.00    +0.000 C 
ATOM      8  N   UNL     1       5.001   2.104  20.397  0.00  0.00    +0.000 NA
BRANCH   8   9
ATOM      9  O   UNL     1       5.415   0.798  20.109  0.00  0.00    +0.000 OA
ATOM     10  H   UNL     1       4.977   0.262  20.802  0.00  0.00    +0.000 HD
ENDBRANCH   8   9
ENDBRANCH   6   7
BRANCH   1  11
ATOM     11  C   UNL     1       4.331   4.624  17.500  0.00  0.00    +0.000 C 
BRANCH  11  12
ATOM     12  C   UNL     1       5.202   5.875  17.125  0.00  0.00    +0.000 C 
BRANCH  12  13
ATOM     13  N   UNL     1       6.456   5.989  17.938  0.00  0.00    +0.000 NA
ATOM     14  C   UNL     1       7.237   4.743  17.965  0.00  0.00    +0.000 C 
ATOM     15  C   UNL     1       7.343   7.072  17.483  0.00  0.00    +0.000 C 
ENDBRANCH  12  13
BRANCH  12  17
ATOM     16  C   UNL     1       5.413   4.503  14.919  0.00  0.00    +0.000 C 
ATOM     17  C   UNL     1       5.500   5.868  15.597  0.00  0.00    +0.000 C 
ENDBRANCH  12  17
ENDBRANCH  11  12
ENDBRANCH   1  11
TORSDOF 6
ENDMDL
