MODEL 1
REMARK VINA RESULT:      -7.9      0.000      0.000
REMARK  Name = 
REMARK  13 active torsions:
REMARK  status: ('A' for Active; 'I' for Inactive)
REMARK    1  A    between atoms: C_1  and  C_2
REMARK    2  A    between atoms: C_2  and  C_23
REMARK    3  A    between atoms: N_3  and  O_4
REMARK    4  A    between atoms: O_4  and  C_5
REMARK    5  A    between atoms: C_5  and  C_6
REMARK    6  A    between atoms: C_9  and  C_10
REMARK    7  A    between atoms: C_17  and  C_18
REMARK    8  A    between atoms: C_26  and  C_27
REMARK    9  A    between atoms: C_27  and  N_28
REMARK   10  A    between atoms: N_28  and  C_29
REMARK   11  A    between atoms: C_29  and  C_30
REMARK   12  A    between atoms: C_30  and  C_31
REMARK   13  A    between atoms: C_31  and  O_33
REMARK                            x       y       z     vdW  Elec       q    Type
REMARK                         _______ _______ _______ _____ _____    ______ ____
ROOT
ATOM      1  O   UNL     1       1.187   7.728  20.820  0.00  0.00    +0.000 OA
ENDROOT
BRANCH   1   4
ATOM      2  C   UNL     1       1.968   5.226  20.399  0.00  0.00    +0.000 C 
ATOM      3  C   UNL     1       2.381   6.380  19.503  0.00  0.00    +0.000 C 
ATOM      4  N   UNL     1       2.031   7.618  19.710  0.00  0.00    +0.000 NA
BRANCH   3   5
ATOM      5  C   UNL     1       3.260   6.061  18.319  0.00  0.00    +0.000 A 
ATOM      6  C   UNL     1       3.882   7.068  17.583  0.00  0.00    +0.000 A 
ATOM      7  C   UNL     1       4.705   6.746  16.500  0.00  0.00    +0.000 A 
ATOM      8  C   UNL     1       4.927   5.410  16.137  0.00  0.00    +0.000 A 
ATOM      9  C   UNL     1       4.292   4.400  16.870  0.00  0.00    +0.000 A 
ATOM     10  C   UNL     1       3.467   4.723  17.954  0.00  0.00    +0.000 A 
BRANCH   8  11
ATOM     11  C   UNL     1       5.834   5.076  14.976  0.00  0.00    +0.000 C 
BRANCH  11  12
ATOM     12  N   UNL     1       7.212   4.884  15.437  0.00  0.00    +0.000 NA
ATOM     13  H   UNL     1       7.839   5.180  14.688  0.00  0.00    +0.000 HD
BRANCH  12  14
ATOM     14  C   UNL     1       7.465   5.666  16.653  0.00  0.00    +0.000 C 
BRANCH  14  15
ATOM     15  C   UNL     1       7.663   4.733  17.844  0.00  0.00    +0.000 C 
BRANCH  15  16
ATOM     16  C   UNL     1       7.380   5.444  19.138  0.00  0.00    +0.000 C 
ATOM     17  O   UNL     1       6.411   5.251  19.859  0.00  0.00    +0.000 OA
BRANCH  16  18
ATOM     18  O   UNL     1       8.324   6.370  19.436  0.00  0.00    +0.000 OA
ATOM     19  H   UNL     1       8.375   7.096  18.783  0.00  0.00    +0.000 HD
ENDBRANCH  16  18
ENDBRANCH  15  16
ENDBRANCH  14  15
ENDBRANCH  12  14
ENDBRANCH  11  12
ENDBRANCH   8  11
ENDBRANCH   3   5
ENDBRANCH   1   4
BRANCH   1  20
ATOM     20  C   UNL     1       1.743   8.662  21.747  0.00  0.00    +0.000 C 
BRANCH  20  21
ATOM     21  C   UNL     1       0.717   9.733  22.009  0.00  0.00    +0.000 A 
ATOM     22  C   UNL     1      -0.175   9.633  23.068  0.00  0.00    +0.000 A 
ATOM     23  C   UNL     1      -1.156  10.612  23.257  0.00  0.00    +0.000 A 
ATOM     24  C   UNL     1      -1.282  11.752  22.422  0.00  0.00    +0.000 A 
ATOM     25  C   UNL     1      -0.338  11.879  21.372  0.00  0.00    +0.000 A 
ATOM     26  C   UNL     1       0.624  10.851  21.174  0.00  0.00    +0.000 A 
BRANCH  24  27
ATOM     27  C   UNL     1      -2.383  12.712  22.723  0.00  0.00    +0.000 A 
ATOM     28  C   UNL     1      -2.179  13.789  23.617  0.00  0.00    +0.000 A 
ATOM     29  C   UNL     1      -3.195  14.704  23.917  0.00  0.00    +0.000 A 
ATOM     30  C   UNL     1      -4.422  14.588  23.288  0.00  0.00    +0.000 A 
ATOM     31  F   UNL     1      -5.380  15.491  23.531  0.00  0.00    +0.000 F 
ATOM     32  C   UNL     1      -4.670  13.536  22.420  0.00  0.00    +0.000 A 
ATOM     33  C   UNL     1      -3.676  12.577  22.185  0.00  0.00    +0.000 A 
ENDBRANCH  24  27
BRANCH  25  34
ATOM     34  C   UNL     1      -0.227  13.026  20.386  0.00  0.00    +0.000 C 
ATOM     35  F   UNL     1      -1.335  13.323  19.663  0.00  0.00    +0.000 F 
ATOM     36  F   UNL     1       0.096  14.201  21.007  0.00  0.00    +0.000 F 
ATOM     37  F   UNL     1       0.772  12.816  19.477  0.00  0.00    +0.000 F 
ENDBRANCH  25  34
ENDBRANCH  20  21
ENDBRANCH   1  20
TORSDOF 12
ENDMDL
MODEL 2
REMARK VINA RESULT:      -7.7      2.373      2.999
REMARK  Name = 
REMARK  13 active torsions:
REMARK  status: ('A' for Active; 'I' for Inactive)
REMARK    1  A    between atoms: C_1  and  C_2
REMARK    2  A    between atoms: C_2  and  C_23
REMARK    3  A    between atoms: N_3  and  O_4
REMARK    4  A    between atoms: O_4  and  C_5
REMARK    5  A    between atoms: C_5  and  C_6
REMARK    6  A    between atoms: C_9  and  C_10
REMARK    7  A    between atoms: C_17  and  C_18
REMARK    8  A    between atoms: C_26  and  C_27
REMARK    9  A    between atoms: C_27  and  N_28
REMARK   10  A    between atoms: N_28  and  C_29
REMARK   11  A    between atoms: C_29  and  C_30
REMARK   12  A    between atoms: C_30  and  C_31
REMARK   13  A    between atoms: C_31  and  O_33
REMARK                            x       y       z     vdW  Elec       q    Type
REMARK                         _______ _______ _______ _____ _____    ______ ____
ROOT
ATOM      1  O   UNL     1       1.126   7.576  20.667  0.00  0.00    +0.000 OA
ENDROOT
BRANCH   1   4
ATOM      2  C   UNL     1       1.749   8.517  18.264  0.00  0.00    +0.000 C 
ATOM      3  C   UNL     1       2.392   7.275  18.855  0.00  0.00    +0.000 C 
ATOM      4  N   UNL     1       2.079   6.783  20.019  0.00  0.00    +0.000 NA
BRANCH   3   5
ATOM      5  C   UNL     1       3.439   6.574  18.026  0.00  0.00    +0.000 A 
ATOM      6  C   UNL     1       4.301   7.282  17.191  0.00  0.00    +0.000 A 
ATOM      7  C   UNL     1       5.274   6.611  16.445  0.00  0.00    +0.000 A 
ATOM      8  C   UNL     1       5.406   5.217  16.524  0.00  0.00    +0.000 A 
ATOM      9  C   UNL     1       4.532   4.505  17.354  0.00  0.00    +0.000 A 
ATOM     10  C   UNL     1       3.557   5.178  18.100  0.00  0.00    +0.000 A 
BRANCH   8  11
ATOM     11  C   UNL     1       6.474   4.506  15.726  0.00  0.00    +0.000 C 
BRANCH  11  12
ATOM     12  N   UNL     1       6.865   5.305  14.561  0.00  0.00    +0.000 NA
ATOM     13  H   UNL     1       7.803   5.669  14.729  0.00  0.00    +0.000 HD
BRANCH  12  14
ATOM     14  C   UNL     1       6.845   4.488  13.342  0.00  0.00    +0.000 C 
BRANCH  14  15
ATOM     15  C   UNL     1       5.654   3.535  13.369  0.00  0.00    +0.000 C 
BRANCH  15  16
ATOM     16  C   UNL     1       5.376   2.981  12.000  0.00  0.00    +0.000 C 
ATOM     17  O   UNL     1       5.965   2.043  11.479  0.00  0.00    +0.000 OA
BRANCH  16  18
ATOM     18  O   UNL     1       4.388   3.653  11.361  0.00  0.00    +0.000 OA
ATOM     19  H   UNL     1       3.757   3.067  10.897  0.00  0.00    +0.000 HD
ENDBRANCH  16  18
ENDBRANCH  15  16
ENDBRANCH  14  15
ENDBRANCH  12  14
ENDBRANCH  11  12
ENDBRANCH   8  11
ENDBRANCH   3   5
ENDBRANCH   1   4
BRANCH   1  20
ATOM     20  C   UNL     1       1.788   8.487  21.546  0.00  0.00    +0.000 C 
BRANCH  20  21
ATOM     21  C   UNL     1       0.817   9.581  21.908  0.00  0.00    +0.000 A 
ATOM     22  C   UNL     1       0.009   9.484  23.033  0.00  0.00    +0.000 A 
ATOM     23  C   UNL     1      -0.926  10.485  23.316  0.00  0.00    +0.000 A 
ATOM     24  C   UNL     1      -1.084  11.645  22.515  0.00  0.00    +0.000 A 
ATOM     25  C   UNL     1      -0.223  11.767  21.395  0.00  0.00    +0.000 A 
ATOM     26  C   UNL     1       0.691  10.718  21.104  0.00  0.00    +0.000 A 
BRANCH  24  27
ATOM     27  C   UNL     1      -2.130  12.628  22.920  0.00  0.00    +0.000 A 
ATOM     28  C   UNL     1      -3.479  12.450  22.534  0.00  0.00    +0.000 A 
ATOM     29  C   UNL     1      -4.480  13.357  22.901  0.00  0.00    +0.000 A 
ATOM     30  C   UNL     1      -4.157  14.437  23.705  0.00  0.00    +0.000 A 
ATOM     31  F   UNL     1      -5.119  15.279  24.103  0.00  0.00    +0.000 F 
ATOM     32  C   UNL     1      -2.844  14.659  24.090  0.00  0.00    +0.000 A 
ATOM     33  C   UNL     1      -1.834  13.791  23.654  0.00  0.00    +0.000 A 
ENDBRANCH  24  27
BRANCH  25  34
ATOM     34  C   UNL     1      -0.156  12.930  20.425  0.00  0.00    +0.000 C 
ATOM     35  F   UNL     1      -1.322  13.317  19.849  0.00  0.00    +0.000 F 
ATOM     36  F   UNL     1       0.318  14.065  21.022  0.00  0.00    +0.000 F 
ATOM     37  F   UNL     1       0.708  12.681  19.395  0.00  0.00    +0.000 F 
ENDBRANCH  25  34
ENDBRANCH  20  21
ENDBRANCH   1  20
TORSDOF 12
ENDMDL
MODEL 3
REMARK VINA RESULT:      -7.6      6.925      9.607
REMARK  Name = 
REMARK  13 active torsions:
REMARK  status: ('A' for Active; 'I' for Inactive)
REMARK    1  A    between atoms: C_1  and  C_2
REMARK    2  A    between atoms: C_2  and  C_23
REMARK    3  A    between atoms: N_3  and  O_4
REMARK    4  A    between atoms: O_4  and  C_5
REMARK    5  A    between atoms: C_5  and  C_6
REMARK    6  A    between atoms: C_9  and  C_10
REMARK    7  A    between atoms: C_17  and  C_18
REMARK    8  A    between atoms: C_26  and  C_27
REMARK    9  A    between atoms: C_27  and  N_28
REMARK   10  A    between atoms: N_28  and  C_29
REMARK   11  A    between atoms: C_29  and  C_30
REMARK   12  A    between atoms: C_30  and  C_31
REMARK   13  A    between atoms: C_31  and  O_33
REMARK                            x       y       z     vdW  Elec       q    Type
REMARK                         _______ _______ _______ _____ _____    ______ ____
ROOT
ATOM      1  O   UNL     1       7.860   8.300  17.345  0.00  0.00    +0.000 OA
ENDROOT
BRANCH   1   4
ATOM      2  C   UNL     1       7.402   6.014  16.076  0.00  0.00    +0.000 C 
ATOM      3  C   UNL     1       6.387   6.660  17.002  0.00  0.00    +0.000 C 
ATOM      4  N   UNL     1       6.583   7.795  17.610  0.00  0.00    +0.000 NA
BRANCH   3   5
ATOM      5  C   UNL     1       5.075   5.943  17.204  0.00  0.00    +0.000 A 
ATOM      6  C   UNL     1       4.875   4.646  16.734  0.00  0.00    +0.000 A 
ATOM      7  C   UNL     1       3.656   3.996  16.948  0.00  0.00    +0.000 A 
ATOM      8  C   UNL     1       2.615   4.631  17.641  0.00  0.00    +0.000 A 
ATOM      9  C   UNL     1       2.813   5.938  18.102  0.00  0.00    +0.000 A 
ATOM     10  C   UNL     1       4.034   6.588  17.886  0.00  0.00    +0.000 A 
BRANCH   8  11
ATOM     11  C   UNL     1       1.309   3.910  17.881  0.00  0.00    +0.000 C 
BRANCH  11  12
ATOM     12  N   UNL     1       1.510   2.761  18.769  0.00  0.00    +0.000 NA
ATOM     13  H   UNL     1       2.334   2.254  18.445  0.00  0.00    +0.000 HD
BRANCH  12  14
ATOM     14  C   UNL     1       1.695   3.205  20.156  0.00  0.00    +0.000 C 
BRANCH  14  15
ATOM     15  C   UNL     1       2.928   2.538  20.759  0.00  0.00    +0.000 C 
BRANCH  15  16
ATOM     16  C   UNL     1       3.861   2.057  19.683  0.00  0.00    +0.000 C 
ATOM     17  O   UNL     1       3.627   1.155  18.890  0.00  0.00    +0.000 OA
BRANCH  16  18
ATOM     18  O   UNL     1       5.039   2.727  19.682  0.00  0.00    +0.000 OA
ATOM     19  H   UNL     1       5.645   2.446  20.397  0.00  0.00    +0.000 HD
ENDBRANCH  16  18
ENDBRANCH  15  16
ENDBRANCH  14  15
ENDBRANCH  12  14
ENDBRANCH  11  12
ENDBRANCH   8  11
ENDBRANCH   3   5
ENDBRANCH   1   4
BRANCH   1  20
ATOM     20  C   UNL     1       8.580   8.433  18.571  0.00  0.00    +0.000 C 
BRANCH  20  21
ATOM     21  C   UNL     1       9.037   9.864  18.696  0.00  0.00    +0.000 A 
ATOM     22  C   UNL     1       9.640  10.522  17.633  0.00  0.00    +0.000 A 
ATOM     23  C   UNL     1      10.108  11.831  17.791  0.00  0.00    +0.000 A 
ATOM     24  C   UNL     1       9.975  12.559  19.000  0.00  0.00    +0.000 A 
ATOM     25  C   UNL     1       9.313  11.903  20.069  0.00  0.00    +0.000 A 
ATOM     26  C   UNL     1       8.883  10.559  19.899  0.00  0.00    +0.000 A 
BRANCH  24  27
ATOM     27  C   UNL     1      10.533  13.942  19.040  0.00  0.00    +0.000 A 
ATOM     28  C   UNL     1      11.787  14.199  19.643  0.00  0.00    +0.000 A 
ATOM     29  C   UNL     1      12.333  15.487  19.693  0.00  0.00    +0.000 A 
ATOM     30  C   UNL     1      11.657  16.537  19.096  0.00  0.00    +0.000 A 
ATOM     31  F   UNL     1      12.198  17.761  19.095  0.00  0.00    +0.000 F 
ATOM     32  C   UNL     1      10.416  16.332  18.511  0.00  0.00    +0.000 A 
ATOM     33  C   UNL     1       9.838  15.055  18.534  0.00  0.00    +0.000 A 
ENDBRANCH  24  27
BRANCH  25  34
ATOM     34  C   UNL     1       8.998  12.484  21.434  0.00  0.00    +0.000 C 
ATOM     35  F   UNL     1       8.392  11.662  22.325  0.00  0.00    +0.000 F 
ATOM     36  F   UNL     1      10.126  12.909  22.079  0.00  0.00    +0.000 F 
ATOM     37  F   UNL     1       8.202  13.592  21.340  0.00  0.00    +0.000 F 
ENDBRANCH  25  34
ENDBRANCH  20  21
ENDBRANCH   1  20
TORSDOF 12
ENDMDL
MODEL 4
REMARK VINA RESULT:      -7.6      2.273      2.777
REMARK  Name = 
REMARK  13 active torsions:
REMARK  status: ('A' for Active; 'I' for Inactive)
REMARK    1  A    between atoms: C_1  and  C_2
REMARK    2  A    between atoms: C_2  and  C_23
REMARK    3  A    between atoms: N_3  and  O_4
REMARK    4  A    between atoms: O_4  and  C_5
REMARK    5  A    between atoms: C_5  and  C_6
REMARK    6  A    between atoms: C_9  and  C_10
REMARK    7  A    between atoms: C_17  and  C_18
REMARK    8  A    between atoms: C_26  and  C_27
REMARK    9  A    between atoms: C_27  and  N_28
REMARK   10  A    between atoms: N_28  and  C_29
REMARK   11  A    between atoms: C_29  and  C_30
REMARK   12  A    between atoms: C_30  and  C_31
REMARK   13  A    between atoms: C_31  and  O_33
REMARK                            x       y       z     vdW  Elec       q    Type
REMARK                         _______ _______ _______ _____ _____    ______ ____
ROOT
ATOM      1  O   UNL     1       1.095   8.033  20.702  0.00  0.00    +0.000 OA
ENDROOT
BRANCH   1   4
ATOM      2  C   UNL     1       1.644   5.441  20.546  0.00  0.00    +0.000 C 
ATOM      3  C   UNL     1       2.318   6.480  19.668  0.00  0.00    +0.000 C 
ATOM      4  N   UNL     1       2.082   7.758  19.749  0.00  0.00    +0.000 NA
BRANCH   3   5
ATOM      5  C   UNL     1       3.328   5.989  18.660  0.00  0.00    +0.000 A 
ATOM      6  C   UNL     1       4.381   6.795  18.234  0.00  0.00    +0.000 A 
ATOM      7  C   UNL     1       5.313   6.312  17.311  0.00  0.00    +0.000 A 
ATOM      8  C   UNL     1       5.212   5.010  16.801  0.00  0.00    +0.000 A 
ATOM      9  C   UNL     1       4.147   4.204  17.222  0.00  0.00    +0.000 A 
ATOM     10  C   UNL     1       3.213   4.689  18.146  0.00  0.00    +0.000 A 
BRANCH   8  11
ATOM     11  C   UNL     1       6.238   4.494  15.819  0.00  0.00    +0.000 C 
BRANCH  11  12
ATOM     12  N   UNL     1       6.484   5.482  14.765  0.00  0.00    +0.000 NA
ATOM     13  H   UNL     1       7.282   6.052  15.049  0.00  0.00    +0.000 HD
BRANCH  12  14
ATOM     14  C   UNL     1       6.761   4.817  13.486  0.00  0.00    +0.000 C 
BRANCH  14  15
ATOM     15  C   UNL     1       6.221   3.391  13.510  0.00  0.00    +0.000 C 
BRANCH  15  16
ATOM     16  C   UNL     1       5.631   3.016  12.178  0.00  0.00    +0.000 C 
ATOM     17  O   UNL     1       4.607   3.481  11.698  0.00  0.00    +0.000 OA
BRANCH  16  18
ATOM     18  O   UNL     1       6.355   2.063  11.542  0.00  0.00    +0.000 OA
ATOM     19  H   UNL     1       6.473   2.239  10.587  0.00  0.00    +0.000 HD
ENDBRANCH  16  18
ENDBRANCH  15  16
ENDBRANCH  14  15
ENDBRANCH  12  14
ENDBRANCH  11  12
ENDBRANCH   8  11
ENDBRANCH   3   5
ENDBRANCH   1   4
BRANCH   1  20
ATOM     20  C   UNL     1       1.621   8.929  21.683  0.00  0.00    +0.000 C 
BRANCH  20  21
ATOM     21  C   UNL     1       0.563   9.955  21.998  0.00  0.00    +0.000 A 
ATOM     22  C   UNL     1      -0.329   9.771  23.046  0.00  0.00    +0.000 A 
ATOM     23  C   UNL     1      -1.338  10.711  23.282  0.00  0.00    +0.000 A 
ATOM     24  C   UNL     1      -1.494  11.890  22.510  0.00  0.00    +0.000 A 
ATOM     25  C   UNL     1      -0.550  12.101  21.473  0.00  0.00    +0.000 A 
ATOM     26  C   UNL     1       0.441  11.114  21.225  0.00  0.00    +0.000 A 
BRANCH  24  27
ATOM     27  C   UNL     1      -2.623  12.801  22.858  0.00  0.00    +0.000 A 
ATOM     28  C   UNL     1      -2.455  13.828  23.817  0.00  0.00    +0.000 A 
ATOM     29  C   UNL     1      -3.498  14.696  24.161  0.00  0.00    +0.000 A 
ATOM     30  C   UNL     1      -4.717  14.585  23.515  0.00  0.00    +0.000 A 
ATOM     31  F   UNL     1      -5.700  15.446  23.802  0.00  0.00    +0.000 F 
ATOM     32  C   UNL     1      -4.929  13.581  22.582  0.00  0.00    +0.000 A 
ATOM     33  C   UNL     1      -3.907  12.665  22.300  0.00  0.00    +0.000 A 
ENDBRANCH  24  27
BRANCH  25  34
ATOM     34  C   UNL     1      -0.468  13.304  20.552  0.00  0.00    +0.000 C 
ATOM     35  F   UNL     1      -0.341  14.519  21.140  0.00  0.00    +0.000 F 
ATOM     36  F   UNL     1       0.603  13.224  19.706  0.00  0.00    +0.000 F 
ATOM     37  F   UNL     1      -1.562  13.391  19.737  0.00  0.00    +0.000 F 
ENDBRANCH  25  34
ENDBRANCH  20  21
ENDBRANCH   1  20
TORSDOF 12
ENDMDL
MODEL 5
REMARK VINA RESULT:      -7.6      1.967      3.575
REMARK  Name = 
REMARK  13 active torsions:
REMARK  status: ('A' for Active; 'I' for Inactive)
REMARK    1  A    between atoms: C_1  and  C_2
REMARK    2  A    between atoms: C_2  and  C_23
REMARK    3  A    between atoms: N_3  and  O_4
REMARK    4  A    between atoms: O_4  and  C_5
REMARK    5  A    between atoms: C_5  and  C_6
REMARK    6  A    between atoms: C_9  and  C_10
REMARK    7  A    between atoms: C_17  and  C_18
REMARK    8  A    between atoms: C_26  and  C_27
REMARK    9  A    between atoms: C_27  and  N_28
REMARK   10  A    between atoms: N_28  and  C_29
REMARK   11  A    between atoms: C_29  and  C_30
REMARK   12  A    between atoms: C_30  and  C_31
REMARK   13  A    between atoms: C_31  and  O_33
REMARK                            x       y       z     vdW  Elec       q    Type
REMARK                         _______ _______ _______ _____ _____    ______ ____
ROOT
ATOM      1  O   UNL     1       1.126   8.006  21.332  0.00  0.00    +0.000 OA
ENDROOT
BRANCH   1   4
ATOM      2  C   UNL     1       1.568   5.433  20.852  0.00  0.00    +0.000 C 
ATOM      3  C   UNL     1       2.125   6.542  19.977  0.00  0.00    +0.000 C 
ATOM      4  N   UNL     1       1.943   7.810  20.213  0.00  0.00    +0.000 NA
BRANCH   3   5
ATOM      5  C   UNL     1       2.949   6.136  18.780  0.00  0.00    +0.000 A 
ATOM      6  C   UNL     1       3.622   7.080  18.006  0.00  0.00    +0.000 A 
ATOM      7  C   UNL     1       4.391   6.678  16.911  0.00  0.00    +0.000 A 
ATOM      8  C   UNL     1       4.508   5.322  16.573  0.00  0.00    +0.000 A 
ATOM      9  C   UNL     1       3.823   4.376  17.344  0.00  0.00    +0.000 A 
ATOM     10  C   UNL     1       3.051   4.779  18.440  0.00  0.00    +0.000 A 
BRANCH   8  11
ATOM     11  C   UNL     1       5.359   4.900  15.398  0.00  0.00    +0.000 C 
BRANCH  11  12
ATOM     12  N   UNL     1       6.587   4.245  15.859  0.00  0.00    +0.000 NA
ATOM     13  H   UNL     1       7.092   3.909  15.039  0.00  0.00    +0.000 HD
BRANCH  12  14
ATOM     14  C   UNL     1       7.419   5.183  16.622  0.00  0.00    +0.000 C 
BRANCH  14  15
ATOM     15  C   UNL     1       7.544   4.716  18.069  0.00  0.00    +0.000 C 
BRANCH  15  16
ATOM     16  C   UNL     1       7.844   5.870  18.984  0.00  0.00    +0.000 C 
ATOM     17  O   UNL     1       8.164   6.996  18.627  0.00  0.00    +0.000 OA
BRANCH  16  18
ATOM     18  O   UNL     1       7.743   5.533  20.292  0.00  0.00    +0.000 OA
ATOM     19  H   UNL     1       6.981   4.951  20.485  0.00  0.00    +0.000 HD
ENDBRANCH  16  18
ENDBRANCH  15  16
ENDBRANCH  14  15
ENDBRANCH  12  14
ENDBRANCH  11  12
ENDBRANCH   8  11
ENDBRANCH   3   5
ENDBRANCH   1   4
BRANCH   1  20
ATOM     20  C   UNL     1      -0.142   8.509  20.910  0.00  0.00    +0.000 C 
BRANCH  20  21
ATOM     21  C   UNL     1       0.035   9.950  20.504  0.00  0.00    +0.000 A 
ATOM     22  C   UNL     1       0.530  10.289  19.253  0.00  0.00    +0.000 A 
ATOM     23  C   UNL     1       0.740  11.632  18.921  0.00  0.00    +0.000 A 
ATOM     24  C   UNL     1       0.441  12.703  19.802  0.00  0.00    +0.000 A 
ATOM     25  C   UNL     1      -0.112  12.356  21.060  0.00  0.00    +0.000 A 
ATOM     26  C   UNL     1      -0.278  10.984  21.391  0.00  0.00    +0.000 A 
BRANCH  24  27
ATOM     27  C   UNL     1       0.728  14.088  19.329  0.00  0.00    +0.000 A 
ATOM     28  C   UNL     1      -0.323  14.948  18.929  0.00  0.00    +0.000 A 
ATOM     29  C   UNL     1      -0.082  16.252  18.482  0.00  0.00    +0.000 A 
ATOM     30  C   UNL     1       1.214  16.740  18.474  0.00  0.00    +0.000 A 
ATOM     31  F   UNL     1       1.445  18.003  18.098  0.00  0.00    +0.000 F 
ATOM     32  C   UNL     1       2.274  15.925  18.841  0.00  0.00    +0.000 A 
ATOM     33  C   UNL     1       2.034  14.595  19.212  0.00  0.00    +0.000 A 
ENDBRANCH  24  27
BRANCH  25  34
ATOM     34  C   UNL     1      -0.566  13.312  22.146  0.00  0.00    +0.000 C 
ATOM     35  F   UNL     1      -1.648  14.083  21.873  0.00  0.00    +0.000 F 
ATOM     36  F   UNL     1      -0.903  12.654  23.296  0.00  0.00    +0.000 F 
ATOM     37  F   UNL     1       0.430  14.176  22.508  0.00  0.00    +0.000 F 
ENDBRANCH  25  34
ENDBRANCH  20  21
ENDBRANCH   1  20
TORSDOF 12
ENDMDL
MODEL 6
REMARK VINA RESULT:      -7.6      4.928     12.153
REMARK  Name = 
REMARK  13 active torsions:
REMARK  status: ('A' for Active; 'I' for Inactive)
REMARK    1  A    between atoms: C_1  and  C_2
REMARK    2  A    between atoms: C_2  and  C_23
REMARK    3  A    between atoms: N_3  and  O_4
REMARK    4  A    between atoms: O_4  and  C_5
REMARK    5  A    between atoms: C_5  and  C_6
REMARK    6  A    between atoms: C_9  and  C_10
REMARK    7  A    between atoms: C_17  and  C_18
REMARK    8  A    between atoms: C_26  and  C_27
REMARK    9  A    between atoms: C_27  and  N_28
REMARK   10  A    between atoms: N_28  and  C_29
REMARK   11  A    between atoms: C_29  and  C_30
REMARK   12  A    between atoms: C_30  and  C_31
REMARK   13  A    between atoms: C_31  and  O_33
REMARK                            x       y       z     vdW  Elec       q    Type
REMARK                         _______ _______ _______ _____ _____    ______ ____
ROOT
ATOM      1  O   UNL     1       1.467   8.809  21.209  0.00  0.00    +0.000 OA
ENDROOT
BRANCH   1   4
ATOM      2  C   UNL     1       1.385  11.258  20.189  0.00  0.00    +0.000 C 
ATOM      3  C   UNL     1       0.301  10.709  21.100  0.00  0.00    +0.000 C 
ATOM      4  N   UNL     1       0.339   9.520  21.632  0.00  0.00    +0.000 NA
BRANCH   3   5
ATOM      5  C   UNL     1      -0.869  11.608  21.410  0.00  0.00    +0.000 A 
ATOM      6  C   UNL     1      -1.853  11.875  20.459  0.00  0.00    +0.000 A 
ATOM      7  C   UNL     1      -2.937  12.699  20.776  0.00  0.00    +0.000 A 
ATOM      8  C   UNL     1      -3.060  13.268  22.052  0.00  0.00    +0.000 A 
ATOM      9  C   UNL     1      -2.065  13.009  23.002  0.00  0.00    +0.000 A 
ATOM     10  C   UNL     1      -0.979  12.184  22.684  0.00  0.00    +0.000 A 
BRANCH   8  11
ATOM     11  C   UNL     1      -4.246  14.142  22.385  0.00  0.00    +0.000 C 
BRANCH  11  12
ATOM     12  N   UNL     1      -5.471  13.340  22.463  0.00  0.00    +0.000 NA
ATOM     13  H   UNL     1      -5.346  12.645  23.199  0.00  0.00    +0.000 HD
BRANCH  12  14
ATOM     14  C   UNL     1      -6.630  14.192  22.755  0.00  0.00    +0.000 C 
BRANCH  14  15
ATOM     15  C   UNL     1      -7.914  13.372  22.684  0.00  0.00    +0.000 C 
BRANCH  15  16
ATOM     16  C   UNL     1      -7.632  11.910  22.897  0.00  0.00    +0.000 C 
ATOM     17  O   UNL     1      -7.463  11.370  23.982  0.00  0.00    +0.000 OA
BRANCH  16  18
ATOM     18  O   UNL     1      -7.560  11.222  21.732  0.00  0.00    +0.000 OA
ATOM     19  H   UNL     1      -7.474  11.799  20.946  0.00  0.00    +0.000 HD
ENDBRANCH  16  18
ENDBRANCH  15  16
ENDBRANCH  14  15
ENDBRANCH  12  14
ENDBRANCH  11  12
ENDBRANCH   8  11
ENDBRANCH   3   5
ENDBRANCH   1   4
BRANCH   1  20
ATOM     20  C   UNL     1       1.082   7.481  20.852  0.00  0.00    +0.000 C 
BRANCH  20  21
ATOM     21  C   UNL     1       2.091   6.947  19.869  0.00  0.00    +0.000 A 
ATOM     22  C   UNL     1       2.568   7.733  18.828  0.00  0.00    +0.000 A 
ATOM     23  C   UNL     1       3.460   7.196  17.894  0.00  0.00    +0.000 A 
ATOM     24  C   UNL     1       3.945   5.865  17.963  0.00  0.00    +0.000 A 
ATOM     25  C   UNL     1       3.497   5.080  19.055  0.00  0.00    +0.000 A 
ATOM     26  C   UNL     1       2.559   5.633  19.969  0.00  0.00    +0.000 A 
BRANCH  24  27
ATOM     27  C   UNL     1       4.881   5.413  16.893  0.00  0.00    +0.000 A 
ATOM     28  C   UNL     1       4.457   4.500  15.899  0.00  0.00    +0.000 A 
ATOM     29  C   UNL     1       5.314   4.060  14.884  0.00  0.00    +0.000 A 
ATOM     30  C   UNL     1       6.601   4.566  14.814  0.00  0.00    +0.000 A 
ATOM     31  F   UNL     1       7.409   4.189  13.816  0.00  0.00    +0.000 F 
ATOM     32  C   UNL     1       7.063   5.448  15.779  0.00  0.00    +0.000 A 
ATOM     33  C   UNL     1       6.225   5.823  16.838  0.00  0.00    +0.000 A 
ENDBRANCH  24  27
BRANCH  25  34
ATOM     34  C   UNL     1       3.911   3.658  19.381  0.00  0.00    +0.000 C 
ATOM     35  F   UNL     1       5.242   3.412  19.471  0.00  0.00    +0.000 F 
ATOM     36  F   UNL     1       3.410   3.245  20.584  0.00  0.00    +0.000 F 
ATOM     37  F   UNL     1       3.424   2.767  18.466  0.00  0.00    +0.000 F 
ENDBRANCH  25  34
ENDBRANCH  20  21
ENDBRANCH   1  20
TORSDOF 12
ENDMDL
MODEL 7
REMARK VINA RESULT:      -7.5      3.295      4.437
REMARK  Name = 
REMARK  13 active torsions:
REMARK  status: ('A' for Active; 'I' for Inactive)
REMARK    1  A    between atoms: C_1  and  C_2
REMARK    2  A    between atoms: C_2  and  C_23
REMARK    3  A    between atoms: N_3  and  O_4
REMARK    4  A    between atoms: O_4  and  C_5
REMARK    5  A    between atoms: C_5  and  C_6
REMARK    6  A    between atoms: C_9  and  C_10
REMARK    7  A    between atoms: C_17  and  C_18
REMARK    8  A    between atoms: C_26  and  C_27
REMARK    9  A    between atoms: C_27  and  N_28
REMARK   10  A    between atoms: N_28  and  C_29
REMARK   11  A    between atoms: C_29  and  C_30
REMARK   12  A    between atoms: C_30  and  C_31
REMARK   13  A    between atoms: C_31  and  O_33
REMARK                            x       y       z     vdW  Elec       q    Type
REMARK                         _______ _______ _______ _____ _____    ______ ____
ROOT
ATOM      1  O   UNL     1       0.247  10.646  18.497  0.00  0.00    +0.000 OA
ENDROOT
BRANCH   1   4
ATOM      2  C   UNL     1       0.966   9.082  20.517  0.00  0.00    +0.000 C 
ATOM      3  C   UNL     1       1.484   8.891  19.103  0.00  0.00    +0.000 C 
ATOM      4  N   UNL     1       1.165   9.666  18.106  0.00  0.00    +0.000 NA
BRANCH   3   5
ATOM      5  C   UNL     1       2.435   7.745  18.859  0.00  0.00    +0.000 A 
ATOM      6  C   UNL     1       2.595   6.721  19.791  0.00  0.00    +0.000 A 
ATOM      7  C   UNL     1       3.470   5.662  19.535  0.00  0.00    +0.000 A 
ATOM      8  C   UNL     1       4.199   5.605  18.338  0.00  0.00    +0.000 A 
ATOM      9  C   UNL     1       4.046   6.640  17.408  0.00  0.00    +0.000 A 
ATOM     10  C   UNL     1       3.170   7.701  17.665  0.00  0.00    +0.000 A 
BRANCH   8  11
ATOM     11  C   UNL     1       5.127   4.444  18.066  0.00  0.00    +0.000 C 
BRANCH  11  12
ATOM     12  N   UNL     1       4.452   3.171  18.331  0.00  0.00    +0.000 NA
ATOM     13  H   UNL     1       4.174   3.160  19.313  0.00  0.00    +0.000 HD
BRANCH  12  14
ATOM     14  C   UNL     1       3.276   3.018  17.465  0.00  0.00    +0.000 C 
BRANCH  14  15
ATOM     15  C   UNL     1       2.312   2.000  18.067  0.00  0.00    +0.000 C 
BRANCH  15  16
ATOM     16  C   UNL     1       1.743   2.499  19.366  0.00  0.00    +0.000 C 
ATOM     17  O   UNL     1       0.618   2.955  19.521  0.00  0.00    +0.000 OA
BRANCH  16  18
ATOM     18  O   UNL     1       2.631   2.414  20.385  0.00  0.00    +0.000 OA
ATOM     19  H   UNL     1       2.829   1.494  20.651  0.00  0.00    +0.000 HD
ENDBRANCH  16  18
ENDBRANCH  15  16
ENDBRANCH  14  15
ENDBRANCH  12  14
ENDBRANCH  11  12
ENDBRANCH   8  11
ENDBRANCH   3   5
ENDBRANCH   1   4
BRANCH   1  20
ATOM     20  C   UNL     1      -1.034  10.344  17.942  0.00  0.00    +0.000 C 
BRANCH  20  21
ATOM     21  C   UNL     1      -2.066  11.172  18.664  0.00  0.00    +0.000 A 
ATOM     22  C   UNL     1      -1.754  11.853  19.832  0.00  0.00    +0.000 A 
ATOM     23  C   UNL     1      -2.744  12.567  20.515  0.00  0.00    +0.000 A 
ATOM     24  C   UNL     1      -4.083  12.664  20.057  0.00  0.00    +0.000 A 
ATOM     25  C   UNL     1      -4.387  12.010  18.837  0.00  0.00    +0.000 A 
ATOM     26  C   UNL     1      -3.375  11.257  18.182  0.00  0.00    +0.000 A 
BRANCH  24  27
ATOM     27  C   UNL     1      -5.045  13.444  20.890  0.00  0.00    +0.000 A 
ATOM     28  C   UNL     1      -5.088  14.856  20.812  0.00  0.00    +0.000 A 
ATOM     29  C   UNL     1      -5.981  15.612  21.581  0.00  0.00    +0.000 A 
ATOM     30  C   UNL     1      -6.883  14.965  22.408  0.00  0.00    +0.000 A 
ATOM     31  F   UNL     1      -7.773  15.679  23.106  0.00  0.00    +0.000 F 
ATOM     32  C   UNL     1      -6.861  13.584  22.528  0.00  0.00    +0.000 A 
ATOM     33  C   UNL     1      -5.912  12.838  21.816  0.00  0.00    +0.000 A 
ENDBRANCH  24  27
BRANCH  25  34
ATOM     34  C   UNL     1      -5.720  12.013  18.113  0.00  0.00    +0.000 C 
ATOM     35  F   UNL     1      -5.772  11.372  16.920  0.00  0.00    +0.000 F 
ATOM     36  F   UNL     1      -6.704  11.423  18.857  0.00  0.00    +0.000 F 
ATOM     37  F   UNL     1      -6.165  13.284  17.878  0.00  0.00    +0.000 F 
ENDBRANCH  25  34
ENDBRANCH  20  21
ENDBRANCH   1  20
TORSDOF 12
ENDMDL
MODEL 8
REMARK VINA RESULT:      -7.5      4.894      9.982
REMARK  Name = 
REMARK  13 active torsions:
REMARK  status: ('A' for Active; 'I' for Inactive)
REMARK    1  A    between atoms: C_1  and  C_2
REMARK    2  A    between atoms: C_2  and  C_23
REMARK    3  A    between atoms: N_3  and  O_4
REMARK    4  A    between atoms: O_4  and  C_5
REMARK    5  A    between atoms: C_5  and  C_6
REMARK    6  A    between atoms: C_9  and  C_10
REMARK    7  A    between atoms: C_17  and  C_18
REMARK    8  A    between atoms: C_26  and  C_27
REMARK    9  A    between atoms: C_27  and  N_28
REMARK   10  A    between atoms: N_28  and  C_29
REMARK   11  A    between atoms: C_29  and  C_30
REMARK   12  A    between atoms: C_30  and  C_31
REMARK   13  A    between atoms: C_31  and  O_33
REMARK                            x       y       z     vdW  Elec       q    Type
REMARK                         _______ _______ _______ _____ _____    ______ ____
ROOT
ATOM      1  O   UNL     1       1.931   2.143  18.680  0.00  0.00    +0.000 OA
ENDROOT
BRANCH   1   4
ATOM      2  C   UNL     1       1.680   3.380  21.015  0.00  0.00    +0.000 C 
ATOM      3  C   UNL     1       1.762   4.124  19.694  0.00  0.00    +0.000 C 
ATOM      4  N   UNL     1       1.856   3.533  18.537  0.00  0.00    +0.000 NA
BRANCH   3   5
ATOM      5  C   UNL     1       1.711   5.631  19.739  0.00  0.00    +0.000 A 
ATOM      6  C   UNL     1       2.221   6.407  18.700  0.00  0.00    +0.000 A 
ATOM      7  C   UNL     1       2.148   7.802  18.758  0.00  0.00    +0.000 A 
ATOM      8  C   UNL     1       1.559   8.446  19.855  0.00  0.00    +0.000 A 
ATOM      9  C   UNL     1       1.058   7.666  20.904  0.00  0.00    +0.000 A 
ATOM     10  C   UNL     1       1.132   6.268  20.846  0.00  0.00    +0.000 A 
BRANCH   8  11
ATOM     11  C   UNL     1       1.470   9.954  19.896  0.00  0.00    +0.000 C 
BRANCH  11  12
ATOM     12  N   UNL     1       0.288  10.381  20.650  0.00  0.00    +0.000 NA
ATOM     13  H   UNL     1       0.453  10.178  21.636  0.00  0.00    +0.000 HD
BRANCH  12  14
ATOM     14  C   UNL     1       0.041  11.815  20.458  0.00  0.00    +0.000 C 
BRANCH  14  15
ATOM     15  C   UNL     1      -0.219  12.487  21.802  0.00  0.00    +0.000 C 
BRANCH  15  16
ATOM     16  C   UNL     1      -1.128  11.647  22.657  0.00  0.00    +0.000 C 
ATOM     17  O   UNL     1      -0.773  10.728  23.383  0.00  0.00    +0.000 OA
BRANCH  16  18
ATOM     18  O   UNL     1      -2.429  12.002  22.531  0.00  0.00    +0.000 OA
ATOM     19  H   UNL     1      -3.026  11.241  22.380  0.00  0.00    +0.000 HD
ENDBRANCH  16  18
ENDBRANCH  15  16
ENDBRANCH  14  15
ENDBRANCH  12  14
ENDBRANCH  11  12
ENDBRANCH   8  11
ENDBRANCH   3   5
ENDBRANCH   1   4
BRANCH   1  20
ATOM     20  C   UNL     1       3.196   1.686  18.200  0.00  0.00    +0.000 C 
BRANCH  20  21
ATOM     21  C   UNL     1       4.127   2.868  18.125  0.00  0.00    +0.000 A 
ATOM     22  C   UNL     1       4.681   3.421  19.272  0.00  0.00    +0.000 A 
ATOM     23  C   UNL     1       5.497   4.555  19.182  0.00  0.00    +0.000 A 
ATOM     24  C   UNL     1       5.825   5.176  17.949  0.00  0.00    +0.000 A 
ATOM     25  C   UNL     1       5.300   4.578  16.776  0.00  0.00    +0.000 A 
ATOM     26  C   UNL     1       4.441   3.452  16.895  0.00  0.00    +0.000 A 
BRANCH  24  27
ATOM     27  C   UNL     1       6.692   6.389  17.995  0.00  0.00    +0.000 A 
ATOM     28  C   UNL     1       6.372   7.536  17.232  0.00  0.00    +0.000 A 
ATOM     29  C   UNL     1       7.168   8.687  17.256  0.00  0.00    +0.000 A 
ATOM     30  C   UNL     1       8.275   8.731  18.086  0.00  0.00    +0.000 A 
ATOM     31  F   UNL     1       9.010   9.847  18.154  0.00  0.00    +0.000 F 
ATOM     32  C   UNL     1       8.635   7.621  18.837  0.00  0.00    +0.000 A 
ATOM     33  C   UNL     1       7.879   6.445  18.747  0.00  0.00    +0.000 A 
ENDBRANCH  24  27
BRANCH  25  34
ATOM     34  C   UNL     1       5.550   5.015  15.345  0.00  0.00    +0.000 C 
ATOM     35  F   UNL     1       4.994   6.189  14.956  0.00  0.00    +0.000 F 
ATOM     36  F   UNL     1       6.884   5.171  15.087  0.00  0.00    +0.000 F 
ATOM     37  F   UNL     1       5.120   4.078  14.448  0.00  0.00    +0.000 F 
ENDBRANCH  25  34
ENDBRANCH  20  21
ENDBRANCH   1  20
TORSDOF 12
ENDMDL
MODEL 9
REMARK VINA RESULT:      -7.5      2.710      3.630
REMARK  Name = 
REMARK  13 active torsions:
REMARK  status: ('A' for Active; 'I' for Inactive)
REMARK    1  A    between atoms: C_1  and  C_2
REMARK    2  A    between atoms: C_2  and  C_23
REMARK    3  A    between atoms: N_3  and  O_4
REMARK    4  A    between atoms: O_4  and  C_5
REMARK    5  A    between atoms: C_5  and  C_6
REMARK    6  A    between atoms: C_9  and  C_10
REMARK    7  A    between atoms: C_17  and  C_18
REMARK    8  A    between atoms: C_26  and  C_27
REMARK    9  A    between atoms: C_27  and  N_28
REMARK   10  A    between atoms: N_28  and  C_29
REMARK   11  A    between atoms: C_29  and  C_30
REMARK   12  A    between atoms: C_30  and  C_31
REMARK   13  A    between atoms: C_31  and  O_33
REMARK                            x       y       z     vdW  Elec       q    Type
REMARK                         _______ _______ _______ _____ _____    ______ ____
ROOT
ATOM      1  O   UNL     1       0.506  10.618  18.417  0.00  0.00    +0.000 OA
ENDROOT
BRANCH   1   4
ATOM      2  C   UNL     1       1.419   8.921  20.243  0.00  0.00    +0.000 C 
ATOM      3  C   UNL     1       1.639   8.726  18.753  0.00  0.00    +0.000 C 
ATOM      4  N   UNL     1       1.224   9.562  17.846  0.00  0.00    +0.000 NA
BRANCH   3   5
ATOM      5  C   UNL     1       2.399   7.498  18.318  0.00  0.00    +0.000 A 
ATOM      6  C   UNL     1       3.733   7.570  17.920  0.00  0.00    +0.000 A 
ATOM      7  C   UNL     1       4.420   6.416  17.536  0.00  0.00    +0.000 A 
ATOM      8  C   UNL     1       3.788   5.164  17.548  0.00  0.00    +0.000 A 
ATOM      9  C   UNL     1       2.445   5.094  17.936  0.00  0.00    +0.000 A 
ATOM     10  C   UNL     1       1.756   6.252  18.320  0.00  0.00    +0.000 A 
BRANCH   8  11
ATOM     11  C   UNL     1       4.549   3.922  17.148  0.00  0.00    +0.000 C 
BRANCH  11  12
ATOM     12  N   UNL     1       5.389   3.454  18.254  0.00  0.00    +0.000 NA
ATOM     13  H   UNL     1       5.994   4.226  18.538  0.00  0.00    +0.000 HD
BRANCH  12  14
ATOM     14  C   UNL     1       4.562   3.012  19.383  0.00  0.00    +0.000 C 
BRANCH  14  15
ATOM     15  C   UNL     1       3.712   1.814  18.971  0.00  0.00    +0.000 C 
BRANCH  15  16
ATOM     16  C   UNL     1       2.288   1.984  19.421  0.00  0.00    +0.000 C 
ATOM     17  O   UNL     1       1.932   2.382  20.522  0.00  0.00    +0.000 OA
BRANCH  16  18
ATOM     18  O   UNL     1       1.398   1.623  18.465  0.00  0.00    +0.000 OA
ATOM     19  H   UNL     1       0.468   1.664  18.766  0.00  0.00    +0.000 HD
ENDBRANCH  16  18
ENDBRANCH  15  16
ENDBRANCH  14  15
ENDBRANCH  12  14
ENDBRANCH  11  12
ENDBRANCH   8  11
ENDBRANCH   3   5
ENDBRANCH   1   4
BRANCH   1  20
ATOM     20  C   UNL     1      -0.874  10.496  18.069  0.00  0.00    +0.000 C 
BRANCH  20  21
ATOM     21  C   UNL     1      -1.686  11.238  19.099  0.00  0.00    +0.000 A 
ATOM     22  C   UNL     1      -2.847  11.915  18.748  0.00  0.00    +0.000 A 
ATOM     23  C   UNL     1      -3.552  12.645  19.711  0.00  0.00    +0.000 A 
ATOM     24  C   UNL     1      -3.158  12.714  21.072  0.00  0.00    +0.000 A 
ATOM     25  C   UNL     1      -2.002  11.980  21.438  0.00  0.00    +0.000 A 
ATOM     26  C   UNL     1      -1.278  11.279  20.435  0.00  0.00    +0.000 A 
BRANCH  24  27
ATOM     27  C   UNL     1      -3.991  13.541  21.992  0.00  0.00    +0.000 A 
ATOM     28  C   UNL     1      -3.694  14.908  22.205  0.00  0.00    +0.000 A 
ATOM     29  C   UNL     1      -4.460  15.707  23.063  0.00  0.00    +0.000 A 
ATOM     30  C   UNL     1      -5.570  15.164  23.687  0.00  0.00    +0.000 A 
ATOM     31  F   UNL     1      -6.336  15.936  24.467  0.00  0.00    +0.000 F 
ATOM     32  C   UNL     1      -5.885  13.824  23.520  0.00  0.00    +0.000 A 
ATOM     33  C   UNL     1      -5.069  13.010  22.723  0.00  0.00    +0.000 A 
ENDBRANCH  24  27
BRANCH  25  34
ATOM     34  C   UNL     1      -1.414  11.847  22.829  0.00  0.00    +0.000 C 
ATOM     35  F   UNL     1      -0.313  11.066  22.959  0.00  0.00    +0.000 F 
ATOM     36  F   UNL     1      -1.031  13.058  23.337  0.00  0.00    +0.000 F 
ATOM     37  F   UNL     1      -2.330  11.359  23.720  0.00  0.00    +0.000 F 
ENDBRANCH  25  34
ENDBRANCH  20  21
ENDBRANCH   1  20
TORSDOF 12
ENDMDL
