MODEL 1
REMARK VINA RESULT:      -6.5      0.000      0.000
REMARK  Name = 
REMARK  6 active torsions:
REMARK  status: ('A' for Active; 'I' for Inactive)
REMARK    1  A    between atoms: C_1  and  O_2
REMARK    2  A    between atoms: O_2  and  C_3
REMARK    3  A    between atoms: C_6  and  S_7
REMARK    4  A    between atoms: S_7  and  N_10
REMARK    5  A    between atoms: C_15  and  O_16
REMARK    6  A    between atoms: O_16  and  C_17
REMARK                            x       y       z     vdW  Elec       q    Type
REMARK                         _______ _______ _______ _____ _____    ______ ____
ROOT
ATOM      1  S   UNL     1       3.092   4.773  18.896  0.00  0.00    +0.000 S 
ATOM      2  O   UNL     1       3.118   4.122  20.189  0.00  0.00    +0.000 OA
ATOM      3  O   UNL     1       2.339   4.202  17.796  0.00  0.00    +0.000 OA
ENDROOT
BRANCH   1   4
ATOM      4  N   UNL     1       4.702   4.999  18.368  0.00  0.00    +0.000 NA
ATOM      5  C   UNL     1       5.707   5.198  19.454  0.00  0.00    +0.000 C 
ATOM      6  C   UNL     1       7.117   5.564  18.982  0.00  0.00    +0.000 C 
ATOM      7  O   UNL     1       7.721   4.457  18.310  0.00  0.00    +0.000 OA
ATOM      8  C   UNL     1       7.617   4.527  16.886  0.00  0.00    +0.000 C 
ATOM      9  C   UNL     1       6.210   4.846  16.350  0.00  0.00    +0.000 C 
ATOM     10  C   UNL     1       5.130   4.163  17.211  0.00  0.00    +0.000 C 
BRANCH   9  11
ATOM     11  O   UNL     1       6.083   6.277  16.255  0.00  0.00    +0.000 OA
ATOM     12  C   UNL     1       5.051   6.728  15.390  0.00  0.00    +0.000 C 
ENDBRANCH   9  11
ENDBRANCH   1   4
BRANCH   1  16
ATOM     13  C   UNL     1       1.457   9.011  19.480  0.00  0.00    +0.000 A 
ATOM     14  C   UNL     1       1.984   8.619  18.246  0.00  0.00    +0.000 A 
ATOM     15  C   UNL     1       2.481   7.328  18.065  0.00  0.00    +0.000 A 
ATOM     16  C   UNL     1       2.489   6.433  19.140  0.00  0.00    +0.000 A 
ATOM     17  C   UNL     1       1.959   6.813  20.377  0.00  0.00    +0.000 A 
ATOM     18  C   UNL     1       1.449   8.107  20.546  0.00  0.00    +0.000 A 
BRANCH  13  20
ATOM     19  C   UNL     1      -0.377  10.477  19.778  0.00  0.00    +0.000 C 
ATOM     20  O   UNL     1       1.013  10.303  19.530  0.00  0.00    +0.000 OA
ENDBRANCH  13  20
ENDBRANCH   1  16
TORSDOF 4
ENDMDL
MODEL 2
REMARK VINA RESULT:      -6.4      0.141      1.091
REMARK  Name = 
REMARK  6 active torsions:
REMARK  status: ('A' for Active; 'I' for Inactive)
REMARK    1  A    between atoms: C_1  and  O_2
REMARK    2  A    between atoms: O_2  and  C_3
REMARK    3  A    between atoms: C_6  and  S_7
REMARK    4  A    between atoms: S_7  and  N_10
REMARK    5  A    between atoms: C_15  and  O_16
REMARK    6  A    between atoms: O_16  and  C_17
REMARK                            x       y       z     vdW  Elec       q    Type
REMARK                         _______ _______ _______ _____ _____    ______ ____
ROOT
ATOM      1  S   UNL     1       3.043   4.697  18.766  0.00  0.00    +0.000 S 
ATOM      2  O   UNL     1       3.028   3.997  20.033  0.00  0.00    +0.000 OA
ATOM      3  O   UNL     1       2.334   4.163  17.619  0.00  0.00    +0.000 OA
ENDROOT
BRANCH   1   4
ATOM      4  N   UNL     1       4.669   4.955  18.306  0.00  0.00    +0.000 NA
ATOM      5  C   UNL     1       5.624   5.169  19.433  0.00  0.00    +0.000 C 
ATOM      6  C   UNL     1       7.045   5.562  19.020  0.00  0.00    +0.000 C 
ATOM      7  O   UNL     1       7.697   4.470  18.370  0.00  0.00    +0.000 OA
ATOM      8  C   UNL     1       7.650   4.543  16.943  0.00  0.00    +0.000 C 
ATOM      9  C   UNL     1       6.261   4.838  16.350  0.00  0.00    +0.000 C 
ATOM     10  C   UNL     1       5.159   4.132  17.165  0.00  0.00    +0.000 C 
BRANCH   9  11
ATOM     11  O   UNL     1       6.111   6.267  16.256  0.00  0.00    +0.000 OA
ATOM     12  C   UNL     1       5.076   6.701  15.385  0.00  0.00    +0.000 C 
ENDBRANCH   9  11
ENDBRANCH   1   4
BRANCH   1  16
ATOM     13  C   UNL     1       1.519   8.946  19.543  0.00  0.00    +0.000 A 
ATOM     14  C   UNL     1       1.503   7.990  20.562  0.00  0.00    +0.000 A 
ATOM     15  C   UNL     1       1.969   6.696  20.329  0.00  0.00    +0.000 A 
ATOM     16  C   UNL     1       2.417   6.342  19.052  0.00  0.00    +0.000 A 
ATOM     17  C   UNL     1       2.443   7.292  18.026  0.00  0.00    +0.000 A 
ATOM     18  C   UNL     1       1.986   8.593  18.273  0.00  0.00    +0.000 A 
BRANCH  13  20
ATOM     19  C   UNL     1      -0.351  10.395  19.624  0.00  0.00    +0.000 C 
ATOM     20  O   UNL     1       1.028  10.172  19.896  0.00  0.00    +0.000 OA
ENDBRANCH  13  20
ENDBRANCH   1  16
TORSDOF 4
ENDMDL
MODEL 3
REMARK VINA RESULT:      -6.3      3.114      6.642
REMARK  Name = 
REMARK  6 active torsions:
REMARK  status: ('A' for Active; 'I' for Inactive)
REMARK    1  A    between atoms: C_1  and  O_2
REMARK    2  A    between atoms: O_2  and  C_3
REMARK    3  A    between atoms: C_6  and  S_7
REMARK    4  A    between atoms: S_7  and  N_10
REMARK    5  A    between atoms: C_15  and  O_16
REMARK    6  A    between atoms: O_16  and  C_17
REMARK                            x       y       z     vdW  Elec       q    Type
REMARK                         _______ _______ _______ _____ _____    ______ ____
ROOT
ATOM      1  S   UNL     1       5.637   5.131  18.165  0.00  0.00    +0.000 S 
ATOM      2  O   UNL     1       6.638   4.474  18.980  0.00  0.00    +0.000 OA
ATOM      3  O   UNL     1       5.472   6.571  18.216  0.00  0.00    +0.000 OA
ENDROOT
BRANCH   1   4
ATOM      4  N   UNL     1       4.119   4.416  18.485  0.00  0.00    +0.000 NA
ATOM      5  C   UNL     1       2.959   5.037  17.779  0.00  0.00    +0.000 C 
ATOM      6  C   UNL     1       1.583   4.507  18.189  0.00  0.00    +0.000 C 
ATOM      7  O   UNL     1       1.419   3.156  17.755  0.00  0.00    +0.000 OA
ATOM      8  C   UNL     1       1.693   2.191  18.773  0.00  0.00    +0.000 C 
ATOM      9  C   UNL     1       3.009   2.408  19.540  0.00  0.00    +0.000 C 
ATOM     10  C   UNL     1       4.111   2.929  18.596  0.00  0.00    +0.000 C 
BRANCH   9  11
ATOM     11  O   UNL     1       2.734   3.262  20.666  0.00  0.00    +0.000 OA
ATOM     12  C   UNL     1       1.681   2.817  21.509  0.00  0.00    +0.000 C 
ENDBRANCH   9  11
ENDBRANCH   1   4
BRANCH   1  16
ATOM     13  C   UNL     1       6.406   4.095  13.770  0.00  0.00    +0.000 A 
ATOM     14  C   UNL     1       5.231   3.680  14.401  0.00  0.00    +0.000 A 
ATOM     15  C   UNL     1       4.993   3.996  15.738  0.00  0.00    +0.000 A 
ATOM     16  C   UNL     1       5.959   4.699  16.465  0.00  0.00    +0.000 A 
ATOM     17  C   UNL     1       7.137   5.125  15.843  0.00  0.00    +0.000 A 
ATOM     18  C   UNL     1       7.360   4.815  14.495  0.00  0.00    +0.000 A 
BRANCH  13  20
ATOM     19  C   UNL     1       5.363   3.140  11.872  0.00  0.00    +0.000 C 
ATOM     20  O   UNL     1       6.523   3.714  12.462  0.00  0.00    +0.000 OA
ENDBRANCH  13  20
ENDBRANCH   1  16
TORSDOF 4
ENDMDL
MODEL 4
REMARK VINA RESULT:      -6.2      2.948      6.329
REMARK  Name = 
REMARK  6 active torsions:
REMARK  status: ('A' for Active; 'I' for Inactive)
REMARK    1  A    between atoms: C_1  and  O_2
REMARK    2  A    between atoms: O_2  and  C_3
REMARK    3  A    between atoms: C_6  and  S_7
REMARK    4  A    between atoms: S_7  and  N_10
REMARK    5  A    between atoms: C_15  and  O_16
REMARK    6  A    between atoms: O_16  and  C_17
REMARK                            x       y       z     vdW  Elec       q    Type
REMARK                         _______ _______ _______ _____ _____    ______ ____
ROOT
ATOM      1  S   UNL     1       5.196   5.782  18.340  0.00  0.00    +0.000 S 
ATOM      2  O   UNL     1       6.430   5.840  19.095  0.00  0.00    +0.000 OA
ATOM      3  O   UNL     1       4.388   6.972  18.154  0.00  0.00    +0.000 OA
ENDROOT
BRANCH   1   4
ATOM      4  N   UNL     1       4.199   4.570  19.017  0.00  0.00    +0.000 NA
ATOM      5  C   UNL     1       4.906   3.324  19.436  0.00  0.00    +0.000 C 
ATOM      6  C   UNL     1       3.998   2.178  19.889  0.00  0.00    +0.000 C 
ATOM      7  O   UNL     1       3.359   2.505  21.123  0.00  0.00    +0.000 OA
ATOM      8  C   UNL     1       2.032   3.012  20.962  0.00  0.00    +0.000 C 
ATOM      9  C   UNL     1       1.880   4.122  19.908  0.00  0.00    +0.000 C 
ATOM     10  C   UNL     1       3.110   5.051  19.913  0.00  0.00    +0.000 C 
BRANCH   9  11
ATOM     11  O   UNL     1       1.609   3.497  18.639  0.00  0.00    +0.000 OA
ATOM     12  C   UNL     1       0.661   2.441  18.685  0.00  0.00    +0.000 C 
ENDBRANCH   9  11
ENDBRANCH   1   4
BRANCH   1  16
ATOM     13  C   UNL     1       6.251   4.097  14.214  0.00  0.00    +0.000 A 
ATOM     14  C   UNL     1       7.158   4.909  14.900  0.00  0.00    +0.000 A 
ATOM     15  C   UNL     1       6.840   5.421  16.159  0.00  0.00    +0.000 A 
ATOM     16  C   UNL     1       5.586   5.154  16.717  0.00  0.00    +0.000 A 
ATOM     17  C   UNL     1       4.674   4.337  16.042  0.00  0.00    +0.000 A 
ATOM     18  C   UNL     1       5.007   3.815  14.786  0.00  0.00    +0.000 A 
BRANCH  13  20
ATOM     19  C   UNL     1       5.672   3.162  12.117  0.00  0.00    +0.000 C 
ATOM     20  O   UNL     1       6.678   3.667  12.988  0.00  0.00    +0.000 OA
ENDBRANCH  13  20
ENDBRANCH   1  16
TORSDOF 4
ENDMDL
MODEL 5
REMARK VINA RESULT:      -6.2      3.108      6.665
REMARK  Name = 
REMARK  6 active torsions:
REMARK  status: ('A' for Active; 'I' for Inactive)
REMARK    1  A    between atoms: C_1  and  O_2
REMARK    2  A    between atoms: O_2  and  C_3
REMARK    3  A    between atoms: C_6  and  S_7
REMARK    4  A    between atoms: S_7  and  N_10
REMARK    5  A    between atoms: C_15  and  O_16
REMARK    6  A    between atoms: O_16  and  C_17
REMARK                            x       y       z     vdW  Elec       q    Type
REMARK                         _______ _______ _______ _____ _____    ______ ____
ROOT
ATOM      1  S   UNL     1       5.619   5.139  18.163  0.00  0.00    +0.000 S 
ATOM      2  O   UNL     1       6.640   4.454  18.927  0.00  0.00    +0.000 OA
ATOM      3  O   UNL     1       5.459   6.577  18.266  0.00  0.00    +0.000 OA
ENDROOT
BRANCH   1   4
ATOM      4  N   UNL     1       4.108   4.417  18.504  0.00  0.00    +0.000 NA
ATOM      5  C   UNL     1       2.937   5.028  17.806  0.00  0.00    +0.000 C 
ATOM      6  C   UNL     1       1.569   4.493  18.234  0.00  0.00    +0.000 C 
ATOM      7  O   UNL     1       1.408   3.138  17.809  0.00  0.00    +0.000 OA
ATOM      8  C   UNL     1       1.699   2.180  18.830  0.00  0.00    +0.000 C 
ATOM      9  C   UNL     1       3.022   2.409  19.581  0.00  0.00    +0.000 C 
ATOM     10  C   UNL     1       4.110   2.932  18.623  0.00  0.00    +0.000 C 
BRANCH   9  11
ATOM     11  O   UNL     1       2.753   3.268  20.705  0.00  0.00    +0.000 OA
ATOM     12  C   UNL     1       1.694   2.835  21.546  0.00  0.00    +0.000 C 
ENDBRANCH   9  11
ENDBRANCH   1   4
BRANCH   1  16
ATOM     13  C   UNL     1       6.373   4.097  13.767  0.00  0.00    +0.000 A 
ATOM     14  C   UNL     1       7.319   4.824  14.495  0.00  0.00    +0.000 A 
ATOM     15  C   UNL     1       7.093   5.141  15.835  0.00  0.00    +0.000 A 
ATOM     16  C   UNL     1       5.890   4.763  16.441  0.00  0.00    +0.000 A 
ATOM     17  C   UNL     1       4.940   4.030  15.724  0.00  0.00    +0.000 A 
ATOM     18  C   UNL     1       5.182   3.704  14.383  0.00  0.00    +0.000 A 
BRANCH  13  20
ATOM     19  C   UNL     1       5.982   2.829  11.807  0.00  0.00    +0.000 C 
ATOM     20  O   UNL     1       6.709   3.861  12.463  0.00  0.00    +0.000 OA
ENDBRANCH  13  20
ENDBRANCH   1  16
TORSDOF 4
ENDMDL
MODEL 6
REMARK VINA RESULT:      -6.1      3.107      6.446
REMARK  Name = 
REMARK  6 active torsions:
REMARK  status: ('A' for Active; 'I' for Inactive)
REMARK    1  A    between atoms: C_1  and  O_2
REMARK    2  A    between atoms: O_2  and  C_3
REMARK    3  A    between atoms: C_6  and  S_7
REMARK    4  A    between atoms: S_7  and  N_10
REMARK    5  A    between atoms: C_15  and  O_16
REMARK    6  A    between atoms: O_16  and  C_17
REMARK                            x       y       z     vdW  Elec       q    Type
REMARK                         _______ _______ _______ _____ _____    ______ ____
ROOT
ATOM      1  S   UNL     1       4.955   5.702  18.447  0.00  0.00    +0.000 S 
ATOM      2  O   UNL     1       6.007   5.422  19.401  0.00  0.00    +0.000 OA
ATOM      3  O   UNL     1       4.387   7.033  18.342  0.00  0.00    +0.000 OA
ENDROOT
BRANCH   1   4
ATOM      4  N   UNL     1       3.673   4.604  18.712  0.00  0.00    +0.000 NA
ATOM      5  C   UNL     1       2.528   4.717  17.760  0.00  0.00    +0.000 C 
ATOM      6  C   UNL     1       1.312   3.850  18.092  0.00  0.00    +0.000 C 
ATOM      7  O   UNL     1       1.621   2.466  17.915  0.00  0.00    +0.000 OA
ATOM      8  C   UNL     1       1.976   1.800  19.130  0.00  0.00    +0.000 C 
ATOM      9  C   UNL     1       3.017   2.531  19.995  0.00  0.00    +0.000 C 
ATOM     10  C   UNL     1       4.072   3.224  19.111  0.00  0.00    +0.000 C 
BRANCH   9  11
ATOM     11  O   UNL     1       2.313   3.414  20.889  0.00  0.00    +0.000 OA
ATOM     12  C   UNL     1       1.384   2.773  21.750  0.00  0.00    +0.000 C 
ENDBRANCH   9  11
ENDBRANCH   1   4
BRANCH   1  16
ATOM     13  C   UNL     1       6.578   4.649  14.295  0.00  0.00    +0.000 A 
ATOM     14  C   UNL     1       5.609   5.645  14.445  0.00  0.00    +0.000 A 
ATOM     15  C   UNL     1       5.115   5.969  15.709  0.00  0.00    +0.000 A 
ATOM     16  C   UNL     1       5.563   5.262  16.829  0.00  0.00    +0.000 A 
ATOM     17  C   UNL     1       6.537   4.268  16.692  0.00  0.00    +0.000 A 
ATOM     18  C   UNL     1       7.038   3.959  15.421  0.00  0.00    +0.000 A 
BRANCH  13  20
ATOM     19  C   UNL     1       6.285   3.382  12.317  0.00  0.00    +0.000 C 
ATOM     20  O   UNL     1       6.972   4.420  13.006  0.00  0.00    +0.000 OA
ENDBRANCH  13  20
ENDBRANCH   1  16
TORSDOF 4
ENDMDL
MODEL 7
REMARK VINA RESULT:      -6.1      1.090      1.166
REMARK  Name = 
REMARK  6 active torsions:
REMARK  status: ('A' for Active; 'I' for Inactive)
REMARK    1  A    between atoms: C_1  and  O_2
REMARK    2  A    between atoms: O_2  and  C_3
REMARK    3  A    between atoms: C_6  and  S_7
REMARK    4  A    between atoms: S_7  and  N_10
REMARK    5  A    between atoms: C_15  and  O_16
REMARK    6  A    between atoms: O_16  and  C_17
REMARK                            x       y       z     vdW  Elec       q    Type
REMARK                         _______ _______ _______ _____ _____    ______ ____
ROOT
ATOM      1  S   UNL     1       2.805   5.438  19.001  0.00  0.00    +0.000 S 
ATOM      2  O   UNL     1       2.703   4.885  20.335  0.00  0.00    +0.000 OA
ATOM      3  O   UNL     1       2.116   4.815  17.888  0.00  0.00    +0.000 OA
ENDROOT
BRANCH   1   4
ATOM      4  N   UNL     1       4.460   5.566  18.591  0.00  0.00    +0.000 NA
ATOM      5  C   UNL     1       5.410   4.991  19.588  0.00  0.00    +0.000 C 
ATOM      6  C   UNL     1       6.892   5.250  19.303  0.00  0.00    +0.000 C 
ATOM      7  O   UNL     1       7.311   4.527  18.143  0.00  0.00    +0.000 OA
ATOM      8  C   UNL     1       7.316   5.315  16.951  0.00  0.00    +0.000 C 
ATOM      9  C   UNL     1       6.038   6.135  16.704  0.00  0.00    +0.000 C 
ATOM     10  C   UNL     1       4.791   5.349  17.154  0.00  0.00    +0.000 C 
BRANCH   9  11
ATOM     11  O   UNL     1       6.199   7.415  17.343  0.00  0.00    +0.000 OA
ATOM     12  C   UNL     1       7.527   7.919  17.342  0.00  0.00    +0.000 C 
ENDBRANCH   9  11
ENDBRANCH   1   4
BRANCH   1  16
ATOM     13  C   UNL     1       1.308   9.764  19.153  0.00  0.00    +0.000 A 
ATOM     14  C   UNL     1       1.852   9.244  17.976  0.00  0.00    +0.000 A 
ATOM     15  C   UNL     1       2.307   7.926  17.926  0.00  0.00    +0.000 A 
ATOM     16  C   UNL     1       2.255   7.133  19.077  0.00  0.00    +0.000 A 
ATOM     17  C   UNL     1       1.707   7.641  20.259  0.00  0.00    +0.000 A 
ATOM     18  C   UNL     1       1.240   8.961  20.295  0.00  0.00    +0.000 A 
BRANCH  13  20
ATOM     19  C   UNL     1      -0.423  11.290  18.624  0.00  0.00    +0.000 C 
ATOM     20  O   UNL     1       0.909  11.069  19.074  0.00  0.00    +0.000 OA
ENDBRANCH  13  20
ENDBRANCH   1  16
TORSDOF 4
ENDMDL
MODEL 8
REMARK VINA RESULT:      -6.1      1.083      1.580
REMARK  Name = 
REMARK  6 active torsions:
REMARK  status: ('A' for Active; 'I' for Inactive)
REMARK    1  A    between atoms: C_1  and  O_2
REMARK    2  A    between atoms: O_2  and  C_3
REMARK    3  A    between atoms: C_6  and  S_7
REMARK    4  A    between atoms: S_7  and  N_10
REMARK    5  A    between atoms: C_15  and  O_16
REMARK    6  A    between atoms: O_16  and  C_17
REMARK                            x       y       z     vdW  Elec       q    Type
REMARK                         _______ _______ _______ _____ _____    ______ ____
ROOT
ATOM      1  S   UNL     1       2.744   5.365  18.852  0.00  0.00    +0.000 S 
ATOM      2  O   UNL     1       2.596   4.761  20.160  0.00  0.00    +0.000 OA
ATOM      3  O   UNL     1       2.097   4.785  17.692  0.00  0.00    +0.000 OA
ENDROOT
BRANCH   1   4
ATOM      4  N   UNL     1       4.412   5.510  18.506  0.00  0.00    +0.000 NA
ATOM      5  C   UNL     1       5.329   4.947  19.540  0.00  0.00    +0.000 C 
ATOM      6  C   UNL     1       6.818   5.221  19.312  0.00  0.00    +0.000 C 
ATOM      7  O   UNL     1       7.289   4.501  18.171  0.00  0.00    +0.000 OA
ATOM      8  C   UNL     1       7.332   5.287  16.978  0.00  0.00    +0.000 C 
ATOM      9  C   UNL     1       6.056   6.093  16.681  0.00  0.00    +0.000 C 
ATOM     10  C   UNL     1       4.800   5.294  17.083  0.00  0.00    +0.000 C 
BRANCH   9  11
ATOM     11  O   UNL     1       6.179   7.376  17.323  0.00  0.00    +0.000 OA
ATOM     12  C   UNL     1       7.497   7.904  17.352  0.00  0.00    +0.000 C 
ENDBRANCH   9  11
ENDBRANCH   1   4
BRANCH   1  16
ATOM     13  C   UNL     1       1.400   9.730  19.207  0.00  0.00    +0.000 A 
ATOM     14  C   UNL     1       1.313   8.870  20.305  0.00  0.00    +0.000 A 
ATOM     15  C   UNL     1       1.724   7.541  20.200  0.00  0.00    +0.000 A 
ATOM     16  C   UNL     1       2.188   7.055  18.974  0.00  0.00    +0.000 A 
ATOM     17  C   UNL     1       2.285   7.908  17.869  0.00  0.00    +0.000 A 
ATOM     18  C   UNL     1       1.883   9.244  17.988  0.00  0.00    +0.000 A 
BRANCH  13  20
ATOM     19  C   UNL     1       0.638  11.320  20.786  0.00  0.00    +0.000 C 
ATOM     20  O   UNL     1       0.957  11.002  19.436  0.00  0.00    +0.000 OA
ENDBRANCH  13  20
ENDBRANCH   1  16
TORSDOF 4
ENDMDL
MODEL 9
REMARK VINA RESULT:      -6.1      2.817      6.437
REMARK  Name = 
REMARK  6 active torsions:
REMARK  status: ('A' for Active; 'I' for Inactive)
REMARK    1  A    between atoms: C_1  and  O_2
REMARK    2  A    between atoms: O_2  and  C_3
REMARK    3  A    between atoms: C_6  and  S_7
REMARK    4  A    between atoms: S_7  and  N_10
REMARK    5  A    between atoms: C_15  and  O_16
REMARK    6  A    between atoms: O_16  and  C_17
REMARK                            x       y       z     vdW  Elec       q    Type
REMARK                         _______ _______ _______ _____ _____    ______ ____
ROOT
ATOM      1  S   UNL     1       6.528   5.267  17.835  0.00  0.00    +0.000 S 
ATOM      2  O   UNL     1       7.577   4.497  18.471  0.00  0.00    +0.000 OA
ATOM      3  O   UNL     1       6.563   6.717  17.854  0.00  0.00    +0.000 OA
ENDROOT
BRANCH   1   4
ATOM      4  N   UNL     1       5.023   4.769  18.474  0.00  0.00    +0.000 NA
ATOM      5  C   UNL     1       5.076   3.587  19.384  0.00  0.00    +0.000 C 
ATOM      6  C   UNL     1       3.717   3.039  19.825  0.00  0.00    +0.000 C 
ATOM      7  O   UNL     1       3.062   3.967  20.692  0.00  0.00    +0.000 OA
ATOM      8  C   UNL     1       2.107   4.796  20.026  0.00  0.00    +0.000 C 
ATOM      9  C   UNL     1       2.607   5.454  18.728  0.00  0.00    +0.000 C 
ATOM     10  C   UNL     1       4.087   5.863  18.859  0.00  0.00    +0.000 C 
BRANCH   9  11
ATOM     11  O   UNL     1       2.329   4.556  17.637  0.00  0.00    +0.000 OA
ATOM     12  C   UNL     1       1.138   3.796  17.779  0.00  0.00    +0.000 C 
ENDBRANCH   9  11
ENDBRANCH   1   4
BRANCH   1  16
ATOM     13  C   UNL     1       6.274   4.055  13.426  0.00  0.00    +0.000 A 
ATOM     14  C   UNL     1       5.227   3.759  14.303  0.00  0.00    +0.000 A 
ATOM     15  C   UNL     1       5.301   4.130  15.646  0.00  0.00    +0.000 A 
ATOM     16  C   UNL     1       6.451   4.765  16.126  0.00  0.00    +0.000 A 
ATOM     17  C   UNL     1       7.502   5.072  15.256  0.00  0.00    +0.000 A 
ATOM     18  C   UNL     1       7.413   4.709  13.906  0.00  0.00    +0.000 A 
BRANCH  13  20
ATOM     19  C   UNL     1       4.762   3.224  11.805  0.00  0.00    +0.000 C 
ATOM     20  O   UNL     1       6.083   3.631  12.140  0.00  0.00    +0.000 OA
ENDBRANCH  13  20
ENDBRANCH   1  16
TORSDOF 4
ENDMDL
