MODEL 1
REMARK VINA RESULT:      -8.1      0.000      0.000
REMARK  Name = 
REMARK  2 active torsions:
REMARK  status: ('A' for Active; 'I' for Inactive)
REMARK    1  A    between atoms: O_1  and  N_2
REMARK    2  A    between atoms: C_9  and  C_10
REMARK                            x       y       z     vdW  Elec       q    Type
REMARK                         _______ _______ _______ _____ _____    ______ ____
ROOT
ATOM      1  N   UNL     1      -1.228  13.362  21.964  0.00  0.00    +0.000 NA
ATOM      2  C   UNL     1      -1.027  12.076  21.980  0.00  0.00    +0.000 C 
ATOM      3  C   UNL     1      -1.500  11.168  23.107  0.00  0.00    +0.000 C 
ATOM      4  C   UNL     1      -0.477  10.074  23.362  0.00  0.00    +0.000 C 
ATOM      5  C   UNL     1      -0.238   9.254  22.100  0.00  0.00    +0.000 C 
ATOM      6  C   UNL     1       0.001  10.125  20.896  0.00  0.00    +0.000 C 
ATOM      7  C   UNL     1      -0.319  11.429  20.829  0.00  0.00    +0.000 C 
ATOM      8  C   UNL     1       0.060  12.261  19.612  0.00  0.00    +0.000 C 
ATOM      9  N   UNL     1       0.648  11.492  18.473  0.00  0.00    +0.000 NA
ATOM     10  C   UNL     1       0.940  10.251  18.679  0.00  0.00    +0.000 C 
ATOM     11  N   UNL     1       1.650   9.579  17.728  0.00  0.00    +0.000 N 
ATOM     12  C   UNL     1       2.335   8.436  17.880  0.00  0.00    +0.000 A 
ATOM     13  N   UNL     1       2.220   7.530  18.831  0.00  0.00    +0.000 NA
ATOM     14  C   UNL     1       3.219   6.638  18.550  0.00  0.00    +0.000 A 
ATOM     15  C   UNL     1       3.605   5.462  19.201  0.00  0.00    +0.000 A 
ATOM     16  C   UNL     1       4.698   4.752  18.682  0.00  0.00    +0.000 A 
ATOM     17  C   UNL     1       5.386   5.208  17.551  0.00  0.00    +0.000 A 
ATOM     18  C   UNL     1       5.009   6.384  16.888  0.00  0.00    +0.000 A 
ATOM     19  C   UNL     1       3.916   7.051  17.426  0.00  0.00    +0.000 A 
ATOM     20  O   UNL     1       3.337   8.204  16.977  0.00  0.00    +0.000 OA
ATOM     21  N   UNL     1       0.647   9.566  19.823  0.00  0.00    +0.000 N 
ATOM     22  H   UNL     1       1.914  10.177  16.955  0.00  0.00    +0.000 HD
ATOM     23  H   UNL     1       0.946   8.594  19.890  0.00  0.00    +0.000 HD
ENDROOT
BRANCH   8  24
ATOM     24  C   UNL     1       1.069  13.355  19.965  0.00  0.00    +0.000 A 
ATOM     25  C   UNL     1       2.228  12.996  20.691  0.00  0.00    +0.000 A 
ATOM     26  C   UNL     1       3.195  13.940  21.029  0.00  0.00    +0.000 A 
ATOM     27  C   UNL     1       3.027  15.265  20.643  0.00  0.00    +0.000 A 
ATOM     28  C   UNL     1       1.894  15.640  19.921  0.00  0.00    +0.000 A 
ATOM     29  C   UNL     1       0.920  14.695  19.579  0.00  0.00    +0.000 A 
ATOM     30 CL   UNL     1      -0.438  15.264  18.672  0.00  0.00    +0.000 Cl
ENDBRANCH   8  24
BRANCH   1  31
ATOM     31  O   UNL     1      -1.874  13.828  23.110  0.00  0.00    +0.000 OA
ATOM     32  H   UNL     1      -2.608  13.191  23.198  0.00  0.00    +0.000 HD
ENDBRANCH   1  31
TORSDOF 2
ENDMDL
MODEL 2
REMARK VINA RESULT:      -7.4      3.733      8.645
REMARK  Name = 
REMARK  2 active torsions:
REMARK  status: ('A' for Active; 'I' for Inactive)
REMARK    1  A    between atoms: O_1  and  N_2
REMARK    2  A    between atoms: C_9  and  C_10
REMARK                            x       y       z     vdW  Elec       q    Type
REMARK                         _______ _______ _______ _____ _____    ______ ____
ROOT
ATOM      1  N   UNL     1       1.994  12.471  18.374  0.00  0.00    +0.000 NA
ATOM      2  C   UNL     1       1.155  13.391  18.754  0.00  0.00    +0.000 C 
ATOM      3  C   UNL     1       1.521  14.866  18.862  0.00  0.00    +0.000 C 
ATOM      4  C   UNL     1       0.822  15.493  20.056  0.00  0.00    +0.000 C 
ATOM      5  C   UNL     1      -0.690  15.340  19.938  0.00  0.00    +0.000 C 
ATOM      6  C   UNL     1      -1.091  13.931  19.593  0.00  0.00    +0.000 C 
ATOM      7  C   UNL     1      -0.256  13.009  19.082  0.00  0.00    +0.000 C 
ATOM      8  C   UNL     1      -0.719  11.576  18.866  0.00  0.00    +0.000 C 
ATOM      9  N   UNL     1      -2.174  11.333  19.106  0.00  0.00    +0.000 NA
ATOM     10  C   UNL     1      -2.859  12.293  19.632  0.00  0.00    +0.000 C 
ATOM     11  N   UNL     1      -4.137  12.039  20.038  0.00  0.00    +0.000 N 
ATOM     12  C   UNL     1      -4.877  12.762  20.892  0.00  0.00    +0.000 A 
ATOM     13  N   UNL     1      -4.713  14.015  21.265  0.00  0.00    +0.000 NA
ATOM     14  C   UNL     1      -5.682  14.201  22.213  0.00  0.00    +0.000 A 
ATOM     15  C   UNL     1      -6.010  15.325  22.978  0.00  0.00    +0.000 A 
ATOM     16  C   UNL     1      -7.062  15.208  23.898  0.00  0.00    +0.000 A 
ATOM     17  C   UNL     1      -7.759  14.003  24.054  0.00  0.00    +0.000 A 
ATOM     18  C   UNL     1      -7.441  12.870  23.293  0.00  0.00    +0.000 A 
ATOM     19  C   UNL     1      -6.402  13.030  22.385  0.00  0.00    +0.000 A 
ATOM     20  O   UNL     1      -5.898  12.100  21.520  0.00  0.00    +0.000 OA
ATOM     21  N   UNL     1      -2.375  13.546  19.879  0.00  0.00    +0.000 N 
ATOM     22  H   UNL     1      -4.391  11.068  19.913  0.00  0.00    +0.000 HD
ATOM     23  H   UNL     1      -2.997  14.221  20.321  0.00  0.00    +0.000 HD
ENDROOT
BRANCH   8  24
ATOM     24  C   UNL     1       0.038  10.594  19.762  0.00  0.00    +0.000 A 
ATOM     25  C   UNL     1      -0.065  10.743  21.164  0.00  0.00    +0.000 A 
ATOM     26  C   UNL     1       0.586   9.871  22.036  0.00  0.00    +0.000 A 
ATOM     27  C   UNL     1       1.349   8.829  21.525  0.00  0.00    +0.000 A 
ATOM     28  C   UNL     1       1.460   8.661  20.144  0.00  0.00    +0.000 A 
ATOM     29  C   UNL     1       0.809   9.533  19.264  0.00  0.00    +0.000 A 
ATOM     30 CL   UNL     1       1.002   9.227  17.573  0.00  0.00    +0.000 Cl
ENDBRANCH   8  24
BRANCH   1  31
ATOM     31  O   UNL     1       3.274  12.968  18.128  0.00  0.00    +0.000 OA
ATOM     32  H   UNL     1       3.115  13.931  18.110  0.00  0.00    +0.000 HD
ENDBRANCH   1  31
TORSDOF 2
ENDMDL
MODEL 3
REMARK VINA RESULT:      -7.2      2.500      4.288
REMARK  Name = 
REMARK  2 active torsions:
REMARK  status: ('A' for Active; 'I' for Inactive)
REMARK    1  A    between atoms: O_1  and  N_2
REMARK    2  A    between atoms: C_9  and  C_10
REMARK                            x       y       z     vdW  Elec       q    Type
REMARK                         _______ _______ _______ _____ _____    ______ ____
ROOT
ATOM      1  N   UNL     1      -0.909  14.078  19.225  0.00  0.00    +0.000 NA
ATOM      2  C   UNL     1       0.280  13.602  18.993  0.00  0.00    +0.000 C 
ATOM      3  C   UNL     1       1.464  14.468  18.583  0.00  0.00    +0.000 C 
ATOM      4  C   UNL     1       2.332  13.729  17.580  0.00  0.00    +0.000 C 
ATOM      5  C   UNL     1       2.829  12.412  18.162  0.00  0.00    +0.000 C 
ATOM      6  C   UNL     1       1.719  11.619  18.797  0.00  0.00    +0.000 C 
ATOM      7  C   UNL     1       0.529  12.134  19.154  0.00  0.00    +0.000 C 
ATOM      8  C   UNL     1      -0.578  11.236  19.689  0.00  0.00    +0.000 C 
ATOM      9  N   UNL     1      -0.184   9.814  19.930  0.00  0.00    +0.000 NA
ATOM     10  C   UNL     1       0.977   9.438  19.508  0.00  0.00    +0.000 C 
ATOM     11  N   UNL     1       1.286   8.109  19.539  0.00  0.00    +0.000 N 
ATOM     12  C   UNL     1       2.256   7.484  18.857  0.00  0.00    +0.000 A 
ATOM     13  N   UNL     1       3.326   8.002  18.287  0.00  0.00    +0.000 NA
ATOM     14  C   UNL     1       3.906   6.936  17.655  0.00  0.00    +0.000 A 
ATOM     15  C   UNL     1       5.066   6.852  16.880  0.00  0.00    +0.000 A 
ATOM     16  C   UNL     1       5.407   5.604  16.339  0.00  0.00    +0.000 A 
ATOM     17  C   UNL     1       4.607   4.476  16.562  0.00  0.00    +0.000 A 
ATOM     18  C   UNL     1       3.443   4.545  17.339  0.00  0.00    +0.000 A 
ATOM     19  C   UNL     1       3.147   5.796  17.865  0.00  0.00    +0.000 A 
ATOM     20  O   UNL     1       2.088   6.140  18.657  0.00  0.00    +0.000 OA
ATOM     21  N   UNL     1       1.911  10.271  18.962  0.00  0.00    +0.000 N 
ATOM     22  H   UNL     1       0.511   7.545  19.864  0.00  0.00    +0.000 HD
ATOM     23  H   UNL     1       2.787   9.863  18.639  0.00  0.00    +0.000 HD
ENDROOT
BRANCH   8  24
ATOM     24  C   UNL     1      -1.783  11.200  18.748  0.00  0.00    +0.000 A 
ATOM     25  C   UNL     1      -1.638  10.575  17.489  0.00  0.00    +0.000 A 
ATOM     26  C   UNL     1      -2.702  10.492  16.592  0.00  0.00    +0.000 A 
ATOM     27  C   UNL     1      -3.936  11.028  16.938  0.00  0.00    +0.000 A 
ATOM     28  C   UNL     1      -4.103  11.645  18.178  0.00  0.00    +0.000 A 
ATOM     29  C   UNL     1      -3.038  11.731  19.083  0.00  0.00    +0.000 A 
ATOM     30 CL   UNL     1      -3.356  12.503  20.596  0.00  0.00    +0.000 Cl
ENDBRANCH   8  24
BRANCH   1  31
ATOM     31  O   UNL     1      -0.998  15.453  19.008  0.00  0.00    +0.000 OA
ATOM     32  H   UNL     1      -0.309  15.595  18.332  0.00  0.00    +0.000 HD
ENDBRANCH   1  31
TORSDOF 2
ENDMDL
MODEL 4
REMARK VINA RESULT:      -7.2      1.481      1.949
REMARK  Name = 
REMARK  2 active torsions:
REMARK  status: ('A' for Active; 'I' for Inactive)
REMARK    1  A    between atoms: O_1  and  N_2
REMARK    2  A    between atoms: C_9  and  C_10
REMARK                            x       y       z     vdW  Elec       q    Type
REMARK                         _______ _______ _______ _____ _____    ______ ____
ROOT
ATOM      1  N   UNL     1      -1.475  15.631  21.263  0.00  0.00    +0.000 NA
ATOM      2  C   UNL     1      -1.459  14.351  21.500  0.00  0.00    +0.000 C 
ATOM      3  C   UNL     1      -2.065  13.722  22.748  0.00  0.00    +0.000 C 
ATOM      4  C   UNL     1      -1.211  12.556  23.215  0.00  0.00    +0.000 C 
ATOM      5  C   UNL     1      -1.080  11.508  22.116  0.00  0.00    +0.000 C 
ATOM      6  C   UNL     1      -0.710  12.120  20.792  0.00  0.00    +0.000 C 
ATOM      7  C   UNL     1      -0.841  13.426  20.498  0.00  0.00    +0.000 C 
ATOM      8  C   UNL     1      -0.338  13.977  19.171  0.00  0.00    +0.000 C 
ATOM      9  N   UNL     1       0.144  12.952  18.196  0.00  0.00    +0.000 NA
ATOM     10  C   UNL     1       0.255  11.736  18.616  0.00  0.00    +0.000 C 
ATOM     11  N   UNL     1       0.870  10.819  17.814  0.00  0.00    +0.000 N 
ATOM     12  C   UNL     1       1.384   9.635  18.178  0.00  0.00    +0.000 A 
ATOM     13  N   UNL     1       1.134   8.929  19.262  0.00  0.00    +0.000 NA
ATOM     14  C   UNL     1       1.998   7.872  19.167  0.00  0.00    +0.000 A 
ATOM     15  C   UNL     1       2.208   6.783  20.018  0.00  0.00    +0.000 A 
ATOM     16  C   UNL     1       3.193   5.850  19.660  0.00  0.00    +0.000 A 
ATOM     17  C   UNL     1       3.948   6.007  18.491  0.00  0.00    +0.000 A 
ATOM     18  C   UNL     1       3.747   7.093  17.629  0.00  0.00    +0.000 A 
ATOM     19  C   UNL     1       2.756   7.987  18.013  0.00  0.00    +0.000 A 
ATOM     20  O   UNL     1       2.350   9.116  17.359  0.00  0.00    +0.000 OA
ATOM     21  N   UNL     1      -0.142  11.303  19.849  0.00  0.00    +0.000 N 
ATOM     22  H   UNL     1       1.223  11.235  16.961  0.00  0.00    +0.000 HD
ATOM     23  H   UNL     1       0.016  10.324  20.087  0.00  0.00    +0.000 HD
ENDROOT
BRANCH   8  24
ATOM     24  C   UNL     1       0.814  14.965  19.368  0.00  0.00    +0.000 A 
ATOM     25  C   UNL     1       1.962  14.531  20.070  0.00  0.00    +0.000 A 
ATOM     26  C   UNL     1       3.053  15.375  20.268  0.00  0.00    +0.000 A 
ATOM     27  C   UNL     1       3.023  16.669  19.764  0.00  0.00    +0.000 A 
ATOM     28  C   UNL     1       1.902  17.116  19.063  0.00  0.00    +0.000 A 
ATOM     29  C   UNL     1       0.803  16.272  18.861  0.00  0.00    +0.000 A 
ATOM     30 CL   UNL     1      -0.528  16.921  17.968  0.00  0.00    +0.000 Cl
ENDBRANCH   8  24
BRANCH   1  31
ATOM     31  O   UNL     1      -2.057  16.369  22.293  0.00  0.00    +0.000 OA
ATOM     32  H   UNL     1      -1.275  16.647  22.807  0.00  0.00    +0.000 HD
ENDBRANCH   1  31
TORSDOF 2
ENDMDL
MODEL 5
REMARK VINA RESULT:      -7.0      2.700      4.480
REMARK  Name = 
REMARK  2 active torsions:
REMARK  status: ('A' for Active; 'I' for Inactive)
REMARK    1  A    between atoms: O_1  and  N_2
REMARK    2  A    between atoms: C_9  and  C_10
REMARK                            x       y       z     vdW  Elec       q    Type
REMARK                         _______ _______ _______ _____ _____    ______ ____
ROOT
ATOM      1  N   UNL     1      -0.974  14.901  19.677  0.00  0.00    +0.000 NA
ATOM      2  C   UNL     1       0.075  14.162  19.459  0.00  0.00    +0.000 C 
ATOM      3  C   UNL     1       1.287  14.639  18.669  0.00  0.00    +0.000 C 
ATOM      4  C   UNL     1       1.853  13.500  17.839  0.00  0.00    +0.000 C 
ATOM      5  C   UNL     1       2.243  12.326  18.728  0.00  0.00    +0.000 C 
ATOM      6  C   UNL     1       1.152  11.966  19.701  0.00  0.00    +0.000 C 
ATOM      7  C   UNL     1       0.129  12.776  20.025  0.00  0.00    +0.000 C 
ATOM      8  C   UNL     1      -0.991  12.289  20.935  0.00  0.00    +0.000 C 
ATOM      9  N   UNL     1      -0.776  10.941  21.544  0.00  0.00    +0.000 NA
ATOM     10  C   UNL     1       0.229  10.249  21.120  0.00  0.00    +0.000 C 
ATOM     11  N   UNL     1       0.339   8.947  21.513  0.00  0.00    +0.000 N 
ATOM     12  C   UNL     1       1.077   7.985  20.940  0.00  0.00    +0.000 A 
ATOM     13  N   UNL     1       2.098   8.111  20.117  0.00  0.00    +0.000 NA
ATOM     14  C   UNL     1       2.399   6.822  19.772  0.00  0.00    +0.000 A 
ATOM     15  C   UNL     1       3.385   6.308  18.925  0.00  0.00    +0.000 A 
ATOM     16  C   UNL     1       3.442   4.918  18.749  0.00  0.00    +0.000 A 
ATOM     17  C   UNL     1       2.534   4.069  19.396  0.00  0.00    +0.000 A 
ATOM     18  C   UNL     1       1.542   4.571  20.249  0.00  0.00    +0.000 A 
ATOM     19  C   UNL     1       1.527   5.951  20.404  0.00  0.00    +0.000 A 
ATOM     20  O   UNL     1       0.681   6.695  21.177  0.00  0.00    +0.000 OA
ATOM     21  N   UNL     1       1.168  10.706  20.240  0.00  0.00    +0.000 N 
ATOM     22  H   UNL     1      -0.443   8.654  22.083  0.00  0.00    +0.000 HD
ATOM     23  H   UNL     1       1.907  10.065  19.953  0.00  0.00    +0.000 HD
ENDROOT
BRANCH   8  24
ATOM     24  C   UNL     1      -2.331  12.225  20.200  0.00  0.00    +0.000 A 
ATOM     25  C   UNL     1      -2.374  11.611  18.927  0.00  0.00    +0.000 A 
ATOM     26  C   UNL     1      -3.566  11.504  18.213  0.00  0.00    +0.000 A 
ATOM     27  C   UNL     1      -4.742  12.004  18.758  0.00  0.00    +0.000 A 
ATOM     28  C   UNL     1      -4.723  12.610  20.015  0.00  0.00    +0.000 A 
ATOM     29  C   UNL     1      -3.529  12.720  20.736  0.00  0.00    +0.000 A 
ATOM     30 CL   UNL     1      -3.619  13.475  22.289  0.00  0.00    +0.000 Cl
ENDBRANCH   8  24
BRANCH   1  31
ATOM     31  O   UNL     1      -0.895  16.154  19.069  0.00  0.00    +0.000 OA
ATOM     32  H   UNL     1       0.068  16.312  19.059  0.00  0.00    +0.000 HD
ENDBRANCH   1  31
TORSDOF 2
ENDMDL
MODEL 6
REMARK VINA RESULT:      -6.9      7.862     10.413
REMARK  Name = 
REMARK  2 active torsions:
REMARK  status: ('A' for Active; 'I' for Inactive)
REMARK    1  A    between atoms: O_1  and  N_2
REMARK    2  A    between atoms: C_9  and  C_10
REMARK                            x       y       z     vdW  Elec       q    Type
REMARK                         _______ _______ _______ _____ _____    ______ ____
ROOT
ATOM      1  N   UNL     1      11.075  13.614  17.893  0.00  0.00    +0.000 NA
ATOM      2  C   UNL     1      10.639  12.725  18.738  0.00  0.00    +0.000 C 
ATOM      3  C   UNL     1      10.559  11.237  18.423  0.00  0.00    +0.000 C 
ATOM      4  C   UNL     1       9.321  10.632  19.061  0.00  0.00    +0.000 C 
ATOM      5  C   UNL     1       9.334  10.843  20.570  0.00  0.00    +0.000 C 
ATOM      6  C   UNL     1       9.648  12.268  20.940  0.00  0.00    +0.000 C 
ATOM      7  C   UNL     1      10.213  13.159  20.107  0.00  0.00    +0.000 C 
ATOM      8  C   UNL     1      10.394  14.611  20.528  0.00  0.00    +0.000 C 
ATOM      9  N   UNL     1      10.054  14.908  21.953  0.00  0.00    +0.000 NA
ATOM     10  C   UNL     1       9.483  13.973  22.637  0.00  0.00    +0.000 C 
ATOM     11  N   UNL     1       8.989  14.274  23.873  0.00  0.00    +0.000 N 
ATOM     12  C   UNL     1       8.087  13.576  24.579  0.00  0.00    +0.000 A 
ATOM     13  N   UNL     1       7.728  12.316  24.438  0.00  0.00    +0.000 NA
ATOM     14  C   UNL     1       6.716  12.163  25.346  0.00  0.00    +0.000 A 
ATOM     15  C   UNL     1       5.932  11.050  25.664  0.00  0.00    +0.000 A 
ATOM     16  C   UNL     1       4.941  11.202  26.644  0.00  0.00    +0.000 A 
ATOM     17  C   UNL     1       4.735  12.433  27.281  0.00  0.00    +0.000 A 
ATOM     18  C   UNL     1       5.514  13.556  26.973  0.00  0.00    +0.000 A 
ATOM     19  C   UNL     1       6.492  13.361  26.006  0.00  0.00    +0.000 A 
ATOM     20  O   UNL     1       7.389  14.274  25.528  0.00  0.00    +0.000 OA
ATOM     21  N   UNL     1       9.273  12.701  22.185  0.00  0.00    +0.000 N 
ATOM     22  H   UNL     1       9.095  15.255  24.097  0.00  0.00    +0.000 HD
ATOM     23  H   UNL     1       8.790  12.048  22.801  0.00  0.00    +0.000 HD
ENDROOT
BRANCH   8  24
ATOM     24  C   UNL     1       9.551  15.559  19.674  0.00  0.00    +0.000 A 
ATOM     25  C   UNL     1       8.173  15.285  19.521  0.00  0.00    +0.000 A 
ATOM     26  C   UNL     1       7.346  16.118  18.771  0.00  0.00    +0.000 A 
ATOM     27  C   UNL     1       7.878  17.247  18.160  0.00  0.00    +0.000 A 
ATOM     28  C   UNL     1       9.235  17.540  18.302  0.00  0.00    +0.000 A 
ATOM     29  C   UNL     1      10.070  16.706  19.055  0.00  0.00    +0.000 A 
ATOM     30 CL   UNL     1      11.732  17.167  19.177  0.00  0.00    +0.000 Cl
ENDBRANCH   8  24
BRANCH   1  31
ATOM     31  O   UNL     1      11.410  13.070  16.653  0.00  0.00    +0.000 OA
ATOM     32  H   UNL     1      12.382  13.153  16.653  0.00  0.00    +0.000 HD
ENDBRANCH   1  31
TORSDOF 2
ENDMDL
MODEL 7
REMARK VINA RESULT:      -6.8      3.586      8.504
REMARK  Name = 
REMARK  2 active torsions:
REMARK  status: ('A' for Active; 'I' for Inactive)
REMARK    1  A    between atoms: O_1  and  N_2
REMARK    2  A    between atoms: C_9  and  C_10
REMARK                            x       y       z     vdW  Elec       q    Type
REMARK                         _______ _______ _______ _____ _____    ______ ____
ROOT
ATOM      1  N   UNL     1       2.054  12.638  18.181  0.00  0.00    +0.000 NA
ATOM      2  C   UNL     1       1.229  13.512  18.681  0.00  0.00    +0.000 C 
ATOM      3  C   UNL     1       1.617  14.953  18.986  0.00  0.00    +0.000 C 
ATOM      4  C   UNL     1       0.925  15.424  20.253  0.00  0.00    +0.000 C 
ATOM      5  C   UNL     1      -0.588  15.312  20.117  0.00  0.00    +0.000 C 
ATOM      6  C   UNL     1      -1.010  13.968  19.586  0.00  0.00    +0.000 C 
ATOM      7  C   UNL     1      -0.188  13.110  18.956  0.00  0.00    +0.000 C 
ATOM      8  C   UNL     1      -0.672  11.726  18.550  0.00  0.00    +0.000 C 
ATOM      9  N   UNL     1      -2.132  11.475  18.756  0.00  0.00    +0.000 NA
ATOM     10  C   UNL     1      -2.803  12.366  19.406  0.00  0.00    +0.000 C 
ATOM     11  N   UNL     1      -4.085  12.079  19.776  0.00  0.00    +0.000 N 
ATOM     12  C   UNL     1      -4.816  12.692  20.719  0.00  0.00    +0.000 A 
ATOM     13  N   UNL     1      -4.633  13.881  21.257  0.00  0.00    +0.000 NA
ATOM     14  C   UNL     1      -5.601  13.953  22.221  0.00  0.00    +0.000 A 
ATOM     15  C   UNL     1      -5.913  14.969  23.130  0.00  0.00    +0.000 A 
ATOM     16  C   UNL     1      -6.968  14.746  24.027  0.00  0.00    +0.000 A 
ATOM     17  C   UNL     1      -7.683  13.541  24.020  0.00  0.00    +0.000 A 
ATOM     18  C   UNL     1      -7.381  12.516  23.114  0.00  0.00    +0.000 A 
ATOM     19  C   UNL     1      -6.338  12.780  22.235  0.00  0.00    +0.000 A 
ATOM     20  O   UNL     1      -5.847  11.968  21.253  0.00  0.00    +0.000 OA
ATOM     21  N   UNL     1      -2.301  13.567  19.818  0.00  0.00    +0.000 N 
ATOM     22  H   UNL     1      -4.353  11.137  19.521  0.00  0.00    +0.000 HD
ATOM     23  H   UNL     1      -2.913  14.187  20.347  0.00  0.00    +0.000 HD
ENDROOT
BRANCH   8  24
ATOM     24  C   UNL     1       0.069  10.621  19.306  0.00  0.00    +0.000 A 
ATOM     25  C   UNL     1       0.791   9.661  18.561  0.00  0.00    +0.000 A 
ATOM     26  C   UNL     1       1.503   8.641  19.189  0.00  0.00    +0.000 A 
ATOM     27  C   UNL     1       1.511   8.561  20.577  0.00  0.00    +0.000 A 
ATOM     28  C   UNL     1       0.809   9.501  21.331  0.00  0.00    +0.000 A 
ATOM     29  C   UNL     1       0.093  10.528  20.705  0.00  0.00    +0.000 A 
ATOM     30 CL   UNL     1      -0.730  11.648  21.734  0.00  0.00    +0.000 Cl
ENDBRANCH   8  24
BRANCH   1  31
ATOM     31  O   UNL     1       3.342  13.144  18.003  0.00  0.00    +0.000 OA
ATOM     32  H   UNL     1       3.292  13.505  17.098  0.00  0.00    +0.000 HD
ENDBRANCH   1  31
TORSDOF 2
ENDMDL
MODEL 8
REMARK VINA RESULT:      -6.8      1.158      1.538
REMARK  Name = 
REMARK  2 active torsions:
REMARK  status: ('A' for Active; 'I' for Inactive)
REMARK    1  A    between atoms: O_1  and  N_2
REMARK    2  A    between atoms: C_9  and  C_10
REMARK                            x       y       z     vdW  Elec       q    Type
REMARK                         _______ _______ _______ _____ _____    ______ ____
ROOT
ATOM      1  N   UNL     1      -2.099  13.643  21.501  0.00  0.00    +0.000 NA
ATOM      2  C   UNL     1      -1.744  12.404  21.691  0.00  0.00    +0.000 C 
ATOM      3  C   UNL     1      -2.053  11.631  22.966  0.00  0.00    +0.000 C 
ATOM      4  C   UNL     1      -0.897  10.709  23.312  0.00  0.00    +0.000 C 
ATOM      5  C   UNL     1      -0.619   9.739  22.171  0.00  0.00    +0.000 C 
ATOM      6  C   UNL     1      -0.540  10.438  20.840  0.00  0.00    +0.000 C 
ATOM      7  C   UNL     1      -1.017  11.673  20.605  0.00  0.00    +0.000 C 
ATOM      8  C   UNL     1      -0.797  12.347  19.258  0.00  0.00    +0.000 C 
ATOM      9  N   UNL     1      -0.174  11.485  18.208  0.00  0.00    +0.000 NA
ATOM     10  C   UNL     1       0.274  10.330  18.574  0.00  0.00    +0.000 C 
ATOM     11  N   UNL     1       1.016   9.605  17.687  0.00  0.00    +0.000 N 
ATOM     12  C   UNL     1       1.838   8.582  17.961  0.00  0.00    +0.000 A 
ATOM     13  N   UNL     1       1.877   7.823  19.039  0.00  0.00    +0.000 NA
ATOM     14  C   UNL     1       2.961   7.016  18.829  0.00  0.00    +0.000 A 
ATOM     15  C   UNL     1       3.515   6.004  19.618  0.00  0.00    +0.000 A 
ATOM     16  C   UNL     1       4.659   5.349  19.140  0.00  0.00    +0.000 A 
ATOM     17  C   UNL     1       5.236   5.702  17.913  0.00  0.00    +0.000 A 
ATOM     18  C   UNL     1       4.691   6.714  17.111  0.00  0.00    +0.000 A 
ATOM     19  C   UNL     1       3.552   7.329  17.615  0.00  0.00    +0.000 A 
ATOM     20  O   UNL     1       2.819   8.328  17.040  0.00  0.00    +0.000 OA
ATOM     21  N   UNL     1       0.117   9.798  19.822  0.00  0.00    +0.000 N 
ATOM     22  H   UNL     1       1.170  10.105  16.821  0.00  0.00    +0.000 HD
ATOM     23  H   UNL     1       0.533   8.887  20.010  0.00  0.00    +0.000 HD
ENDROOT
BRANCH   8  24
ATOM     24  C   UNL     1       0.090  13.588  19.383  0.00  0.00    +0.000 A 
ATOM     25  C   UNL     1      -0.336  14.787  18.767  0.00  0.00    +0.000 A 
ATOM     26  C   UNL     1       0.415  15.957  18.859  0.00  0.00    +0.000 A 
ATOM     27  C   UNL     1       1.607  15.955  19.573  0.00  0.00    +0.000 A 
ATOM     28  C   UNL     1       2.044  14.784  20.193  0.00  0.00    +0.000 A 
ATOM     29  C   UNL     1       1.293  13.606  20.104  0.00  0.00    +0.000 A 
ATOM     30 CL   UNL     1       1.917  12.216  20.920  0.00  0.00    +0.000 Cl
ENDBRANCH   8  24
BRANCH   1  31
ATOM     31  O   UNL     1      -2.742  14.201  22.605  0.00  0.00    +0.000 OA
ATOM     32  H   UNL     1      -3.681  14.036  22.395  0.00  0.00    +0.000 HD
ENDBRANCH   1  31
TORSDOF 2
ENDMDL
MODEL 9
REMARK VINA RESULT:      -6.8      6.274      9.556
REMARK  Name = 
REMARK  2 active torsions:
REMARK  status: ('A' for Active; 'I' for Inactive)
REMARK    1  A    between atoms: O_1  and  N_2
REMARK    2  A    between atoms: C_9  and  C_10
REMARK                            x       y       z     vdW  Elec       q    Type
REMARK                         _______ _______ _______ _____ _____    ______ ____
ROOT
ATOM      1  N   UNL     1      10.683  16.389  19.260  0.00  0.00    +0.000 NA
ATOM      2  C   UNL     1       9.509  16.933  19.403  0.00  0.00    +0.000 C 
ATOM      3  C   UNL     1       9.291  18.309  20.019  0.00  0.00    +0.000 C 
ATOM      4  C   UNL     1       8.019  18.317  20.847  0.00  0.00    +0.000 C 
ATOM      5  C   UNL     1       6.816  17.934  19.994  0.00  0.00    +0.000 C 
ATOM      6  C   UNL     1       7.073  16.697  19.177  0.00  0.00    +0.000 C 
ATOM      7  C   UNL     1       8.295  16.198  18.921  0.00  0.00    +0.000 C 
ATOM      8  C   UNL     1       8.457  14.880  18.177  0.00  0.00    +0.000 C 
ATOM      9  N   UNL     1       7.193  14.296  17.632  0.00  0.00    +0.000 NA
ATOM     10  C   UNL     1       6.081  14.853  17.982  0.00  0.00    +0.000 C 
ATOM     11  N   UNL     1       4.909  14.232  17.660  0.00  0.00    +0.000 N 
ATOM     12  C   UNL     1       3.702  14.442  18.204  0.00  0.00    +0.000 A 
ATOM     13  N   UNL     1       3.282  15.482  18.896  0.00  0.00    +0.000 NA
ATOM     14  C   UNL     1       2.019  15.125  19.284  0.00  0.00    +0.000 A 
ATOM     15  C   UNL     1       1.067  15.812  20.043  0.00  0.00    +0.000 A 
ATOM     16  C   UNL     1      -0.156  15.173  20.297  0.00  0.00    +0.000 A 
ATOM     17  C   UNL     1      -0.414  13.885  19.812  0.00  0.00    +0.000 A 
ATOM     18  C   UNL     1       0.530  13.186  19.048  0.00  0.00    +0.000 A 
ATOM     19  C   UNL     1       1.723  13.857  18.810  0.00  0.00    +0.000 A 
ATOM     20  O   UNL     1       2.800  13.418  18.094  0.00  0.00    +0.000 OA
ATOM     21  N   UNL     1       5.986  15.998  18.718  0.00  0.00    +0.000 N 
ATOM     22  H   UNL     1       5.063  13.342  17.202  0.00  0.00    +0.000 HD
ATOM     23  H   UNL     1       5.055  16.337  18.958  0.00  0.00    +0.000 HD
ENDROOT
BRANCH   8  24
ATOM     24  C   UNL     1       9.087  13.803  19.063  0.00  0.00    +0.000 A 
ATOM     25  C   UNL     1       8.588  13.632  20.375  0.00  0.00    +0.000 A 
ATOM     26  C   UNL     1       9.105  12.657  21.226  0.00  0.00    +0.000 A 
ATOM     27  C   UNL     1      10.129  11.829  20.782  0.00  0.00    +0.000 A 
ATOM     28  C   UNL     1      10.632  11.977  19.490  0.00  0.00    +0.000 A 
ATOM     29  C   UNL     1      10.116  12.954  18.630  0.00  0.00    +0.000 A 
ATOM     30 CL   UNL     1      10.802  13.045  17.046  0.00  0.00    +0.000 Cl
ENDBRANCH   8  24
BRANCH   1  31
ATOM     31  O   UNL     1      11.713  17.174  19.777  0.00  0.00    +0.000 OA
ATOM     32  H   UNL     1      12.502  16.649  19.542  0.00  0.00    +0.000 HD
ENDBRANCH   1  31
TORSDOF 2
ENDMDL
