MODEL 1
REMARK VINA RESULT:      -8.7      0.000      0.000
REMARK  Name = 
REMARK  4 active torsions:
REMARK  status: ('A' for Active; 'I' for Inactive)
REMARK    1  A    between atoms: C_1  and  N_2
REMARK    2  A    between atoms: C_5  and  N_6
REMARK    3  A    between atoms: C_7  and  C_9
REMARK    4  A    between atoms: C_16  and  C_17
REMARK                            x       y       z     vdW  Elec       q    Type
REMARK                         _______ _______ _______ _____ _____    ______ ____
ROOT
ATOM      1  C   UNL     1       2.612   5.759  19.010  0.00  0.00    +0.000 C 
ATOM      2  C   UNL     1       1.375   5.026  18.426  0.00  0.00    +0.000 C 
ATOM      3  C   UNL     1       1.723   3.568  18.074  0.00  0.00    +0.000 C 
ATOM      4  C   UNL     1       2.198   2.839  19.338  0.00  0.00    +0.000 C 
ATOM      5  C   UNL     1       3.429   3.545  19.914  0.00  0.00    +0.000 C 
ATOM      6  C   UNL     1       3.078   4.994  20.263  0.00  0.00    +0.000 C 
ATOM      7  C   UNL     1       4.553   3.544  18.871  0.00  0.00    +0.000 C 
ATOM      8  C   UNL     1       4.122   4.265  17.559  0.00  0.00    +0.000 C 
ATOM      9  C   UNL     1       2.851   3.545  17.023  0.00  0.00    +0.000 C 
ATOM     10  C   UNL     1       3.727   5.725  17.941  0.00  0.00    +0.000 C 
ENDROOT
BRANCH   8  11
ATOM     11  C   UNL     1       5.235   4.322  16.501  0.00  0.00    +0.000 A 
ATOM     12  C   UNL     1       6.534   4.768  16.799  0.00  0.00    +0.000 A 
ATOM     13  C   UNL     1       7.494   4.934  15.798  0.00  0.00    +0.000 A 
ATOM     14  C   UNL     1       7.183   4.645  14.474  0.00  0.00    +0.000 A 
ATOM     15  C   UNL     1       5.916   4.166  14.155  0.00  0.00    +0.000 A 
ATOM     16  C   UNL     1       4.957   4.000  15.158  0.00  0.00    +0.000 A 
ENDBRANCH   8  11
BRANCH   1  18
ATOM     17  N   UNL     1       1.618   7.377  20.606  0.00  0.00    +0.000 N 
ATOM     18  C   UNL     1       2.251   7.205  19.392  0.00  0.00    +0.000 C 
ATOM     19  O   UNL     1       2.520   8.159  18.660  0.00  0.00    +0.000 OA
ATOM     20  H   UNL     1       1.249   6.578  21.106  0.00  0.00    +0.000 HD
BRANCH  17  25
ATOM     21  C   UNL     1      -1.121  12.067  22.258  0.00  0.00    +0.000 C 
ATOM     22  N   UNL     1      -0.715  10.758  21.743  0.00  0.00    +0.000 NA
ATOM     23  C   UNL     1       0.149  10.908  20.563  0.00  0.00    +0.000 C 
ATOM     24  C   UNL     1       0.573   9.546  20.005  0.00  0.00    +0.000 C 
ATOM     25  C   UNL     1       1.252   8.705  21.090  0.00  0.00    +0.000 C 
ATOM     26  C   UNL     1       0.340   8.601  22.311  0.00  0.00    +0.000 C 
ATOM     27  C   UNL     1      -0.050   9.991  22.803  0.00  0.00    +0.000 C 
ENDBRANCH  17  25
ENDBRANCH   1  18
TORSDOF 3
ENDMDL
MODEL 2
REMARK VINA RESULT:      -8.5      2.947      8.518
REMARK  Name = 
REMARK  4 active torsions:
REMARK  status: ('A' for Active; 'I' for Inactive)
REMARK    1  A    between atoms: C_1  and  N_2
REMARK    2  A    between atoms: C_5  and  N_6
REMARK    3  A    between atoms: C_7  and  C_9
REMARK    4  A    between atoms: C_16  and  C_17
REMARK                            x       y       z     vdW  Elec       q    Type
REMARK                         _______ _______ _______ _____ _____    ______ ____
ROOT
ATOM      1  C   UNL     1       1.363   9.545  18.741  0.00  0.00    +0.000 C 
ATOM      2  C   UNL     1       2.153  10.853  18.465  0.00  0.00    +0.000 C 
ATOM      3  C   UNL     1       1.409  12.070  19.043  0.00  0.00    +0.000 C 
ATOM      4  C   UNL     1       1.235  11.889  20.557  0.00  0.00    +0.000 C 
ATOM      5  C   UNL     1       0.442  10.610  20.840  0.00  0.00    +0.000 C 
ATOM      6  C   UNL     1       1.186   9.401  20.264  0.00  0.00    +0.000 C 
ATOM      7  C   UNL     1      -0.937  10.707  20.175  0.00  0.00    +0.000 C 
ATOM      8  C   UNL     1      -0.820  10.901  18.633  0.00  0.00    +0.000 C 
ATOM      9  C   UNL     1       0.020  12.187  18.384  0.00  0.00    +0.000 C 
ATOM     10  C   UNL     1      -0.022   9.684  18.071  0.00  0.00    +0.000 C 
ENDROOT
BRANCH   8  11
ATOM     11  C   UNL     1      -2.182  10.962  17.922  0.00  0.00    +0.000 A 
ATOM     12  C   UNL     1      -2.370  10.482  16.616  0.00  0.00    +0.000 A 
ATOM     13  C   UNL     1      -3.580  10.664  15.941  0.00  0.00    +0.000 A 
ATOM     14  C   UNL     1      -4.637  11.318  16.562  0.00  0.00    +0.000 A 
ATOM     15  C   UNL     1      -4.491  11.771  17.869  0.00  0.00    +0.000 A 
ATOM     16  C   UNL     1      -3.280  11.589  18.543  0.00  0.00    +0.000 A 
ENDBRANCH   8  11
BRANCH   1  18
ATOM     17  N   UNL     1       2.125   7.197  18.983  0.00  0.00    +0.000 N 
ATOM     18  C   UNL     1       2.126   8.328  18.192  0.00  0.00    +0.000 C 
ATOM     19  O   UNL     1       2.701   8.355  17.102  0.00  0.00    +0.000 OA
ATOM     20  H   UNL     1       1.804   7.248  19.943  0.00  0.00    +0.000 HD
BRANCH  17  25
ATOM     21  C   UNL     1       3.783   1.824  18.204  0.00  0.00    +0.000 C 
ATOM     22  N   UNL     1       3.164   3.078  18.638  0.00  0.00    +0.000 NA
ATOM     23  C   UNL     1       4.163   3.972  19.240  0.00  0.00    +0.000 C 
ATOM     24  C   UNL     1       3.528   5.285  19.709  0.00  0.00    +0.000 C 
ATOM     25  C   UNL     1       2.790   5.970  18.556  0.00  0.00    +0.000 C 
ATOM     26  C   UNL     1       1.787   5.001  17.934  0.00  0.00    +0.000 C 
ATOM     27  C   UNL     1       2.486   3.716  17.502  0.00  0.00    +0.000 C 
ENDBRANCH  17  25
ENDBRANCH   1  18
TORSDOF 3
ENDMDL
MODEL 3
REMARK VINA RESULT:      -8.5      1.511      1.704
REMARK  Name = 
REMARK  4 active torsions:
REMARK  status: ('A' for Active; 'I' for Inactive)
REMARK    1  A    between atoms: C_1  and  N_2
REMARK    2  A    between atoms: C_5  and  N_6
REMARK    3  A    between atoms: C_7  and  C_9
REMARK    4  A    between atoms: C_16  and  C_17
REMARK                            x       y       z     vdW  Elec       q    Type
REMARK                         _______ _______ _______ _____ _____    ______ ____
ROOT
ATOM      1  C   UNL     1       2.367   5.530  19.382  0.00  0.00    +0.000 C 
ATOM      2  C   UNL     1       1.173   4.845  18.666  0.00  0.00    +0.000 C 
ATOM      3  C   UNL     1       1.549   3.419  18.225  0.00  0.00    +0.000 C 
ATOM      4  C   UNL     1       1.946   2.594  19.457  0.00  0.00    +0.000 C 
ATOM      5  C   UNL     1       3.136   3.252  20.162  0.00  0.00    +0.000 C 
ATOM      6  C   UNL     1       2.757   4.671  20.599  0.00  0.00    +0.000 C 
ATOM      7  C   UNL     1       4.323   3.332  19.195  0.00  0.00    +0.000 C 
ATOM      8  C   UNL     1       3.972   4.153  17.918  0.00  0.00    +0.000 C 
ATOM      9  C   UNL     1       2.741   3.477  17.249  0.00  0.00    +0.000 C 
ATOM     10  C   UNL     1       3.547   5.579  18.386  0.00  0.00    +0.000 C 
ENDROOT
BRANCH   8  11
ATOM     11  C   UNL     1       5.149   4.291  16.940  0.00  0.00    +0.000 A 
ATOM     12  C   UNL     1       6.449   4.607  17.368  0.00  0.00    +0.000 A 
ATOM     13  C   UNL     1       7.476   4.855  16.453  0.00  0.00    +0.000 A 
ATOM     14  C   UNL     1       7.232   4.778  15.087  0.00  0.00    +0.000 A 
ATOM     15  C   UNL     1       5.963   4.430  14.635  0.00  0.00    +0.000 A 
ATOM     16  C   UNL     1       4.937   4.183  15.551  0.00  0.00    +0.000 A 
ENDBRANCH   8  11
BRANCH   1  18
ATOM     17  N   UNL     1       2.001   7.934  18.892  0.00  0.00    +0.000 N 
ATOM     18  C   UNL     1       1.977   6.943  19.851  0.00  0.00    +0.000 C 
ATOM     19  O   UNL     1       1.650   7.176  21.017  0.00  0.00    +0.000 OA
ATOM     20  H   UNL     1       2.437   7.763  17.994  0.00  0.00    +0.000 HD
BRANCH  17  25
ATOM     21  C   UNL     1      -0.278  13.133  18.973  0.00  0.00    +0.000 C 
ATOM     22  N   UNL     1       0.153  11.768  18.664  0.00  0.00    +0.000 NA
ATOM     23  C   UNL     1       1.609  11.714  18.465  0.00  0.00    +0.000 C 
ATOM     24  C   UNL     1       2.074  10.294  18.130  0.00  0.00    +0.000 C 
ATOM     25  C   UNL     1       1.622   9.308  19.210  0.00  0.00    +0.000 C 
ATOM     26  C   UNL     1       0.112   9.418  19.413  0.00  0.00    +0.000 C 
ATOM     27  C   UNL     1      -0.278  10.857  19.731  0.00  0.00    +0.000 C 
ENDBRANCH  17  25
ENDBRANCH   1  18
TORSDOF 3
ENDMDL
MODEL 4
REMARK VINA RESULT:      -8.5      1.336      1.746
REMARK  Name = 
REMARK  4 active torsions:
REMARK  status: ('A' for Active; 'I' for Inactive)
REMARK    1  A    between atoms: C_1  and  N_2
REMARK    2  A    between atoms: C_5  and  N_6
REMARK    3  A    between atoms: C_7  and  C_9
REMARK    4  A    between atoms: C_16  and  C_17
REMARK                            x       y       z     vdW  Elec       q    Type
REMARK                         _______ _______ _______ _____ _____    ______ ____
ROOT
ATOM      1  C   UNL     1       3.639   6.100  17.971  0.00  0.00    +0.000 C 
ATOM      2  C   UNL     1       2.543   5.002  18.024  0.00  0.00    +0.000 C 
ATOM      3  C   UNL     1       3.176   3.599  17.976  0.00  0.00    +0.000 C 
ATOM      4  C   UNL     1       4.125   3.428  19.170  0.00  0.00    +0.000 C 
ATOM      5  C   UNL     1       5.221   4.497  19.118  0.00  0.00    +0.000 C 
ATOM      6  C   UNL     1       4.587   5.891  19.166  0.00  0.00    +0.000 C 
ATOM      7  C   UNL     1       6.012   4.357  17.812  0.00  0.00    +0.000 C 
ATOM      8  C   UNL     1       5.092   4.512  16.563  0.00  0.00    +0.000 C 
ATOM      9  C   UNL     1       3.974   3.436  16.667  0.00  0.00    +0.000 C 
ATOM     10  C   UNL     1       4.423   5.918  16.652  0.00  0.00    +0.000 C 
ENDROOT
BRANCH   8  11
ATOM     11  C   UNL     1       5.854   4.418  15.231  0.00  0.00    +0.000 A 
ATOM     12  C   UNL     1       7.040   5.131  14.991  0.00  0.00    +0.000 A 
ATOM     13  C   UNL     1       7.645   5.133  13.731  0.00  0.00    +0.000 A 
ATOM     14  C   UNL     1       7.087   4.408  12.685  0.00  0.00    +0.000 A 
ATOM     15  C   UNL     1       5.934   3.662  12.904  0.00  0.00    +0.000 A 
ATOM     16  C   UNL     1       5.329   3.662  14.164  0.00  0.00    +0.000 A 
ENDBRANCH   8  11
BRANCH   1  18
ATOM     17  N   UNL     1       2.164   7.728  19.123  0.00  0.00    +0.000 N 
ATOM     18  C   UNL     1       3.005   7.499  18.053  0.00  0.00    +0.000 C 
ATOM     19  O   UNL     1       3.241   8.372  17.216  0.00  0.00    +0.000 OA
ATOM     20  H   UNL     1       1.845   6.955  19.694  0.00  0.00    +0.000 HD
BRANCH  17  25
ATOM     21  C   UNL     1      -1.478  11.979  20.063  0.00  0.00    +0.000 C 
ATOM     22  N   UNL     1      -0.812  10.699  19.820  0.00  0.00    +0.000 NA
ATOM     23  C   UNL     1      -0.178  10.684  18.493  0.00  0.00    +0.000 C 
ATOM     24  C   UNL     1       0.514   9.346  18.220  0.00  0.00    +0.000 C 
ATOM     25  C   UNL     1       1.526   9.025  19.323  0.00  0.00    +0.000 C 
ATOM     26  C   UNL     1       0.841   9.084  20.687  0.00  0.00    +0.000 C 
ATOM     27  C   UNL     1       0.165  10.437  20.885  0.00  0.00    +0.000 C 
ENDBRANCH  17  25
ENDBRANCH   1  18
TORSDOF 3
ENDMDL
MODEL 5
REMARK VINA RESULT:      -8.5      1.135      1.298
REMARK  Name = 
REMARK  4 active torsions:
REMARK  status: ('A' for Active; 'I' for Inactive)
REMARK    1  A    between atoms: C_1  and  N_2
REMARK    2  A    between atoms: C_5  and  N_6
REMARK    3  A    between atoms: C_7  and  C_9
REMARK    4  A    between atoms: C_16  and  C_17
REMARK                            x       y       z     vdW  Elec       q    Type
REMARK                         _______ _______ _______ _____ _____    ______ ____
ROOT
ATOM      1  C   UNL     1       2.689   6.536  18.323  0.00  0.00    +0.000 C 
ATOM      2  C   UNL     1       1.514   5.572  18.006  0.00  0.00    +0.000 C 
ATOM      3  C   UNL     1       1.985   4.107  18.055  0.00  0.00    +0.000 C 
ATOM      4  C   UNL     1       2.535   3.797  19.454  0.00  0.00    +0.000 C 
ATOM      5  C   UNL     1       3.706   4.732  19.770  0.00  0.00    +0.000 C 
ATOM      6  C   UNL     1       3.233   6.188  19.720  0.00  0.00    +0.000 C 
ATOM      7  C   UNL     1       4.815   4.534  18.729  0.00  0.00    +0.000 C 
ATOM      8  C   UNL     1       4.307   4.827  17.285  0.00  0.00    +0.000 C 
ATOM      9  C   UNL     1       3.098   3.886  17.013  0.00  0.00    +0.000 C 
ATOM     10  C   UNL     1       3.790   6.299  17.265  0.00  0.00    +0.000 C 
ENDROOT
BRANCH   8  11
ATOM     11  C   UNL     1       5.399   4.679  16.214  0.00  0.00    +0.000 A 
ATOM     12  C   UNL     1       6.687   5.216  16.375  0.00  0.00    +0.000 A 
ATOM     13  C   UNL     1       7.623   5.182  15.338  0.00  0.00    +0.000 A 
ATOM     14  C   UNL     1       7.299   4.599  14.119  0.00  0.00    +0.000 A 
ATOM     15  C   UNL     1       6.043   4.026  13.945  0.00  0.00    +0.000 A 
ATOM     16  C   UNL     1       5.108   4.060  14.982  0.00  0.00    +0.000 A 
ENDBRANCH   8  11
BRANCH   1  18
ATOM     17  N   UNL     1       1.513   8.426  19.418  0.00  0.00    +0.000 N 
ATOM     18  C   UNL     1       2.207   7.997  18.305  0.00  0.00    +0.000 C 
ATOM     19  O   UNL     1       2.435   8.748  17.354  0.00  0.00    +0.000 OA
ATOM     20  H   UNL     1       1.184   7.756  20.102  0.00  0.00    +0.000 HD
BRANCH  17  25
ATOM     21  C   UNL     1      -1.455  13.141  20.504  0.00  0.00    +0.000 C 
ATOM     22  N   UNL     1      -0.958  11.774  20.341  0.00  0.00    +0.000 NA
ATOM     23  C   UNL     1      -0.766  11.456  18.918  0.00  0.00    +0.000 C 
ATOM     24  C   UNL     1      -0.255  10.024  18.730  0.00  0.00    +0.000 C 
ATOM     25  C   UNL     1       1.031   9.799  19.530  0.00  0.00    +0.000 C 
ATOM     26  C   UNL     1       0.802  10.173  20.994  0.00  0.00    +0.000 C 
ATOM     27  C   UNL     1       0.285  11.604  21.102  0.00  0.00    +0.000 C 
ENDBRANCH  17  25
ENDBRANCH   1  18
TORSDOF 3
ENDMDL
MODEL 6
REMARK VINA RESULT:      -8.3      1.066      1.546
REMARK  Name = 
REMARK  4 active torsions:
REMARK  status: ('A' for Active; 'I' for Inactive)
REMARK    1  A    between atoms: C_1  and  N_2
REMARK    2  A    between atoms: C_5  and  N_6
REMARK    3  A    between atoms: C_7  and  C_9
REMARK    4  A    between atoms: C_16  and  C_17
REMARK                            x       y       z     vdW  Elec       q    Type
REMARK                         _______ _______ _______ _____ _____    ______ ____
ROOT
ATOM      1  C   UNL     1       3.391   5.996  18.285  0.00  0.00    +0.000 C 
ATOM      2  C   UNL     1       2.218   4.984  18.187  0.00  0.00    +0.000 C 
ATOM      3  C   UNL     1       2.749   3.556  17.965  0.00  0.00    +0.000 C 
ATOM      4  C   UNL     1       3.661   3.165  19.136  0.00  0.00    +0.000 C 
ATOM      5  C   UNL     1       4.832   4.148  19.232  0.00  0.00    +0.000 C 
ATOM      6  C   UNL     1       4.300   5.568  19.452  0.00  0.00    +0.000 C 
ATOM      7  C   UNL     1       5.634   4.117  17.925  0.00  0.00    +0.000 C 
ATOM      8  C   UNL     1       4.751   4.497  16.698  0.00  0.00    +0.000 C 
ATOM      9  C   UNL     1       3.556   3.502  16.654  0.00  0.00    +0.000 C 
ATOM     10  C   UNL     1       4.184   5.926  16.961  0.00  0.00    +0.000 C 
ENDROOT
BRANCH   8  11
ATOM     11  C   UNL     1       5.528   4.517  15.372  0.00  0.00    +0.000 A 
ATOM     12  C   UNL     1       5.114   3.784  14.247  0.00  0.00    +0.000 A 
ATOM     13  C   UNL     1       5.901   3.713  13.095  0.00  0.00    +0.000 A 
ATOM     14  C   UNL     1       7.117   4.385  13.035  0.00  0.00    +0.000 A 
ATOM     15  C   UNL     1       7.534   5.148  14.120  0.00  0.00    +0.000 A 
ATOM     16  C   UNL     1       6.745   5.219  15.271  0.00  0.00    +0.000 A 
ENDBRANCH   8  11
BRANCH   1  18
ATOM     17  N   UNL     1       2.031   7.572  19.634  0.00  0.00    +0.000 N 
ATOM     18  C   UNL     1       2.858   7.416  18.540  0.00  0.00    +0.000 C 
ATOM     19  O   UNL     1       3.159   8.366  17.814  0.00  0.00    +0.000 OA
ATOM     20  H   UNL     1       1.656   6.760  20.108  0.00  0.00    +0.000 HD
BRANCH  17  25
ATOM     21  C   UNL     1      -1.321  11.963  20.941  0.00  0.00    +0.000 C 
ATOM     22  N   UNL     1      -0.742  10.678  20.545  0.00  0.00    +0.000 NA
ATOM     23  C   UNL     1       0.034  10.817  19.304  0.00  0.00    +0.000 C 
ATOM     24  C   UNL     1       0.638   9.478  18.871  0.00  0.00    +0.000 C 
ATOM     25  C   UNL     1       1.487   8.878  19.994  0.00  0.00    +0.000 C 
ATOM     26  C   UNL     1       0.659   8.782  21.275  0.00  0.00    +0.000 C 
ATOM     27  C   UNL     1       0.082  10.147  21.638  0.00  0.00    +0.000 C 
ENDBRANCH  17  25
ENDBRANCH   1  18
TORSDOF 3
ENDMDL
MODEL 7
REMARK VINA RESULT:      -8.3      2.108      3.584
REMARK  Name = 
REMARK  4 active torsions:
REMARK  status: ('A' for Active; 'I' for Inactive)
REMARK    1  A    between atoms: C_1  and  N_2
REMARK    2  A    between atoms: C_5  and  N_6
REMARK    3  A    between atoms: C_7  and  C_9
REMARK    4  A    between atoms: C_16  and  C_17
REMARK                            x       y       z     vdW  Elec       q    Type
REMARK                         _______ _______ _______ _____ _____    ______ ____
ROOT
ATOM      1  C   UNL     1       4.823   6.192  17.681  0.00  0.00    +0.000 C 
ATOM      2  C   UNL     1       5.294   5.057  18.629  0.00  0.00    +0.000 C 
ATOM      3  C   UNL     1       6.755   4.672  18.334  0.00  0.00    +0.000 C 
ATOM      4  C   UNL     1       7.653   5.902  18.525  0.00  0.00    +0.000 C 
ATOM      5  C   UNL     1       7.207   7.023  17.582  0.00  0.00    +0.000 C 
ATOM      6  C   UNL     1       5.753   7.403  17.879  0.00  0.00    +0.000 C 
ATOM      7  C   UNL     1       7.307   6.538  16.130  0.00  0.00    +0.000 C 
ATOM      8  C   UNL     1       6.419   5.282  15.881  0.00  0.00    +0.000 C 
ATOM      9  C   UNL     1       6.875   4.179  16.878  0.00  0.00    +0.000 C 
ATOM     10  C   UNL     1       4.951   5.675  16.230  0.00  0.00    +0.000 C 
ENDROOT
BRANCH   8  11
ATOM     11  C   UNL     1       6.458   4.788  14.426  0.00  0.00    +0.000 A 
ATOM     12  C   UNL     1       5.524   3.870  13.918  0.00  0.00    +0.000 A 
ATOM     13  C   UNL     1       5.653   3.336  12.633  0.00  0.00    +0.000 A 
ATOM     14  C   UNL     1       6.714   3.717  11.819  0.00  0.00    +0.000 A 
ATOM     15  C   UNL     1       7.633   4.652  12.283  0.00  0.00    +0.000 A 
ATOM     16  C   UNL     1       7.502   5.186  13.568  0.00  0.00    +0.000 A 
ENDBRANCH   8  11
BRANCH   1  18
ATOM     17  N   UNL     1       3.169   7.917  18.346  0.00  0.00    +0.000 N 
ATOM     18  C   UNL     1       3.374   6.596  18.002  0.00  0.00    +0.000 C 
ATOM     19  O   UNL     1       2.444   5.789  17.945  0.00  0.00    +0.000 OA
ATOM     20  H   UNL     1       3.957   8.515  18.558  0.00  0.00    +0.000 HD
BRANCH  17  25
ATOM     21  C   UNL     1      -1.300  11.025  19.957  0.00  0.00    +0.000 C 
ATOM     22  N   UNL     1       0.025  10.468  19.680  0.00  0.00    +0.000 NA
ATOM     23  C   UNL     1       0.227   9.212  20.418  0.00  0.00    +0.000 C 
ATOM     24  C   UNL     1       1.614   8.621  20.146  0.00  0.00    +0.000 C 
ATOM     25  C   UNL     1       1.833   8.426  18.643  0.00  0.00    +0.000 C 
ATOM     26  C   UNL     1       1.581   9.740  17.908  0.00  0.00    +0.000 C 
ATOM     27  C   UNL     1       0.190  10.274  18.234  0.00  0.00    +0.000 C 
ENDBRANCH  17  25
ENDBRANCH   1  18
TORSDOF 3
ENDMDL
MODEL 8
REMARK VINA RESULT:      -8.3      1.739      2.364
REMARK  Name = 
REMARK  4 active torsions:
REMARK  status: ('A' for Active; 'I' for Inactive)
REMARK    1  A    between atoms: C_1  and  N_2
REMARK    2  A    between atoms: C_5  and  N_6
REMARK    3  A    between atoms: C_7  and  C_9
REMARK    4  A    between atoms: C_16  and  C_17
REMARK                            x       y       z     vdW  Elec       q    Type
REMARK                         _______ _______ _______ _____ _____    ______ ____
ROOT
ATOM      1  C   UNL     1       2.368   5.093  19.494  0.00  0.00    +0.000 C 
ATOM      2  C   UNL     1       1.814   4.665  18.109  0.00  0.00    +0.000 C 
ATOM      3  C   UNL     1       2.820   3.759  17.376  0.00  0.00    +0.000 C 
ATOM      4  C   UNL     1       3.091   2.509  18.225  0.00  0.00    +0.000 C 
ATOM      5  C   UNL     1       3.654   2.919  19.589  0.00  0.00    +0.000 C 
ATOM      6  C   UNL     1       2.650   3.820  20.314  0.00  0.00    +0.000 C 
ATOM      7  C   UNL     1       4.963   3.695  19.389  0.00  0.00    +0.000 C 
ATOM      8  C   UNL     1       4.747   4.973  18.523  0.00  0.00    +0.000 C 
ATOM      9  C   UNL     1       4.142   4.522  17.163  0.00  0.00    +0.000 C 
ATOM     10  C   UNL     1       3.690   5.856  19.255  0.00  0.00    +0.000 C 
ENDROOT
BRANCH   8  11
ATOM     11  C   UNL     1       6.028   5.801  18.333  0.00  0.00    +0.000 A 
ATOM     12  C   UNL     1       7.145   5.664  19.174  0.00  0.00    +0.000 A 
ATOM     13  C   UNL     1       8.247   6.515  19.064  0.00  0.00    +0.000 A 
ATOM     14  C   UNL     1       8.266   7.517  18.100  0.00  0.00    +0.000 A 
ATOM     15  C   UNL     1       7.190   7.651  17.229  0.00  0.00    +0.000 A 
ATOM     16  C   UNL     1       6.088   6.799  17.340  0.00  0.00    +0.000 A 
ENDBRANCH   8  11
BRANCH   1  18
ATOM     17  N   UNL     1       1.621   7.321  20.287  0.00  0.00    +0.000 N 
ATOM     18  C   UNL     1       1.346   5.970  20.237  0.00  0.00    +0.000 C 
ATOM     19  O   UNL     1       0.331   5.495  20.751  0.00  0.00    +0.000 OA
ATOM     20  H   UNL     1       2.535   7.665  20.019  0.00  0.00    +0.000 HD
BRANCH  17  25
ATOM     21  C   UNL     1      -0.822  11.851  22.683  0.00  0.00    +0.000 C 
ATOM     22  N   UNL     1       0.076  10.874  22.065  0.00  0.00    +0.000 NA
ATOM     23  C   UNL     1       0.271   9.713  22.947  0.00  0.00    +0.000 C 
ATOM     24  C   UNL     1       1.217   8.686  22.319  0.00  0.00    +0.000 C 
ATOM     25  C   UNL     1       0.711   8.258  20.939  0.00  0.00    +0.000 C 
ATOM     26  C   UNL     1       0.488   9.490  20.064  0.00  0.00    +0.000 C 
ATOM     27  C   UNL     1      -0.453  10.471  20.756  0.00  0.00    +0.000 C 
ENDBRANCH  17  25
ENDBRANCH   1  18
TORSDOF 3
ENDMDL
MODEL 9
REMARK VINA RESULT:      -8.3      1.243      1.654
REMARK  Name = 
REMARK  4 active torsions:
REMARK  status: ('A' for Active; 'I' for Inactive)
REMARK    1  A    between atoms: C_1  and  N_2
REMARK    2  A    between atoms: C_5  and  N_6
REMARK    3  A    between atoms: C_7  and  C_9
REMARK    4  A    between atoms: C_16  and  C_17
REMARK                            x       y       z     vdW  Elec       q    Type
REMARK                         _______ _______ _______ _____ _____    ______ ____
ROOT
ATOM      1  C   UNL     1       2.397   5.326  19.467  0.00  0.00    +0.000 C 
ATOM      2  C   UNL     1       1.203   4.574  18.819  0.00  0.00    +0.000 C 
ATOM      3  C   UNL     1       1.647   3.195  18.298  0.00  0.00    +0.000 C 
ATOM      4  C   UNL     1       2.200   2.364  19.465  0.00  0.00    +0.000 C 
ATOM      5  C   UNL     1       3.390   3.090  20.101  0.00  0.00    +0.000 C 
ATOM      6  C   UNL     1       2.944   4.461  20.618  0.00  0.00    +0.000 C 
ATOM      7  C   UNL     1       4.488   3.289  19.049  0.00  0.00    +0.000 C 
ATOM      8  C   UNL     1       3.978   4.120  17.834  0.00  0.00    +0.000 C 
ATOM      9  C   UNL     1       2.751   3.373  17.237  0.00  0.00    +0.000 C 
ATOM     10  C   UNL     1       3.488   5.494  18.386  0.00  0.00    +0.000 C 
ENDROOT
BRANCH   8  11
ATOM     11  C   UNL     1       5.061   4.377  16.774  0.00  0.00    +0.000 A 
ATOM     12  C   UNL     1       4.806   4.270  15.397  0.00  0.00    +0.000 A 
ATOM     13  C   UNL     1       5.833   4.381  14.456  0.00  0.00    +0.000 A 
ATOM     14  C   UNL     1       7.139   4.616  14.870  0.00  0.00    +0.000 A 
ATOM     15  C   UNL     1       7.415   4.764  16.225  0.00  0.00    +0.000 A 
ATOM     16  C   UNL     1       6.386   4.653  17.165  0.00  0.00    +0.000 A 
ENDBRANCH   8  11
BRANCH   1  18
ATOM     17  N   UNL     1       2.017   7.755  19.144  0.00  0.00    +0.000 N 
ATOM     18  C   UNL     1       1.942   6.689  20.016  0.00  0.00    +0.000 C 
ATOM     19  O   UNL     1       1.524   6.821  21.168  0.00  0.00    +0.000 OA
ATOM     20  H   UNL     1       2.524   7.665  18.272  0.00  0.00    +0.000 HD
BRANCH  17  25
ATOM     21  C   UNL     1      -0.759  12.656  19.849  0.00  0.00    +0.000 C 
ATOM     22  N   UNL     1      -0.278  11.335  19.443  0.00  0.00    +0.000 NA
ATOM     23  C   UNL     1       1.038  11.435  18.795  0.00  0.00    +0.000 C 
ATOM     24  C   UNL     1       1.551  10.061  18.356  0.00  0.00    +0.000 C 
ATOM     25  C   UNL     1       1.587   9.092  19.540  0.00  0.00    +0.000 C 
ATOM     26  C   UNL     1       0.214   9.041  20.208  0.00  0.00    +0.000 C 
ATOM     27  C   UNL     1      -0.236  10.442  20.608  0.00  0.00    +0.000 C 
ENDBRANCH  17  25
ENDBRANCH   1  18
TORSDOF 3
ENDMDL
