MODEL 1
REMARK VINA RESULT:      -8.0      0.000      0.000
REMARK  Name = 
REMARK  9 active torsions:
REMARK  status: ('A' for Active; 'I' for Inactive)
REMARK    1  A    between atoms: C_1  and  O_2
REMARK    2  A    between atoms: O_2  and  C_3
REMARK    3  A    between atoms: C_3  and  C_4
REMARK    4  A    between atoms: C_4  and  O_5
REMARK    5  A    between atoms: O_5  and  C_6
REMARK    6  A    between atoms: N_16  and  C_17
REMARK    7  A    between atoms: C_17  and  C_18
REMARK    8  A    between atoms: C_22  and  C_23
REMARK    9  A    between atoms: C_23  and  N_24
REMARK                            x       y       z     vdW  Elec       q    Type
REMARK                         _______ _______ _______ _____ _____    ______ ____
ROOT
ATOM      1  C   UNL     1       6.741   6.421  16.677  0.00  0.00    +0.000 A 
ATOM      2  N   UNL     1       6.991   5.464  15.770  0.00  0.00    +0.000 NA
ATOM      3  C   UNL     1       6.125   4.445  15.736  0.00  0.00    +0.000 A 
ATOM      4  N   UNL     1       6.393   3.423  14.817  0.00  0.00    +0.000 N 
ATOM      5  C   UNL     1       5.019   4.382  16.572  0.00  0.00    +0.000 A 
ATOM      6  N   UNL     1       4.125   3.314  16.495  0.00  0.00    +0.000 N 
ATOM      7  C   UNL     1       2.972   3.265  17.231  0.00  0.00    +0.000 A 
ATOM      8  O   UNL     1       2.216   2.305  17.179  0.00  0.00    +0.000 OA
ATOM      9  C   UNL     1       2.676   4.480  18.134  0.00  0.00    +0.000 A 
ATOM     10  O   UNL     1       1.574   4.560  18.668  0.00  0.00    +0.000 OA
ATOM     11  N   UNL     1       3.710   5.397  18.332  0.00  0.00    +0.000 N 
ATOM     12  C   UNL     1       4.859   5.408  17.490  0.00  0.00    +0.000 A 
ATOM     13  N   UNL     1       5.731   6.426  17.563  0.00  0.00    +0.000 NA
ATOM     14  H   UNL     1       7.226   3.685  14.292  0.00  0.00    +0.000 HD
ATOM     15  H   UNL     1       5.612   3.241  14.196  0.00  0.00    +0.000 HD
ATOM     16  H   UNL     1       4.337   2.518  15.907  0.00  0.00    +0.000 HD
ENDROOT
BRANCH   1  17
ATOM     17  O   UNL     1       7.589   7.502  16.763  0.00  0.00    +0.000 OA
BRANCH  17  18
ATOM     18  C   UNL     1       7.316   8.346  17.884  0.00  0.00    +0.000 C 
BRANCH  18  19
ATOM     19  C   UNL     1       8.349   9.472  17.890  0.00  0.00    +0.000 C 
BRANCH  19  21
ATOM     20  C   UNL     1       9.652  10.754  19.372  0.00  0.00    +0.000 C 
ATOM     21  O   UNL     1       9.070   9.480  19.122  0.00  0.00    +0.000 OA
ENDBRANCH  19  21
ENDBRANCH  18  19
ENDBRANCH  17  18
ENDBRANCH   1  17
BRANCH  11  22
ATOM     22  C   UNL     1       3.615   6.326  19.467  0.00  0.00    +0.000 C 
BRANCH  22  23
ATOM     23  C   UNL     1       2.585   7.422  19.211  0.00  0.00    +0.000 A 
ATOM     24  C   UNL     1       2.416   7.978  17.938  0.00  0.00    +0.000 A 
ATOM     25  C   UNL     1       1.584   9.087  17.760  0.00  0.00    +0.000 A 
ATOM     26  C   UNL     1       0.959   9.691  18.857  0.00  0.00    +0.000 A 
ATOM     27  C   UNL     1       1.101   9.148  20.137  0.00  0.00    +0.000 A 
ATOM     28  C   UNL     1       1.834   7.959  20.273  0.00  0.00    +0.000 A 
BRANCH  27  29
ATOM     29  C   UNL     1       0.705   9.907  21.391  0.00  0.00    +0.000 C 
BRANCH  29  30
ATOM     30  N   UNL     1      -0.575  10.597  21.471  0.00  0.00    +0.000 NA
ATOM     31  C   UNL     1      -0.673  11.875  20.778  0.00  0.00    +0.000 C 
ATOM     32  C   UNL     1      -0.576  12.916  21.873  0.00  0.00    +0.000 C 
ATOM     33  C   UNL     1      -1.226  12.249  23.072  0.00  0.00    +0.000 C 
ATOM     34  C   UNL     1      -1.135  10.752  22.806  0.00  0.00    +0.000 C 
ENDBRANCH  29  30
ENDBRANCH  27  29
ENDBRANCH  22  23
ENDBRANCH  11  22
TORSDOF 8
ENDMDL
MODEL 2
REMARK VINA RESULT:      -8.0      0.671      1.043
REMARK  Name = 
REMARK  9 active torsions:
REMARK  status: ('A' for Active; 'I' for Inactive)
REMARK    1  A    between atoms: C_1  and  O_2
REMARK    2  A    between atoms: O_2  and  C_3
REMARK    3  A    between atoms: C_3  and  C_4
REMARK    4  A    between atoms: C_4  and  O_5
REMARK    5  A    between atoms: O_5  and  C_6
REMARK    6  A    between atoms: N_16  and  C_17
REMARK    7  A    between atoms: C_17  and  C_18
REMARK    8  A    between atoms: C_22  and  C_23
REMARK    9  A    between atoms: C_23  and  N_24
REMARK                            x       y       z     vdW  Elec       q    Type
REMARK                         _______ _______ _______ _____ _____    ______ ____
ROOT
ATOM      1  C   UNL     1       6.458   6.636  16.722  0.00  0.00    +0.000 A 
ATOM      2  N   UNL     1       6.741   5.680  15.824  0.00  0.00    +0.000 NA
ATOM      3  C   UNL     1       5.933   4.615  15.823  0.00  0.00    +0.000 A 
ATOM      4  N   UNL     1       6.238   3.596  14.913  0.00  0.00    +0.000 N 
ATOM      5  C   UNL     1       4.849   4.504  16.683  0.00  0.00    +0.000 A 
ATOM      6  N   UNL     1       4.014   3.388  16.640  0.00  0.00    +0.000 N 
ATOM      7  C   UNL     1       2.881   3.287  17.401  0.00  0.00    +0.000 A 
ATOM      8  O   UNL     1       2.178   2.287  17.379  0.00  0.00    +0.000 OA
ATOM      9  C   UNL     1       2.537   4.498  18.294  0.00  0.00    +0.000 A 
ATOM     10  O   UNL     1       1.444   4.525  18.850  0.00  0.00    +0.000 OA
ATOM     11  N   UNL     1       3.523   5.473  18.456  0.00  0.00    +0.000 N 
ATOM     12  C   UNL     1       4.651   5.534  17.590  0.00  0.00    +0.000 A 
ATOM     13  N   UNL     1       5.468   6.600  17.630  0.00  0.00    +0.000 NA
ATOM     14  H   UNL     1       7.044   3.895  14.367  0.00  0.00    +0.000 HD
ATOM     15  H   UNL     1       5.455   3.361  14.312  0.00  0.00    +0.000 HD
ATOM     16  H   UNL     1       4.258   2.595  16.059  0.00  0.00    +0.000 HD
ENDROOT
BRANCH   1  17
ATOM     17  O   UNL     1       7.247   7.763  16.775  0.00  0.00    +0.000 OA
BRANCH  17  18
ATOM     18  C   UNL     1       7.941   7.909  18.017  0.00  0.00    +0.000 C 
BRANCH  18  19
ATOM     19  C   UNL     1       8.323   9.380  18.173  0.00  0.00    +0.000 C 
BRANCH  19  21
ATOM     20  C   UNL     1       9.437  10.919  19.563  0.00  0.00    +0.000 C 
ATOM     21  O   UNL     1       9.244   9.543  19.253  0.00  0.00    +0.000 OA
ENDBRANCH  19  21
ENDBRANCH  18  19
ENDBRANCH  17  18
ENDBRANCH   1  17
BRANCH  11  22
ATOM     22  C   UNL     1       3.400   6.413  19.580  0.00  0.00    +0.000 C 
BRANCH  22  23
ATOM     23  C   UNL     1       2.372   7.502  19.291  0.00  0.00    +0.000 A 
ATOM     24  C   UNL     1       2.263   8.080  18.021  0.00  0.00    +0.000 A 
ATOM     25  C   UNL     1       1.429   9.184  17.820  0.00  0.00    +0.000 A 
ATOM     26  C   UNL     1       0.742   9.761  18.894  0.00  0.00    +0.000 A 
ATOM     27  C   UNL     1       0.824   9.196  20.170  0.00  0.00    +0.000 A 
ATOM     28  C   UNL     1       1.562   8.013  20.322  0.00  0.00    +0.000 A 
BRANCH  27  29
ATOM     29  C   UNL     1       0.355   9.928  21.415  0.00  0.00    +0.000 C 
BRANCH  29  30
ATOM     30  N   UNL     1       0.659  11.339  21.609  0.00  0.00    +0.000 NA
ATOM     31  C   UNL     1      -0.449  12.197  22.005  0.00  0.00    +0.000 C 
ATOM     32  C   UNL     1      -0.836  12.937  20.742  0.00  0.00    +0.000 C 
ATOM     33  C   UNL     1       0.475  13.089  19.990  0.00  0.00    +0.000 C 
ATOM     34  C   UNL     1       1.383  11.991  20.526  0.00  0.00    +0.000 C 
ENDBRANCH  29  30
ENDBRANCH  27  29
ENDBRANCH  22  23
ENDBRANCH  11  22
TORSDOF 8
ENDMDL
MODEL 3
REMARK VINA RESULT:      -7.8      1.903      2.619
REMARK  Name = 
REMARK  9 active torsions:
REMARK  status: ('A' for Active; 'I' for Inactive)
REMARK    1  A    between atoms: C_1  and  O_2
REMARK    2  A    between atoms: O_2  and  C_3
REMARK    3  A    between atoms: C_3  and  C_4
REMARK    4  A    between atoms: C_4  and  O_5
REMARK    5  A    between atoms: O_5  and  C_6
REMARK    6  A    between atoms: N_16  and  C_17
REMARK    7  A    between atoms: C_17  and  C_18
REMARK    8  A    between atoms: C_22  and  C_23
REMARK    9  A    between atoms: C_23  and  N_24
REMARK                            x       y       z     vdW  Elec       q    Type
REMARK                         _______ _______ _______ _____ _____    ______ ____
ROOT
ATOM      1  C   UNL     1       7.400   7.805  17.906  0.00  0.00    +0.000 A 
ATOM      2  N   UNL     1       8.241   7.047  18.627  0.00  0.00    +0.000 NA
ATOM      3  C   UNL     1       7.745   5.894  19.087  0.00  0.00    +0.000 A 
ATOM      4  N   UNL     1       8.602   5.110  19.869  0.00  0.00    +0.000 N 
ATOM      5  C   UNL     1       6.445   5.485  18.824  0.00  0.00    +0.000 A 
ATOM      6  N   UNL     1       5.968   4.265  19.303  0.00  0.00    +0.000 N 
ATOM      7  C   UNL     1       4.728   3.783  18.983  0.00  0.00    +0.000 A 
ATOM      8  O   UNL     1       4.310   2.729  19.439  0.00  0.00    +0.000 OA
ATOM      9  C   UNL     1       3.880   4.640  18.019  0.00  0.00    +0.000 A 
ATOM     10  O   UNL     1       2.845   4.163  17.566  0.00  0.00    +0.000 OA
ATOM     11  N   UNL     1       4.322   5.939  17.763  0.00  0.00    +0.000 N 
ATOM     12  C   UNL     1       5.647   6.348  18.088  0.00  0.00    +0.000 A 
ATOM     13  N   UNL     1       6.112   7.525  17.641  0.00  0.00    +0.000 NA
ATOM     14  H   UNL     1       9.506   5.578  19.908  0.00  0.00    +0.000 HD
ATOM     15  H   UNL     1       8.697   4.163  19.516  0.00  0.00    +0.000 HD
ATOM     16  H   UNL     1       6.530   3.719  19.944  0.00  0.00    +0.000 HD
ENDROOT
BRANCH   1  17
ATOM     17  O   UNL     1       7.845   9.004  17.396  0.00  0.00    +0.000 OA
BRANCH  17  18
ATOM     18  C   UNL     1       8.716   9.707  18.286  0.00  0.00    +0.000 C 
BRANCH  18  19
ATOM     19  C   UNL     1       8.742  11.174  17.857  0.00  0.00    +0.000 C 
BRANCH  19  21
ATOM     20  C   UNL     1      10.667  11.433  19.187  0.00  0.00    +0.000 C 
ATOM     21  O   UNL     1      10.074  11.687  17.918  0.00  0.00    +0.000 OA
ENDBRANCH  19  21
ENDBRANCH  18  19
ENDBRANCH  17  18
ENDBRANCH   1  17
BRANCH  11  22
ATOM     22  C   UNL     1       3.370   6.903  17.191  0.00  0.00    +0.000 C 
BRANCH  22  23
ATOM     23  C   UNL     1       2.632   7.677  18.279  0.00  0.00    +0.000 A 
ATOM     24  C   UNL     1       2.494   7.160  19.572  0.00  0.00    +0.000 A 
ATOM     25  C   UNL     1       1.680   7.809  20.505  0.00  0.00    +0.000 A 
ATOM     26  C   UNL     1       0.948   8.944  20.142  0.00  0.00    +0.000 A 
ATOM     27  C   UNL     1       1.077   9.488  18.860  0.00  0.00    +0.000 A 
ATOM     28  C   UNL     1       1.998   8.897  17.983  0.00  0.00    +0.000 A 
BRANCH  27  29
ATOM     29  C   UNL     1       0.107  10.520  18.314  0.00  0.00    +0.000 C 
BRANCH  29  30
ATOM     30  N   UNL     1       0.193  11.915  18.724  0.00  0.00    +0.000 NA
ATOM     31  C   UNL     1       1.529  12.448  18.951  0.00  0.00    +0.000 C 
ATOM     32  C   UNL     1       1.680  12.483  20.457  0.00  0.00    +0.000 C 
ATOM     33  C   UNL     1       0.273  12.757  20.961  0.00  0.00    +0.000 C 
ATOM     34  C   UNL     1      -0.656  12.305  19.842  0.00  0.00    +0.000 C 
ENDBRANCH  29  30
ENDBRANCH  27  29
ENDBRANCH  22  23
ENDBRANCH  11  22
TORSDOF 8
ENDMDL
MODEL 4
REMARK VINA RESULT:      -7.7      2.236      3.063
REMARK  Name = 
REMARK  9 active torsions:
REMARK  status: ('A' for Active; 'I' for Inactive)
REMARK    1  A    between atoms: C_1  and  O_2
REMARK    2  A    between atoms: O_2  and  C_3
REMARK    3  A    between atoms: C_3  and  C_4
REMARK    4  A    between atoms: C_4  and  O_5
REMARK    5  A    between atoms: O_5  and  C_6
REMARK    6  A    between atoms: N_16  and  C_17
REMARK    7  A    between atoms: C_17  and  C_18
REMARK    8  A    between atoms: C_22  and  C_23
REMARK    9  A    between atoms: C_23  and  N_24
REMARK                            x       y       z     vdW  Elec       q    Type
REMARK                         _______ _______ _______ _____ _____    ______ ____
ROOT
ATOM      1  C   UNL     1       7.581   7.839  18.011  0.00  0.00    +0.000 A 
ATOM      2  N   UNL     1       8.386   7.062  18.753  0.00  0.00    +0.000 NA
ATOM      3  C   UNL     1       7.873   5.892  19.149  0.00  0.00    +0.000 A 
ATOM      4  N   UNL     1       8.691   5.087  19.951  0.00  0.00    +0.000 N 
ATOM      5  C   UNL     1       6.591   5.486  18.802  0.00  0.00    +0.000 A 
ATOM      6  N   UNL     1       6.097   4.250  19.215  0.00  0.00    +0.000 N 
ATOM      7  C   UNL     1       4.879   3.772  18.811  0.00  0.00    +0.000 A 
ATOM      8  O   UNL     1       4.443   2.702  19.211  0.00  0.00    +0.000 OA
ATOM      9  C   UNL     1       4.080   4.656  17.830  0.00  0.00    +0.000 A 
ATOM     10  O   UNL     1       3.075   4.189  17.305  0.00  0.00    +0.000 OA
ATOM     11  N   UNL     1       4.527   5.965  17.640  0.00  0.00    +0.000 N 
ATOM     12  C   UNL     1       5.830   6.368  18.051  0.00  0.00    +0.000 A 
ATOM     13  N   UNL     1       6.312   7.562  17.667  0.00  0.00    +0.000 NA
ATOM     14  H   UNL     1       9.588   5.558  20.055  0.00  0.00    +0.000 HD
ATOM     15  H   UNL     1       8.810   4.153  19.574  0.00  0.00    +0.000 HD
ATOM     16  H   UNL     1       6.626   3.685  19.868  0.00  0.00    +0.000 HD
ENDROOT
BRANCH   1  17
ATOM     17  O   UNL     1       8.046   9.055  17.565  0.00  0.00    +0.000 OA
BRANCH  17  18
ATOM     18  C   UNL     1       8.672   9.831  18.590  0.00  0.00    +0.000 C 
BRANCH  18  19
ATOM     19  C   UNL     1       9.546  10.887  17.915  0.00  0.00    +0.000 C 
BRANCH  19  21
ATOM     20  C   UNL     1       9.990  13.041  18.751  0.00  0.00    +0.000 C 
ATOM     21  O   UNL     1      10.251  11.650  18.894  0.00  0.00    +0.000 OA
ENDBRANCH  19  21
ENDBRANCH  18  19
ENDBRANCH  17  18
ENDBRANCH   1  17
BRANCH  11  22
ATOM     22  C   UNL     1       3.602   6.942  17.047  0.00  0.00    +0.000 C 
BRANCH  22  23
ATOM     23  C   UNL     1       2.816   7.692  18.118  0.00  0.00    +0.000 A 
ATOM     24  C   UNL     1       2.687   7.183  19.415  0.00  0.00    +0.000 A 
ATOM     25  C   UNL     1       1.832   7.803  20.331  0.00  0.00    +0.000 A 
ATOM     26  C   UNL     1       1.052   8.899  19.947  0.00  0.00    +0.000 A 
ATOM     27  C   UNL     1       1.170   9.434  18.661  0.00  0.00    +0.000 A 
ATOM     28  C   UNL     1       2.129   8.878  17.801  0.00  0.00    +0.000 A 
BRANCH  27  29
ATOM     29  C   UNL     1       0.159  10.413  18.091  0.00  0.00    +0.000 C 
BRANCH  29  30
ATOM     30  N   UNL     1      -1.266  10.242  18.339  0.00  0.00    +0.000 NA
ATOM     31  C   UNL     1      -2.074   9.791  17.215  0.00  0.00    +0.000 C 
ATOM     32  C   UNL     1      -2.787  11.035  16.728  0.00  0.00    +0.000 C 
ATOM     33  C   UNL     1      -2.994  11.856  17.989  0.00  0.00    +0.000 C 
ATOM     34  C   UNL     1      -1.943  11.364  18.974  0.00  0.00    +0.000 C 
ENDBRANCH  29  30
ENDBRANCH  27  29
ENDBRANCH  22  23
ENDBRANCH  11  22
TORSDOF 8
ENDMDL
MODEL 5
REMARK VINA RESULT:      -7.7      4.333      9.587
REMARK  Name = 
REMARK  9 active torsions:
REMARK  status: ('A' for Active; 'I' for Inactive)
REMARK    1  A    between atoms: C_1  and  O_2
REMARK    2  A    between atoms: O_2  and  C_3
REMARK    3  A    between atoms: C_3  and  C_4
REMARK    4  A    between atoms: C_4  and  O_5
REMARK    5  A    between atoms: O_5  and  C_6
REMARK    6  A    between atoms: N_16  and  C_17
REMARK    7  A    between atoms: C_17  and  C_18
REMARK    8  A    between atoms: C_22  and  C_23
REMARK    9  A    between atoms: C_23  and  N_24
REMARK                            x       y       z     vdW  Elec       q    Type
REMARK                         _______ _______ _______ _____ _____    ______ ____
ROOT
ATOM      1  C   UNL     1      -2.704  10.474  17.259  0.00  0.00    +0.000 A 
ATOM      2  N   UNL     1      -3.642  11.191  17.899  0.00  0.00    +0.000 NA
ATOM      3  C   UNL     1      -3.207  11.975  18.890  0.00  0.00    +0.000 A 
ATOM      4  N   UNL     1      -4.180  12.702  19.587  0.00  0.00    +0.000 N 
ATOM      5  C   UNL     1      -1.865  12.066  19.233  0.00  0.00    +0.000 A 
ATOM      6  N   UNL     1      -1.446  12.911  20.260  0.00  0.00    +0.000 N 
ATOM      7  C   UNL     1      -0.125  13.103  20.561  0.00  0.00    +0.000 A 
ATOM      8  O   UNL     1       0.226  13.820  21.488  0.00  0.00    +0.000 OA
ATOM      9  C   UNL     1       0.901  12.365  19.676  0.00  0.00    +0.000 A 
ATOM     10  O   UNL     1       2.089  12.648  19.794  0.00  0.00    +0.000 OA
ATOM     11  N   UNL     1       0.413  11.372  18.824  0.00  0.00    +0.000 N 
ATOM     12  C   UNL     1      -0.976  11.270  18.528  0.00  0.00    +0.000 A 
ATOM     13  N   UNL     1      -1.392  10.451  17.548  0.00  0.00    +0.000 NA
ATOM     14  H   UNL     1      -5.083  12.512  19.155  0.00  0.00    +0.000 HD
ATOM     15  H   UNL     1      -3.986  13.698  19.605  0.00  0.00    +0.000 HD
ATOM     16  H   UNL     1      -2.130  13.381  20.841  0.00  0.00    +0.000 HD
ENDROOT
BRANCH   1  17
ATOM     17  O   UNL     1      -3.080   9.648  16.224  0.00  0.00    +0.000 OA
BRANCH  17  18
ATOM     18  C   UNL     1      -2.776  10.185  14.934  0.00  0.00    +0.000 C 
BRANCH  18  19
ATOM     19  C   UNL     1      -4.010  10.012  14.049  0.00  0.00    +0.000 C 
BRANCH  19  21
ATOM     20  C   UNL     1      -4.754   9.747  11.832  0.00  0.00    +0.000 C 
ATOM     21  O   UNL     1      -3.622   9.782  12.694  0.00  0.00    +0.000 OA
ENDBRANCH  19  21
ENDBRANCH  18  19
ENDBRANCH  17  18
ENDBRANCH   1  17
BRANCH  11  22
ATOM     22  C   UNL     1       1.362  10.394  18.273  0.00  0.00    +0.000 C 
BRANCH  22  23
ATOM     23  C   UNL     1       1.422   9.129  19.124  0.00  0.00    +0.000 A 
ATOM     24  C   UNL     1       0.835   9.079  20.393  0.00  0.00    +0.000 A 
ATOM     25  C   UNL     1       1.040   7.969  21.219  0.00  0.00    +0.000 A 
ATOM     26  C   UNL     1       1.879   6.926  20.813  0.00  0.00    +0.000 A 
ATOM     27  C   UNL     1       2.467   6.946  19.545  0.00  0.00    +0.000 A 
ATOM     28  C   UNL     1       2.144   8.005  18.684  0.00  0.00    +0.000 A 
BRANCH  27  29
ATOM     29  C   UNL     1       3.603   6.014  19.161  0.00  0.00    +0.000 C 
BRANCH  29  30
ATOM     30  N   UNL     1       3.351   4.607  18.881  0.00  0.00    +0.000 NA
ATOM     31  C   UNL     1       2.888   4.281  17.540  0.00  0.00    +0.000 C 
ATOM     32  C   UNL     1       1.402   4.032  17.693  0.00  0.00    +0.000 C 
ATOM     33  C   UNL     1       1.271   3.446  19.088  0.00  0.00    +0.000 C 
ATOM     34  C   UNL     1       2.512   3.905  19.842  0.00  0.00    +0.000 C 
ENDBRANCH  29  30
ENDBRANCH  27  29
ENDBRANCH  22  23
ENDBRANCH  11  22
TORSDOF 8
ENDMDL
MODEL 6
REMARK VINA RESULT:      -7.5      1.798      2.227
REMARK  Name = 
REMARK  9 active torsions:
REMARK  status: ('A' for Active; 'I' for Inactive)
REMARK    1  A    between atoms: C_1  and  O_2
REMARK    2  A    between atoms: O_2  and  C_3
REMARK    3  A    between atoms: C_3  and  C_4
REMARK    4  A    between atoms: C_4  and  O_5
REMARK    5  A    between atoms: O_5  and  C_6
REMARK    6  A    between atoms: N_16  and  C_17
REMARK    7  A    between atoms: C_17  and  C_18
REMARK    8  A    between atoms: C_22  and  C_23
REMARK    9  A    between atoms: C_23  and  N_24
REMARK                            x       y       z     vdW  Elec       q    Type
REMARK                         _______ _______ _______ _____ _____    ______ ____
ROOT
ATOM      1  C   UNL     1       6.907   7.271  17.369  0.00  0.00    +0.000 A 
ATOM      2  N   UNL     1       7.791   6.301  17.651  0.00  0.00    +0.000 NA
ATOM      3  C   UNL     1       7.278   5.089  17.886  0.00  0.00    +0.000 A 
ATOM      4  N   UNL     1       8.187   4.076  18.214  0.00  0.00    +0.000 N 
ATOM      5  C   UNL     1       5.915   4.833  17.824  0.00  0.00    +0.000 A 
ATOM      6  N   UNL     1       5.418   3.550  18.054  0.00  0.00    +0.000 N 
ATOM      7  C   UNL     1       4.094   3.237  17.905  0.00  0.00    +0.000 A 
ATOM      8  O   UNL     1       3.667   2.117  18.145  0.00  0.00    +0.000 OA
ATOM      9  C   UNL     1       3.165   4.371  17.423  0.00  0.00    +0.000 A 
ATOM     10  O   UNL     1       2.014   4.091  17.104  0.00  0.00    +0.000 OA
ATOM     11  N   UNL     1       3.682   5.668  17.431  0.00  0.00    +0.000 N 
ATOM     12  C   UNL     1       5.082   5.905  17.546  0.00  0.00    +0.000 A 
ATOM     13  N   UNL     1       5.570   7.138  17.336  0.00  0.00    +0.000 NA
ATOM     14  H   UNL     1       9.125   4.472  18.172  0.00  0.00    +0.000 HD
ATOM     15  H   UNL     1       8.105   3.266  17.610  0.00  0.00    +0.000 HD
ATOM     16  H   UNL     1       6.037   2.819  18.381  0.00  0.00    +0.000 HD
ENDROOT
BRANCH   1  17
ATOM     17  O   UNL     1       7.365   8.544  17.112  0.00  0.00    +0.000 OA
BRANCH  17  18
ATOM     18  C   UNL     1       8.279   9.026  18.100  0.00  0.00    +0.000 C 
BRANCH  18  19
ATOM     19  C   UNL     1       8.523  10.510  17.832  0.00  0.00    +0.000 C 
BRANCH  19  21
ATOM     20  C   UNL     1       9.571  10.952  19.893  0.00  0.00    +0.000 C 
ATOM     21  O   UNL     1       9.721  10.942  18.478  0.00  0.00    +0.000 OA
ENDBRANCH  19  21
ENDBRANCH  18  19
ENDBRANCH  17  18
ENDBRANCH   1  17
BRANCH  11  22
ATOM     22  C   UNL     1       2.742   6.797  17.368  0.00  0.00    +0.000 C 
BRANCH  22  23
ATOM     23  C   UNL     1       2.311   7.247  18.760  0.00  0.00    +0.000 A 
ATOM     24  C   UNL     1       2.216   6.339  19.820  0.00  0.00    +0.000 A 
ATOM     25  C   UNL     1       1.667   6.740  21.043  0.00  0.00    +0.000 A 
ATOM     26  C   UNL     1       1.152   8.031  21.201  0.00  0.00    +0.000 A 
ATOM     27  C   UNL     1       1.246   8.961  20.162  0.00  0.00    +0.000 A 
ATOM     28  C   UNL     1       1.918   8.578  18.992  0.00  0.00    +0.000 A 
BRANCH  27  29
ATOM     29  C   UNL     1       0.458  10.259  20.159  0.00  0.00    +0.000 C 
BRANCH  29  30
ATOM     30  N   UNL     1       0.556  11.188  19.041  0.00  0.00    +0.000 NA
ATOM     31  C   UNL     1       1.561  12.236  19.149  0.00  0.00    +0.000 C 
ATOM     32  C   UNL     1       0.782  13.483  19.507  0.00  0.00    +0.000 C 
ATOM     33  C   UNL     1      -0.556  13.292  18.813  0.00  0.00    +0.000 C 
ATOM     34  C   UNL     1      -0.694  11.791  18.601  0.00  0.00    +0.000 C 
ENDBRANCH  29  30
ENDBRANCH  27  29
ENDBRANCH  22  23
ENDBRANCH  11  22
TORSDOF 8
ENDMDL
MODEL 7
REMARK VINA RESULT:      -7.5      4.435      9.741
REMARK  Name = 
REMARK  9 active torsions:
REMARK  status: ('A' for Active; 'I' for Inactive)
REMARK    1  A    between atoms: C_1  and  O_2
REMARK    2  A    between atoms: O_2  and  C_3
REMARK    3  A    between atoms: C_3  and  C_4
REMARK    4  A    between atoms: C_4  and  O_5
REMARK    5  A    between atoms: O_5  and  C_6
REMARK    6  A    between atoms: N_16  and  C_17
REMARK    7  A    between atoms: C_17  and  C_18
REMARK    8  A    between atoms: C_22  and  C_23
REMARK    9  A    between atoms: C_23  and  N_24
REMARK                            x       y       z     vdW  Elec       q    Type
REMARK                         _______ _______ _______ _____ _____    ______ ____
ROOT
ATOM      1  C   UNL     1      -2.627  10.131  16.859  0.00  0.00    +0.000 A 
ATOM      2  N   UNL     1      -3.677  10.664  17.504  0.00  0.00    +0.000 NA
ATOM      3  C   UNL     1      -3.392  11.401  18.583  0.00  0.00    +0.000 A 
ATOM      4  N   UNL     1      -4.480  11.934  19.283  0.00  0.00    +0.000 N 
ATOM      5  C   UNL     1      -2.089  11.625  19.007  0.00  0.00    +0.000 A 
ATOM      6  N   UNL     1      -1.828  12.417  20.125  0.00  0.00    +0.000 N 
ATOM      7  C   UNL     1      -0.558  12.742  20.516  0.00  0.00    +0.000 A 
ATOM      8  O   UNL     1      -0.344  13.407  21.519  0.00  0.00    +0.000 OA
ATOM      9  C   UNL     1       0.593  12.221  19.629  0.00  0.00    +0.000 A 
ATOM     10  O   UNL     1       1.728  12.637  19.838  0.00  0.00    +0.000 OA
ATOM     11  N   UNL     1       0.275  11.259  18.669  0.00  0.00    +0.000 N 
ATOM     12  C   UNL     1      -1.075  11.014  18.287  0.00  0.00    +0.000 A 
ATOM     13  N   UNL     1      -1.337  10.244  17.218  0.00  0.00    +0.000 NA
ATOM     14  H   UNL     1      -5.331  11.674  18.786  0.00  0.00    +0.000 HD
ATOM     15  H   UNL     1      -4.416  12.940  19.398  0.00  0.00    +0.000 HD
ATOM     16  H   UNL     1      -2.593  12.742  20.705  0.00  0.00    +0.000 HD
ENDROOT
BRANCH   1  17
ATOM     17  O   UNL     1      -2.847   9.364  15.736  0.00  0.00    +0.000 OA
BRANCH  17  18
ATOM     18  C   UNL     1      -2.807  10.117  14.522  0.00  0.00    +0.000 C 
BRANCH  18  19
ATOM     19  C   UNL     1      -4.154   9.952  13.821  0.00  0.00    +0.000 C 
BRANCH  19  21
ATOM     20  C   UNL     1      -5.211   9.651  11.739  0.00  0.00    +0.000 C 
ATOM     21  O   UNL     1      -3.972   9.858  12.407  0.00  0.00    +0.000 OA
ENDBRANCH  19  21
ENDBRANCH  18  19
ENDBRANCH  17  18
ENDBRANCH   1  17
BRANCH  11  22
ATOM     22  C   UNL     1       1.366  10.461  18.090  0.00  0.00    +0.000 C 
BRANCH  22  23
ATOM     23  C   UNL     1       1.510   9.114  18.793  0.00  0.00    +0.000 A 
ATOM     24  C   UNL     1       1.192   8.963  20.147  0.00  0.00    +0.000 A 
ATOM     25  C   UNL     1       1.483   7.766  20.808  0.00  0.00    +0.000 A 
ATOM     26  C   UNL     1       2.148   6.730  20.144  0.00  0.00    +0.000 A 
ATOM     27  C   UNL     1       2.466   6.851  18.788  0.00  0.00    +0.000 A 
ATOM     28  C   UNL     1       2.048   8.007  18.112  0.00  0.00    +0.000 A 
BRANCH  27  29
ATOM     29  C   UNL     1       3.433   5.909  18.092  0.00  0.00    +0.000 C 
BRANCH  29  30
ATOM     30  N   UNL     1       4.871   6.132  18.162  0.00  0.00    +0.000 NA
ATOM     31  C   UNL     1       5.513   6.634  16.956  0.00  0.00    +0.000 C 
ATOM     32  C   UNL     1       6.204   5.428  16.355  0.00  0.00    +0.000 C 
ATOM     33  C   UNL     1       6.600   4.594  17.561  0.00  0.00    +0.000 C 
ATOM     34  C   UNL     1       5.664   5.027  18.681  0.00  0.00    +0.000 C 
ENDBRANCH  29  30
ENDBRANCH  27  29
ENDBRANCH  22  23
ENDBRANCH  11  22
TORSDOF 8
ENDMDL
MODEL 8
REMARK VINA RESULT:      -7.5      2.639      6.968
REMARK  Name = 
REMARK  9 active torsions:
REMARK  status: ('A' for Active; 'I' for Inactive)
REMARK    1  A    between atoms: C_1  and  O_2
REMARK    2  A    between atoms: O_2  and  C_3
REMARK    3  A    between atoms: C_3  and  C_4
REMARK    4  A    between atoms: C_4  and  O_5
REMARK    5  A    between atoms: O_5  and  C_6
REMARK    6  A    between atoms: N_16  and  C_17
REMARK    7  A    between atoms: C_17  and  C_18
REMARK    8  A    between atoms: C_22  and  C_23
REMARK    9  A    between atoms: C_23  and  N_24
REMARK                            x       y       z     vdW  Elec       q    Type
REMARK                         _______ _______ _______ _____ _____    ______ ____
ROOT
ATOM      1  C   UNL     1       2.171   6.895  20.006  0.00  0.00    +0.000 A 
ATOM      2  N   UNL     1       1.372   5.968  20.556  0.00  0.00    +0.000 NA
ATOM      3  C   UNL     1       1.507   4.723  20.089  0.00  0.00    +0.000 A 
ATOM      4  N   UNL     1       0.655   3.753  20.631  0.00  0.00    +0.000 N 
ATOM      5  C   UNL     1       2.430   4.393  19.106  0.00  0.00    +0.000 A 
ATOM      6  N   UNL     1       2.558   3.079  18.657  0.00  0.00    +0.000 N 
ATOM      7  C   UNL     1       3.522   2.697  17.764  0.00  0.00    +0.000 A 
ATOM      8  O   UNL     1       3.598   1.548  17.352  0.00  0.00    +0.000 OA
ATOM      9  C   UNL     1       4.505   3.791  17.297  0.00  0.00    +0.000 A 
ATOM     10  O   UNL     1       5.487   3.457  16.643  0.00  0.00    +0.000 OA
ATOM     11  N   UNL     1       4.183   5.114  17.607  0.00  0.00    +0.000 N 
ATOM     12  C   UNL     1       3.195   5.425  18.585  0.00  0.00    +0.000 A 
ATOM     13  N   UNL     1       3.057   6.689  19.017  0.00  0.00    +0.000 NA
ATOM     14  H   UNL     1       0.087   4.201  21.349  0.00  0.00    +0.000 HD
ATOM     15  H   UNL     1       1.159   2.957  21.008  0.00  0.00    +0.000 HD
ATOM     16  H   UNL     1       1.899   2.374  18.962  0.00  0.00    +0.000 HD
ENDROOT
BRANCH   1  17
ATOM     17  O   UNL     1       2.090   8.198  20.443  0.00  0.00    +0.000 OA
BRANCH  17  18
ATOM     18  C   UNL     1       1.020   8.418  21.366  0.00  0.00    +0.000 C 
BRANCH  18  19
ATOM     19  C   UNL     1       0.364   9.753  21.017  0.00  0.00    +0.000 C 
BRANCH  19  21
ATOM     20  C   UNL     1       1.034  11.990  20.717  0.00  0.00    +0.000 C 
ATOM     21  O   UNL     1       1.128  10.837  21.546  0.00  0.00    +0.000 OA
ENDBRANCH  19  21
ENDBRANCH  18  19
ENDBRANCH  17  18
ENDBRANCH   1  17
BRANCH  11  22
ATOM     22  C   UNL     1       4.853   6.190  16.863  0.00  0.00    +0.000 C 
BRANCH  22  23
ATOM     23  C   UNL     1       6.203   6.544  17.479  0.00  0.00    +0.000 A 
ATOM     24  C   UNL     1       6.834   5.687  18.388  0.00  0.00    +0.000 A 
ATOM     25  C   UNL     1       7.987   6.101  19.061  0.00  0.00    +0.000 A 
ATOM     26  C   UNL     1       8.489   7.395  18.881  0.00  0.00    +0.000 A 
ATOM     27  C   UNL     1       7.885   8.266  17.970  0.00  0.00    +0.000 A 
ATOM     28  C   UNL     1       6.809   7.785  17.210  0.00  0.00    +0.000 A 
BRANCH  27  29
ATOM     29  C   UNL     1       8.189   9.754  17.944  0.00  0.00    +0.000 C 
BRANCH  29  30
ATOM     30  N   UNL     1       9.411  10.275  18.540  0.00  0.00    +0.000 NA
ATOM     31  C   UNL     1       9.328  10.712  19.927  0.00  0.00    +0.000 C 
ATOM     32  C   UNL     1       9.276  12.223  19.854  0.00  0.00    +0.000 C 
ATOM     33  C   UNL     1      10.111  12.560  18.630  0.00  0.00    +0.000 C 
ATOM     34  C   UNL     1      10.107  11.300  17.775  0.00  0.00    +0.000 C 
ENDBRANCH  29  30
ENDBRANCH  27  29
ENDBRANCH  22  23
ENDBRANCH  11  22
TORSDOF 8
ENDMDL
MODEL 9
REMARK VINA RESULT:      -7.4      5.467      9.190
REMARK  Name = 
REMARK  9 active torsions:
REMARK  status: ('A' for Active; 'I' for Inactive)
REMARK    1  A    between atoms: C_1  and  O_2
REMARK    2  A    between atoms: O_2  and  C_3
REMARK    3  A    between atoms: C_3  and  C_4
REMARK    4  A    between atoms: C_4  and  O_5
REMARK    5  A    between atoms: O_5  and  C_6
REMARK    6  A    between atoms: N_16  and  C_17
REMARK    7  A    between atoms: C_17  and  C_18
REMARK    8  A    between atoms: C_22  and  C_23
REMARK    9  A    between atoms: C_23  and  N_24
REMARK                            x       y       z     vdW  Elec       q    Type
REMARK                         _______ _______ _______ _____ _____    ______ ____
ROOT
ATOM      1  C   UNL     1      -1.581  12.062  22.495  0.00  0.00    +0.000 A 
ATOM      2  N   UNL     1      -1.214  11.142  23.401  0.00  0.00    +0.000 NA
ATOM      3  C   UNL     1      -0.456  10.139  22.946  0.00  0.00    +0.000 A 
ATOM      4  N   UNL     1      -0.095   9.155  23.874  0.00  0.00    +0.000 N 
ATOM      5  C   UNL     1      -0.051  10.054  21.621  0.00  0.00    +0.000 A 
ATOM      6  N   UNL     1       0.757   9.004  21.186  0.00  0.00    +0.000 N 
ATOM      7  C   UNL     1       1.258   8.939  19.915  0.00  0.00    +0.000 A 
ATOM      8  O   UNL     1       1.936   7.994  19.537  0.00  0.00    +0.000 OA
ATOM      9  C   UNL     1       0.921  10.118  18.977  0.00  0.00    +0.000 A 
ATOM     10  O   UNL     1       1.495  10.189  17.895  0.00  0.00    +0.000 OA
ATOM     11  N   UNL     1      -0.065  11.010  19.402  0.00  0.00    +0.000 N 
ATOM     12  C   UNL     1      -0.499  11.042  20.757  0.00  0.00    +0.000 A 
ATOM     13  N   UNL     1      -1.286  12.043  21.184  0.00  0.00    +0.000 NA
ATOM     14  H   UNL     1      -0.469   9.427  24.781  0.00  0.00    +0.000 HD
ATOM     15  H   UNL     1       0.908   9.011  23.921  0.00  0.00    +0.000 HD
ATOM     16  H   UNL     1       0.961   8.231  21.808  0.00  0.00    +0.000 HD
ENDROOT
BRANCH   1  17
ATOM     17  O   UNL     1      -2.358  13.126  22.895  0.00  0.00    +0.000 OA
BRANCH  17  18
ATOM     18  C   UNL     1      -1.622  14.128  23.603  0.00  0.00    +0.000 C 
BRANCH  18  19
ATOM     19  C   UNL     1      -2.557  15.309  23.854  0.00  0.00    +0.000 C 
BRANCH  19  21
ATOM     20  C   UNL     1      -4.910  15.384  23.891  0.00  0.00    +0.000 C 
ATOM     21  O   UNL     1      -3.755  15.169  23.088  0.00  0.00    +0.000 OA
ENDBRANCH  19  21
ENDBRANCH  18  19
ENDBRANCH  17  18
ENDBRANCH   1  17
BRANCH  11  22
ATOM     22  C   UNL     1      -0.690  11.890  18.403  0.00  0.00    +0.000 C 
BRANCH  22  23
ATOM     23  C   UNL     1      -1.916  11.240  17.769  0.00  0.00    +0.000 A 
ATOM     24  C   UNL     1      -1.789  10.209  16.832  0.00  0.00    +0.000 A 
ATOM     25  C   UNL     1      -2.913   9.739  16.147  0.00  0.00    +0.000 A 
ATOM     26  C   UNL     1      -4.165  10.331  16.344  0.00  0.00    +0.000 A 
ATOM     27  C   UNL     1      -4.322  11.355  17.284  0.00  0.00    +0.000 A 
ATOM     28  C   UNL     1      -3.207  11.721  18.053  0.00  0.00    +0.000 A 
BRANCH  27  29
ATOM     29  C   UNL     1      -5.562  12.229  17.334  0.00  0.00    +0.000 C 
BRANCH  29  30
ATOM     30  N   UNL     1      -6.796  11.738  17.933  0.00  0.00    +0.000 NA
ATOM     31  C   UNL     1      -7.595  12.707  18.670  0.00  0.00    +0.000 C 
ATOM     32  C   UNL     1      -7.320  12.406  20.128  0.00  0.00    +0.000 C 
ATOM     33  C   UNL     1      -7.089  10.905  20.155  0.00  0.00    +0.000 C 
ATOM     34  C   UNL     1      -6.679  10.530  18.737  0.00  0.00    +0.000 C 
ENDBRANCH  29  30
ENDBRANCH  27  29
ENDBRANCH  22  23
ENDBRANCH  11  22
TORSDOF 8
ENDMDL
