MODEL 1
REMARK VINA RESULT:      -7.0      0.000      0.000
REMARK  Name = 
REMARK  7 active torsions:
REMARK  status: ('A' for Active; 'I' for Inactive)
REMARK    1  A    between atoms: C_1  and  O_2
REMARK    2  A    between atoms: O_2  and  C_3
REMARK    3  A    between atoms: C_6  and  N_7
REMARK    4  A    between atoms: C_8  and  C_10
REMARK    5  A    between atoms: C_14  and  C_16
REMARK    6  A    between atoms: C_23  and  O_24
REMARK    7  A    between atoms: O_24  and  C_25
REMARK                            x       y       z     vdW  Elec       q    Type
REMARK                         _______ _______ _______ _____ _____    ______ ____
ROOT
ATOM      1  N   UNL     1       2.008   7.612  20.853  0.00  0.00    +0.000 N 
ATOM      2  C   UNL     1       0.866   8.181  21.388  0.00  0.00    +0.000 C 
ATOM      3  O   UNL     1      -0.275   7.760  21.222  0.00  0.00    +0.000 OA
ATOM      4  H   UNL     1       2.911   8.030  21.034  0.00  0.00    +0.000 HD
ENDROOT
BRANCH   2   5
ATOM      5  C   UNL     1       1.169   9.485  22.142  0.00  0.00    +0.000 C 
ATOM      6  C   UNL     1       0.203   9.780  23.299  0.00  0.00    +0.000 C 
ATOM      7  C   UNL     1      -1.168  10.299  22.857  0.00  0.00    +0.000 C 
ATOM      8  N   UNL     1      -1.057  11.350  21.838  0.00  0.00    +0.000 N 
ATOM      9  C   UNL     1      -1.913  12.460  21.711  0.00  0.00    +0.000 C 
ATOM     10  O   UNL     1      -1.928  13.119  20.667  0.00  0.00    +0.000 OA
ATOM     11  C   UNL     1      -0.223  10.993  20.694  0.00  0.00    +0.000 C 
ATOM     12  C   UNL     1       1.188  10.679  21.180  0.00  0.00    +0.000 C 
BRANCH   9  13
ATOM     13  C   UNL     1      -2.788  12.814  22.812  0.00  0.00    +0.000 A 
ATOM     14  C   UNL     1      -2.561  13.632  23.903  0.00  0.00    +0.000 A 
ATOM     15  C   UNL     1      -3.746  13.625  24.678  0.00  0.00    +0.000 A 
ATOM     16  C   UNL     1      -4.609  12.767  24.041  0.00  0.00    +0.000 A 
ATOM     17  O   UNL     1      -4.026  12.239  22.936  0.00  0.00    +0.000 OA
ENDBRANCH   9  13
ENDBRANCH   2   5
BRANCH   1  21
ATOM     18  C   UNL     1       1.713   4.055  18.635  0.00  0.00    +0.000 A 
ATOM     19  C   UNL     1       1.266   4.121  19.955  0.00  0.00    +0.000 A 
ATOM     20  C   UNL     1       1.417   5.301  20.702  0.00  0.00    +0.000 A 
ATOM     21  C   UNL     1       2.023   6.409  20.120  0.00  0.00    +0.000 A 
ATOM     22  C   UNL     1       2.453   6.367  18.781  0.00  0.00    +0.000 A 
ATOM     23  C   UNL     1       2.312   5.173  18.052  0.00  0.00    +0.000 A 
BRANCH  18  25
ATOM     24  C   UNL     1       2.592   2.088  17.619  0.00  0.00    +0.000 C 
ATOM     25  O   UNL     1       1.466   2.857  18.019  0.00  0.00    +0.000 OA
ENDBRANCH  18  25
BRANCH  22  26
ATOM     26  O   UNL     1       2.900   7.547  18.239  0.00  0.00    +0.000 OA
ATOM     27  C   UNL     1       1.904   8.412  17.706  0.00  0.00    +0.000 C 
ENDBRANCH  22  26
ENDBRANCH   1  21
TORSDOF 5
ENDMDL
MODEL 2
REMARK VINA RESULT:      -6.7      1.956      3.040
REMARK  Name = 
REMARK  7 active torsions:
REMARK  status: ('A' for Active; 'I' for Inactive)
REMARK    1  A    between atoms: C_1  and  O_2
REMARK    2  A    between atoms: O_2  and  C_3
REMARK    3  A    between atoms: C_6  and  N_7
REMARK    4  A    between atoms: C_8  and  C_10
REMARK    5  A    between atoms: C_14  and  C_16
REMARK    6  A    between atoms: C_23  and  O_24
REMARK    7  A    between atoms: O_24  and  C_25
REMARK                            x       y       z     vdW  Elec       q    Type
REMARK                         _______ _______ _______ _____ _____    ______ ____
ROOT
ATOM      1  N   UNL     1       1.255  10.048  19.242  0.00  0.00    +0.000 N 
ATOM      2  C   UNL     1       0.150  10.526  18.560  0.00  0.00    +0.000 C 
ATOM      3  O   UNL     1      -0.510   9.884  17.750  0.00  0.00    +0.000 OA
ATOM      4  H   UNL     1       1.748  10.649  19.888  0.00  0.00    +0.000 HD
ENDROOT
BRANCH   2   5
ATOM      5  C   UNL     1      -0.110  12.013  18.852  0.00  0.00    +0.000 C 
ATOM      6  C   UNL     1      -0.109  12.369  20.345  0.00  0.00    +0.000 C 
ATOM      7  C   UNL     1      -1.380  11.952  21.090  0.00  0.00    +0.000 C 
ATOM      8  N   UNL     1      -2.596  12.313  20.351  0.00  0.00    +0.000 N 
ATOM      9  C   UNL     1      -3.813  12.723  20.928  0.00  0.00    +0.000 C 
ATOM     10  O   UNL     1      -4.852  12.718  20.261  0.00  0.00    +0.000 OA
ATOM     11  C   UNL     1      -2.614  11.858  18.964  0.00  0.00    +0.000 C 
ATOM     12  C   UNL     1      -1.430  12.469  18.220  0.00  0.00    +0.000 C 
BRANCH   9  13
ATOM     13  C   UNL     1      -3.839  13.137  22.317  0.00  0.00    +0.000 A 
ATOM     14  C   UNL     1      -3.528  14.356  22.890  0.00  0.00    +0.000 A 
ATOM     15  C   UNL     1      -3.714  14.216  24.286  0.00  0.00    +0.000 A 
ATOM     16  C   UNL     1      -4.080  12.908  24.489  0.00  0.00    +0.000 A 
ATOM     17  O   UNL     1      -4.118  12.237  23.312  0.00  0.00    +0.000 OA
ENDBRANCH   9  13
ENDBRANCH   2   5
BRANCH   1  21
ATOM     18  C   UNL     1       2.948   6.207  19.026  0.00  0.00    +0.000 A 
ATOM     19  C   UNL     1       3.001   7.081  17.940  0.00  0.00    +0.000 A 
ATOM     20  C   UNL     1       2.387   8.343  18.007  0.00  0.00    +0.000 A 
ATOM     21  C   UNL     1       1.716   8.718  19.165  0.00  0.00    +0.000 A 
ATOM     22  C   UNL     1       1.677   7.859  20.279  0.00  0.00    +0.000 A 
ATOM     23  C   UNL     1       2.280   6.592  20.189  0.00  0.00    +0.000 A 
BRANCH  18  25
ATOM     24  C   UNL     1       3.127   3.881  19.506  0.00  0.00    +0.000 C 
ATOM     25  O   UNL     1       3.620   5.030  18.832  0.00  0.00    +0.000 OA
ENDBRANCH  18  25
BRANCH  22  26
ATOM     26  O   UNL     1       1.126   8.366  21.431  0.00  0.00    +0.000 OA
ATOM     27  C   UNL     1      -0.288   8.267  21.550  0.00  0.00    +0.000 C 
ENDBRANCH  22  26
ENDBRANCH   1  21
TORSDOF 5
ENDMDL
MODEL 3
REMARK VINA RESULT:      -6.5      3.529      8.814
REMARK  Name = 
REMARK  7 active torsions:
REMARK  status: ('A' for Active; 'I' for Inactive)
REMARK    1  A    between atoms: C_1  and  O_2
REMARK    2  A    between atoms: O_2  and  C_3
REMARK    3  A    between atoms: C_6  and  N_7
REMARK    4  A    between atoms: C_8  and  C_10
REMARK    5  A    between atoms: C_14  and  C_16
REMARK    6  A    between atoms: C_23  and  O_24
REMARK    7  A    between atoms: O_24  and  C_25
REMARK                            x       y       z     vdW  Elec       q    Type
REMARK                         _______ _______ _______ _____ _____    ______ ____
ROOT
ATOM      1  N   UNL     1      -1.214  11.229  18.441  0.00  0.00    +0.000 N 
ATOM      2  C   UNL     1      -0.633  10.273  19.255  0.00  0.00    +0.000 C 
ATOM      3  O   UNL     1      -1.249   9.444  19.918  0.00  0.00    +0.000 OA
ATOM      4  H   UNL     1      -0.631  11.881  17.933  0.00  0.00    +0.000 HD
ENDROOT
BRANCH   2   5
ATOM      5  C   UNL     1       0.894  10.425  19.326  0.00  0.00    +0.000 C 
ATOM      6  C   UNL     1       1.627  10.004  18.044  0.00  0.00    +0.000 C 
ATOM      7  C   UNL     1       1.739   8.488  17.854  0.00  0.00    +0.000 C 
ATOM      8  N   UNL     1       2.167   7.809  19.084  0.00  0.00    +0.000 N 
ATOM      9  C   UNL     1       2.993   6.671  19.145  0.00  0.00    +0.000 C 
ATOM     10  O   UNL     1       3.055   6.002  20.180  0.00  0.00    +0.000 OA
ATOM     11  C   UNL     1       1.374   8.145  20.262  0.00  0.00    +0.000 C 
ATOM     12  C   UNL     1       1.464   9.646  20.517  0.00  0.00    +0.000 C 
BRANCH   9  13
ATOM     13  C   UNL     1       3.758   6.283  17.976  0.00  0.00    +0.000 A 
ATOM     14  C   UNL     1       3.865   5.055  17.348  0.00  0.00    +0.000 A 
ATOM     15  C   UNL     1       4.751   5.226  16.257  0.00  0.00    +0.000 A 
ATOM     16  C   UNL     1       5.171   6.533  16.311  0.00  0.00    +0.000 A 
ATOM     17  O   UNL     1       4.610   7.168  17.369  0.00  0.00    +0.000 OA
ENDBRANCH   9  13
ENDBRANCH   2   5
BRANCH   1  21
ATOM     18  C   UNL     1      -5.299  11.832  17.655  0.00  0.00    +0.000 A 
ATOM     19  C   UNL     1      -4.731  12.229  18.865  0.00  0.00    +0.000 A 
ATOM     20  C   UNL     1      -3.376  11.976  19.136  0.00  0.00    +0.000 A 
ATOM     21  C   UNL     1      -2.599  11.318  18.189  0.00  0.00    +0.000 A 
ATOM     22  C   UNL     1      -3.150  10.936  16.953  0.00  0.00    +0.000 A 
ATOM     23  C   UNL     1      -4.512  11.180  16.704  0.00  0.00    +0.000 A 
BRANCH  18  25
ATOM     24  C   UNL     1      -7.291  12.653  18.670  0.00  0.00    +0.000 C 
ATOM     25  O   UNL     1      -6.616  12.177  17.514  0.00  0.00    +0.000 OA
ENDBRANCH  18  25
BRANCH  22  26
ATOM     26  O   UNL     1      -2.279  10.430  16.019  0.00  0.00    +0.000 OA
ATOM     27  C   UNL     1      -2.830  10.123  14.744  0.00  0.00    +0.000 C 
ENDBRANCH  22  26
ENDBRANCH   1  21
TORSDOF 5
ENDMDL
MODEL 4
REMARK VINA RESULT:      -6.4      2.954      8.617
REMARK  Name = 
REMARK  7 active torsions:
REMARK  status: ('A' for Active; 'I' for Inactive)
REMARK    1  A    between atoms: C_1  and  O_2
REMARK    2  A    between atoms: O_2  and  C_3
REMARK    3  A    between atoms: C_6  and  N_7
REMARK    4  A    between atoms: C_8  and  C_10
REMARK    5  A    between atoms: C_14  and  C_16
REMARK    6  A    between atoms: C_23  and  O_24
REMARK    7  A    between atoms: O_24  and  C_25
REMARK                            x       y       z     vdW  Elec       q    Type
REMARK                         _______ _______ _______ _____ _____    ______ ____
ROOT
ATOM      1  N   UNL     1      -0.523  10.598  18.768  0.00  0.00    +0.000 N 
ATOM      2  C   UNL     1      -0.129   9.830  19.850  0.00  0.00    +0.000 C 
ATOM      3  O   UNL     1      -0.887   9.356  20.690  0.00  0.00    +0.000 OA
ATOM      4  H   UNL     1       0.170  10.957  18.125  0.00  0.00    +0.000 HD
ENDROOT
BRANCH   2   5
ATOM      5  C   UNL     1       1.400   9.717  19.951  0.00  0.00    +0.000 C 
ATOM      6  C   UNL     1       2.079   9.223  18.666  0.00  0.00    +0.000 C 
ATOM      7  C   UNL     1       1.937   7.718  18.419  0.00  0.00    +0.000 C 
ATOM      8  N   UNL     1       2.215   6.933  19.628  0.00  0.00    +0.000 N 
ATOM      9  C   UNL     1       2.834   5.669  19.658  0.00  0.00    +0.000 C 
ATOM     10  O   UNL     1       2.759   4.962  20.667  0.00  0.00    +0.000 OA
ATOM     11  C   UNL     1       1.465   7.356  20.806  0.00  0.00    +0.000 C 
ATOM     12  C   UNL     1       1.803   8.810  21.120  0.00  0.00    +0.000 C 
BRANCH   9  13
ATOM     13  C   UNL     1       3.548   5.198  18.487  0.00  0.00    +0.000 A 
ATOM     14  C   UNL     1       3.189   4.252  17.545  0.00  0.00    +0.000 A 
ATOM     15  C   UNL     1       4.255   4.168  16.617  0.00  0.00    +0.000 A 
ATOM     16  C   UNL     1       5.222   5.031  17.073  0.00  0.00    +0.000 A 
ATOM     17  O   UNL     1       4.823   5.626  18.223  0.00  0.00    +0.000 OA
ENDBRANCH   9  13
ENDBRANCH   2   5
BRANCH   1  21
ATOM     18  C   UNL     1      -4.615  11.106  17.954  0.00  0.00    +0.000 A 
ATOM     19  C   UNL     1      -3.888  10.066  17.374  0.00  0.00    +0.000 A 
ATOM     20  C   UNL     1      -2.510   9.938  17.614  0.00  0.00    +0.000 A 
ATOM     21  C   UNL     1      -1.867  10.860  18.432  0.00  0.00    +0.000 A 
ATOM     22  C   UNL     1      -2.592  11.898  19.046  0.00  0.00    +0.000 A 
ATOM     23  C   UNL     1      -3.967  12.024  18.781  0.00  0.00    +0.000 A 
BRANCH  18  25
ATOM     24  C   UNL     1      -6.835  10.648  18.687  0.00  0.00    +0.000 C 
ATOM     25  O   UNL     1      -5.953  11.085  17.662  0.00  0.00    +0.000 OA
ENDBRANCH  18  25
BRANCH  22  26
ATOM     26  O   UNL     1      -1.912  12.670  19.956  0.00  0.00    +0.000 OA
ATOM     27  C   UNL     1      -2.339  12.571  21.310  0.00  0.00    +0.000 C 
ENDBRANCH  22  26
ENDBRANCH   1  21
TORSDOF 5
ENDMDL
MODEL 5
REMARK VINA RESULT:      -6.4      2.063      3.261
REMARK  Name = 
REMARK  7 active torsions:
REMARK  status: ('A' for Active; 'I' for Inactive)
REMARK    1  A    between atoms: C_1  and  O_2
REMARK    2  A    between atoms: O_2  and  C_3
REMARK    3  A    between atoms: C_6  and  N_7
REMARK    4  A    between atoms: C_8  and  C_10
REMARK    5  A    between atoms: C_14  and  C_16
REMARK    6  A    between atoms: C_23  and  O_24
REMARK    7  A    between atoms: O_24  and  C_25
REMARK                            x       y       z     vdW  Elec       q    Type
REMARK                         _______ _______ _______ _____ _____    ______ ____
ROOT
ATOM      1  N   UNL     1       1.121  10.071  19.179  0.00  0.00    +0.000 N 
ATOM      2  C   UNL     1       0.036  10.477  18.423  0.00  0.00    +0.000 C 
ATOM      3  O   UNL     1      -0.584   9.764  17.640  0.00  0.00    +0.000 OA
ATOM      4  H   UNL     1       1.580  10.728  19.795  0.00  0.00    +0.000 HD
ENDROOT
BRANCH   2   5
ATOM      5  C   UNL     1      -0.257  11.977  18.591  0.00  0.00    +0.000 C 
ATOM      6  C   UNL     1      -0.110  12.487  20.031  0.00  0.00    +0.000 C 
ATOM      7  C   UNL     1      -1.274  12.109  20.953  0.00  0.00    +0.000 C 
ATOM      8  N   UNL     1      -2.577  12.350  20.322  0.00  0.00    +0.000 N 
ATOM      9  C   UNL     1      -3.742  12.777  20.988  0.00  0.00    +0.000 C 
ATOM     10  O   UNL     1      -4.845  12.668  20.445  0.00  0.00    +0.000 OA
ATOM     11  C   UNL     1      -2.725  11.752  18.999  0.00  0.00    +0.000 C 
ATOM     12  C   UNL     1      -1.657  12.320  18.069  0.00  0.00    +0.000 C 
BRANCH   9  13
ATOM     13  C   UNL     1      -3.636  13.333  22.322  0.00  0.00    +0.000 A 
ATOM     14  C   UNL     1      -3.874  12.749  23.553  0.00  0.00    +0.000 A 
ATOM     15  C   UNL     1      -3.628  13.740  24.534  0.00  0.00    +0.000 A 
ATOM     16  C   UNL     1      -3.302  14.882  23.845  0.00  0.00    +0.000 A 
ATOM     17  O   UNL     1      -3.344  14.659  22.509  0.00  0.00    +0.000 OA
ENDBRANCH   9  13
ENDBRANCH   2   5
BRANCH   1  21
ATOM     18  C   UNL     1       2.874   6.256  19.359  0.00  0.00    +0.000 A 
ATOM     19  C   UNL     1       3.079   7.093  18.262  0.00  0.00    +0.000 A 
ATOM     20  C   UNL     1       2.447   8.345  18.191  0.00  0.00    +0.000 A 
ATOM     21  C   UNL     1       1.605   8.748  19.221  0.00  0.00    +0.000 A 
ATOM     22  C   UNL     1       1.409   7.927  20.347  0.00  0.00    +0.000 A 
ATOM     23  C   UNL     1       2.035   6.669  20.394  0.00  0.00    +0.000 A 
BRANCH  18  25
ATOM     24  C   UNL     1       4.885   5.137  18.746  0.00  0.00    +0.000 C 
ATOM     25  O   UNL     1       3.582   5.085  19.311  0.00  0.00    +0.000 OA
ENDBRANCH  18  25
BRANCH  22  26
ATOM     26  O   UNL     1       0.686   8.464  21.384  0.00  0.00    +0.000 OA
ATOM     27  C   UNL     1       1.438   9.079  22.424  0.00  0.00    +0.000 C 
ENDBRANCH  22  26
ENDBRANCH   1  21
TORSDOF 5
ENDMDL
MODEL 6
REMARK VINA RESULT:      -6.4      1.860      2.865
REMARK  Name = 
REMARK  7 active torsions:
REMARK  status: ('A' for Active; 'I' for Inactive)
REMARK    1  A    between atoms: C_1  and  O_2
REMARK    2  A    between atoms: O_2  and  C_3
REMARK    3  A    between atoms: C_6  and  N_7
REMARK    4  A    between atoms: C_8  and  C_10
REMARK    5  A    between atoms: C_14  and  C_16
REMARK    6  A    between atoms: C_23  and  O_24
REMARK    7  A    between atoms: O_24  and  C_25
REMARK                            x       y       z     vdW  Elec       q    Type
REMARK                         _______ _______ _______ _____ _____    ______ ____
ROOT
ATOM      1  N   UNL     1       2.189   6.383  20.217  0.00  0.00    +0.000 N 
ATOM      2  C   UNL     1       1.670   7.666  20.199  0.00  0.00    +0.000 C 
ATOM      3  O   UNL     1       1.759   8.448  19.258  0.00  0.00    +0.000 OA
ATOM      4  H   UNL     1       2.077   5.806  21.040  0.00  0.00    +0.000 HD
ENDROOT
BRANCH   2   5
ATOM      5  C   UNL     1       1.047   8.057  21.548  0.00  0.00    +0.000 C 
ATOM      6  C   UNL     1      -0.459   8.344  21.484  0.00  0.00    +0.000 C 
ATOM      7  C   UNL     1      -0.814   9.703  20.873  0.00  0.00    +0.000 C 
ATOM      8  N   UNL     1       0.017  10.785  21.416  0.00  0.00    +0.000 N 
ATOM      9  C   UNL     1      -0.408  12.107  21.646  0.00  0.00    +0.000 C 
ATOM     10  O   UNL     1       0.419  13.007  21.817  0.00  0.00    +0.000 OA
ATOM     11  C   UNL     1       1.453  10.528  21.355  0.00  0.00    +0.000 C 
ATOM     12  C   UNL     1       1.770   9.266  22.152  0.00  0.00    +0.000 C 
BRANCH   9  13
ATOM     13  C   UNL     1      -1.827  12.405  21.666  0.00  0.00    +0.000 A 
ATOM     14  C   UNL     1      -2.738  12.336  22.704  0.00  0.00    +0.000 A 
ATOM     15  C   UNL     1      -3.993  12.727  22.178  0.00  0.00    +0.000 A 
ATOM     16  C   UNL     1      -3.786  12.965  20.841  0.00  0.00    +0.000 A 
ATOM     17  O   UNL     1      -2.491  12.733  20.513  0.00  0.00    +0.000 OA
ENDBRANCH   9  13
ENDBRANCH   2   5
BRANCH   1  21
ATOM     18  C   UNL     1       4.279   4.424  17.142  0.00  0.00    +0.000 A 
ATOM     19  C   UNL     1       4.790   5.575  17.742  0.00  0.00    +0.000 A 
ATOM     20  C   UNL     1       4.058   6.249  18.733  0.00  0.00    +0.000 A 
ATOM     21  C   UNL     1       2.811   5.766  19.113  0.00  0.00    +0.000 A 
ATOM     22  C   UNL     1       2.294   4.591  18.537  0.00  0.00    +0.000 A 
ATOM     23  C   UNL     1       3.030   3.939  17.533  0.00  0.00    +0.000 A 
BRANCH  18  25
ATOM     24  C   UNL     1       6.447   4.348  16.157  0.00  0.00    +0.000 C 
ATOM     25  O   UNL     1       5.116   3.853  16.221  0.00  0.00    +0.000 OA
ENDBRANCH  18  25
BRANCH  22  26
ATOM     26  O   UNL     1       1.129   4.101  19.075  0.00  0.00    +0.000 OA
ATOM     27  C   UNL     1       1.243   2.906  19.840  0.00  0.00    +0.000 C 
ENDBRANCH  22  26
ENDBRANCH   1  21
TORSDOF 5
ENDMDL
MODEL 7
REMARK VINA RESULT:      -6.3      2.660      3.311
REMARK  Name = 
REMARK  7 active torsions:
REMARK  status: ('A' for Active; 'I' for Inactive)
REMARK    1  A    between atoms: C_1  and  O_2
REMARK    2  A    between atoms: O_2  and  C_3
REMARK    3  A    between atoms: C_6  and  N_7
REMARK    4  A    between atoms: C_8  and  C_10
REMARK    5  A    between atoms: C_14  and  C_16
REMARK    6  A    between atoms: C_23  and  O_24
REMARK    7  A    between atoms: O_24  and  C_25
REMARK                            x       y       z     vdW  Elec       q    Type
REMARK                         _______ _______ _______ _____ _____    ______ ____
ROOT
ATOM      1  N   UNL     1       2.273   7.529  17.930  0.00  0.00    +0.000 N 
ATOM      2  C   UNL     1       1.826   8.538  18.765  0.00  0.00    +0.000 C 
ATOM      3  O   UNL     1       1.764   8.464  19.988  0.00  0.00    +0.000 OA
ATOM      4  H   UNL     1       2.283   7.671  16.929  0.00  0.00    +0.000 HD
ENDROOT
BRANCH   2   5
ATOM      5  C   UNL     1       1.305   9.751  17.979  0.00  0.00    +0.000 C 
ATOM      6  C   UNL     1       1.883  11.095  18.443  0.00  0.00    +0.000 C 
ATOM      7  C   UNL     1       1.279  11.621  19.748  0.00  0.00    +0.000 C 
ATOM      8  N   UNL     1      -0.186  11.522  19.756  0.00  0.00    +0.000 N 
ATOM      9  C   UNL     1      -1.065  12.439  20.363  0.00  0.00    +0.000 C 
ATOM     10  O   UNL     1      -2.240  12.128  20.576  0.00  0.00    +0.000 OA
ATOM     11  C   UNL     1      -0.701  10.198  19.422  0.00  0.00    +0.000 C 
ATOM     12  C   UNL     1      -0.226   9.813  18.024  0.00  0.00    +0.000 C 
BRANCH   9  13
ATOM     13  C   UNL     1      -0.574  13.747  20.750  0.00  0.00    +0.000 A 
ATOM     14  C   UNL     1      -0.473  14.914  20.015  0.00  0.00    +0.000 A 
ATOM     15  C   UNL     1       0.084  15.894  20.872  0.00  0.00    +0.000 A 
ATOM     16  C   UNL     1       0.334  15.257  22.063  0.00  0.00    +0.000 A 
ATOM     17  O   UNL     1      -0.020  13.951  21.987  0.00  0.00    +0.000 OA
ENDBRANCH   9  13
ENDBRANCH   2   5
BRANCH   1  21
ATOM     18  C   UNL     1       3.703   3.732  19.028  0.00  0.00    +0.000 A 
ATOM     19  C   UNL     1       2.375   4.096  19.254  0.00  0.00    +0.000 A 
ATOM     20  C   UNL     1       1.923   5.386  18.929  0.00  0.00    +0.000 A 
ATOM     21  C   UNL     1       2.809   6.307  18.383  0.00  0.00    +0.000 A 
ATOM     22  C   UNL     1       4.145   5.946  18.124  0.00  0.00    +0.000 A 
ATOM     23  C   UNL     1       4.587   4.658  18.472  0.00  0.00    +0.000 A 
BRANCH  18  25
ATOM     24  C   UNL     1       3.626   1.430  18.422  0.00  0.00    +0.000 C 
ATOM     25  O   UNL     1       3.992   2.435  19.357  0.00  0.00    +0.000 OA
ENDBRANCH  18  25
BRANCH  22  26
ATOM     26  O   UNL     1       4.911   6.863  17.446  0.00  0.00    +0.000 OA
ATOM     27  C   UNL     1       5.318   6.496  16.133  0.00  0.00    +0.000 C 
ENDBRANCH  22  26
ENDBRANCH   1  21
TORSDOF 5
ENDMDL
MODEL 8
REMARK VINA RESULT:      -6.3      3.336      4.795
REMARK  Name = 
REMARK  7 active torsions:
REMARK  status: ('A' for Active; 'I' for Inactive)
REMARK    1  A    between atoms: C_1  and  O_2
REMARK    2  A    between atoms: O_2  and  C_3
REMARK    3  A    between atoms: C_6  and  N_7
REMARK    4  A    between atoms: C_8  and  C_10
REMARK    5  A    between atoms: C_14  and  C_16
REMARK    6  A    between atoms: C_23  and  O_24
REMARK    7  A    between atoms: O_24  and  C_25
REMARK                            x       y       z     vdW  Elec       q    Type
REMARK                         _______ _______ _______ _____ _____    ______ ____
ROOT
ATOM      1  N   UNL     1       0.894  10.581  18.875  0.00  0.00    +0.000 N 
ATOM      2  C   UNL     1      -0.424  10.945  18.665  0.00  0.00    +0.000 C 
ATOM      3  O   UNL     1      -1.354  10.161  18.508  0.00  0.00    +0.000 OA
ATOM      4  H   UNL     1       1.602  11.294  18.987  0.00  0.00    +0.000 HD
ENDROOT
BRANCH   2   5
ATOM      5  C   UNL     1      -0.591  12.467  18.542  0.00  0.00    +0.000 C 
ATOM      6  C   UNL     1       0.732  13.246  18.554  0.00  0.00    +0.000 C 
ATOM      7  C   UNL     1       1.370  13.380  19.939  0.00  0.00    +0.000 C 
ATOM      8  N   UNL     1       0.391  13.774  20.961  0.00  0.00    +0.000 N 
ATOM      9  C   UNL     1       0.651  14.609  22.064  0.00  0.00    +0.000 C 
ATOM     10  O   UNL     1      -0.133  14.644  23.017  0.00  0.00    +0.000 OA
ATOM     11  C   UNL     1      -0.806  12.939  21.000  0.00  0.00    +0.000 C 
ATOM     12  C   UNL     1      -1.508  13.006  19.647  0.00  0.00    +0.000 C 
BRANCH   9  13
ATOM     13  C   UNL     1       1.855  15.416  22.078  0.00  0.00    +0.000 A 
ATOM     14  C   UNL     1       2.107  16.651  21.510  0.00  0.00    +0.000 A 
ATOM     15  C   UNL     1       3.448  16.981  21.818  0.00  0.00    +0.000 A 
ATOM     16  C   UNL     1       3.951  15.910  22.514  0.00  0.00    +0.000 A 
ATOM     17  O   UNL     1       3.011  14.941  22.641  0.00  0.00    +0.000 OA
ENDBRANCH   9  13
ENDBRANCH   2   5
BRANCH   1  21
ATOM     18  C   UNL     1       2.519   6.729  19.307  0.00  0.00    +0.000 A 
ATOM     19  C   UNL     1       2.502   7.370  18.068  0.00  0.00    +0.000 A 
ATOM     20  C   UNL     1       1.910   8.636  17.927  0.00  0.00    +0.000 A 
ATOM     21  C   UNL     1       1.332   9.250  19.032  0.00  0.00    +0.000 A 
ATOM     22  C   UNL     1       1.366   8.629  20.294  0.00  0.00    +0.000 A 
ATOM     23  C   UNL     1       1.945   7.354  20.415  0.00  0.00    +0.000 A 
BRANCH  18  25
ATOM     24  C   UNL     1       4.394   5.440  18.601  0.00  0.00    +0.000 C 
ATOM     25  O   UNL     1       3.161   5.520  19.303  0.00  0.00    +0.000 OA
ENDBRANCH  18  25
BRANCH  22  26
ATOM     26  O   UNL     1       0.910   9.368  21.358  0.00  0.00    +0.000 OA
ATOM     27  C   UNL     1      -0.304   8.930  21.956  0.00  0.00    +0.000 C 
ENDBRANCH  22  26
ENDBRANCH   1  21
TORSDOF 5
ENDMDL
MODEL 9
REMARK VINA RESULT:      -6.2      3.262      4.655
REMARK  Name = 
REMARK  7 active torsions:
REMARK  status: ('A' for Active; 'I' for Inactive)
REMARK    1  A    between atoms: C_1  and  O_2
REMARK    2  A    between atoms: O_2  and  C_3
REMARK    3  A    between atoms: C_6  and  N_7
REMARK    4  A    between atoms: C_8  and  C_10
REMARK    5  A    between atoms: C_14  and  C_16
REMARK    6  A    between atoms: C_23  and  O_24
REMARK    7  A    between atoms: O_24  and  C_25
REMARK                            x       y       z     vdW  Elec       q    Type
REMARK                         _______ _______ _______ _____ _____    ______ ____
ROOT
ATOM      1  N   UNL     1       2.087   7.620  18.141  0.00  0.00    +0.000 N 
ATOM      2  C   UNL     1       1.704   8.366  19.241  0.00  0.00    +0.000 C 
ATOM      3  O   UNL     1       2.151   8.229  20.375  0.00  0.00    +0.000 OA
ATOM      4  H   UNL     1       1.661   7.793  17.241  0.00  0.00    +0.000 HD
ENDROOT
BRANCH   2   5
ATOM      5  C   UNL     1       0.559   9.336  18.911  0.00  0.00    +0.000 C 
ATOM      6  C   UNL     1       0.982  10.538  18.055  0.00  0.00    +0.000 C 
ATOM      7  C   UNL     1       1.741  11.622  18.827  0.00  0.00    +0.000 C 
ATOM      8  N   UNL     1       1.092  11.947  20.103  0.00  0.00    +0.000 N 
ATOM      9  C   UNL     1       1.047  13.223  20.697  0.00  0.00    +0.000 C 
ATOM     10  O   UNL     1       0.748  13.345  21.888  0.00  0.00    +0.000 OA
ATOM     11  C   UNL     1       0.808  10.789  20.944  0.00  0.00    +0.000 C 
ATOM     12  C   UNL     1      -0.118   9.837  20.193  0.00  0.00    +0.000 C 
BRANCH   9  13
ATOM     13  C   UNL     1       1.369  14.390  19.900  0.00  0.00    +0.000 A 
ATOM     14  C   UNL     1       0.562  15.166  19.088  0.00  0.00    +0.000 A 
ATOM     15  C   UNL     1       1.384  16.178  18.536  0.00  0.00    +0.000 A 
ATOM     16  C   UNL     1       2.652  15.933  19.003  0.00  0.00    +0.000 A 
ATOM     17  O   UNL     1       2.662  14.832  19.794  0.00  0.00    +0.000 OA
ENDBRANCH   9  13
ENDBRANCH   2   5
BRANCH   1  21
ATOM     18  C   UNL     1       5.327   4.956  18.415  0.00  0.00    +0.000 A 
ATOM     19  C   UNL     1       5.451   6.177  17.751  0.00  0.00    +0.000 A 
ATOM     20  C   UNL     1       4.346   7.035  17.622  0.00  0.00    +0.000 A 
ATOM     21  C   UNL     1       3.119   6.660  18.157  0.00  0.00    +0.000 A 
ATOM     22  C   UNL     1       2.985   5.445  18.854  0.00  0.00    +0.000 A 
ATOM     23  C   UNL     1       4.095   4.588  18.958  0.00  0.00    +0.000 A 
BRANCH  18  25
ATOM     24  C   UNL     1       7.563   4.647  17.656  0.00  0.00    +0.000 C 
ATOM     25  O   UNL     1       6.491   4.241  18.497  0.00  0.00    +0.000 OA
ENDBRANCH  18  25
BRANCH  22  26
ATOM     26  O   UNL     1       1.783   5.222  19.480  0.00  0.00    +0.000 OA
ATOM     27  C   UNL     1       1.845   4.620  20.767  0.00  0.00    +0.000 C 
ENDBRANCH  22  26
ENDBRANCH   1  21
TORSDOF 5
ENDMDL
