MODEL 1
REMARK VINA RESULT:      -7.6      0.000      0.000
REMARK  Name = 
REMARK  8 active torsions:
REMARK  status: ('A' for Active; 'I' for Inactive)
REMARK    1  A    between atoms: C_1  and  C_2
REMARK    2  A    between atoms: N_5  and  C_6
REMARK    3  A    between atoms: C_6  and  C_7
REMARK    4  A    between atoms: C_10  and  C_11
REMARK    5  A    between atoms: C_11  and  C_12
REMARK    6  A    between atoms: C_11  and  C_13
REMARK    7  A    between atoms: C_11  and  C_14
REMARK    8  A    between atoms: C_18  and  C_19
REMARK                            x       y       z     vdW  Elec       q    Type
REMARK                         _______ _______ _______ _____ _____    ______ ____
ROOT
ATOM      1  C   UNL     1       6.071   3.494  12.686  0.00  0.00    +0.000 C 
ATOM      2  C   UNL     1       6.038   4.037  14.090  0.00  0.00    +0.000 A 
ATOM      3  C   UNL     1       4.999   3.525  14.964  0.00  0.00    +0.000 A 
ATOM      4  C   UNL     1       4.888   3.970  16.219  0.00  0.00    +0.000 A 
ATOM      5  N   UNL     1       5.771   4.904  16.730  0.00  0.00    +0.000 N 
ATOM      6  C   UNL     1       6.809   5.440  15.968  0.00  0.00    +0.000 A 
ATOM      7  O   UNL     1       7.621   6.250  16.413  0.00  0.00    +0.000 OA
ATOM      8  C   UNL     1       6.908   4.961  14.551  0.00  0.00    +0.000 A 
ENDROOT
BRANCH   8   9
ATOM      9  C   UNL     1       7.936   5.512  13.734  0.00  0.00    +0.000 C 
ATOM     10  N   UNL     1       8.727   5.968  13.017  0.00  0.00    +0.000 NA
ENDBRANCH   8   9
BRANCH   5  11
ATOM     11  C   UNL     1       5.598   5.385  18.106  0.00  0.00    +0.000 C 
BRANCH  11  12
ATOM     12  C   UNL     1       4.872   4.371  18.927  0.00  0.00    +0.000 A 
ATOM     13  N   UNL     1       5.342   3.260  19.463  0.00  0.00    +0.000 NA
ATOM     14  C   UNL     1       4.247   2.703  20.070  0.00  0.00    +0.000 A 
ATOM     15  C   UNL     1       3.135   3.495  19.882  0.00  0.00    +0.000 A 
ATOM     16  O   UNL     1       3.539   4.590  19.162  0.00  0.00    +0.000 OA
BRANCH  15  17
ATOM     17  C   UNL     1       1.690   3.399  20.293  0.00  0.00    +0.000 C 
ATOM     18  C   UNL     1       0.887   2.682  19.195  0.00  0.00    +0.000 C 
ATOM     19  C   UNL     1       1.536   2.624  21.616  0.00  0.00    +0.000 C 
ATOM     20  C   UNL     1       1.107   4.810  20.498  0.00  0.00    +0.000 C 
ENDBRANCH  15  17
ENDBRANCH  11  12
ENDBRANCH   5  11
TORSDOF 4
ENDMDL
MODEL 2
REMARK VINA RESULT:      -6.9      1.065      1.462
REMARK  Name = 
REMARK  8 active torsions:
REMARK  status: ('A' for Active; 'I' for Inactive)
REMARK    1  A    between atoms: C_1  and  C_2
REMARK    2  A    between atoms: N_5  and  C_6
REMARK    3  A    between atoms: C_6  and  C_7
REMARK    4  A    between atoms: C_10  and  C_11
REMARK    5  A    between atoms: C_11  and  C_12
REMARK    6  A    between atoms: C_11  and  C_13
REMARK    7  A    between atoms: C_11  and  C_14
REMARK    8  A    between atoms: C_18  and  C_19
REMARK                            x       y       z     vdW  Elec       q    Type
REMARK                         _______ _______ _______ _____ _____    ______ ____
ROOT
ATOM      1  C   UNL     1       5.961   3.484  12.814  0.00  0.00    +0.000 C 
ATOM      2  C   UNL     1       6.038   4.032  14.214  0.00  0.00    +0.000 A 
ATOM      3  C   UNL     1       5.086   3.504  15.175  0.00  0.00    +0.000 A 
ATOM      4  C   UNL     1       5.073   3.953  16.434  0.00  0.00    +0.000 A 
ATOM      5  N   UNL     1       5.979   4.904  16.866  0.00  0.00    +0.000 N 
ATOM      6  C   UNL     1       6.938   5.456  16.017  0.00  0.00    +0.000 A 
ATOM      7  O   UNL     1       7.769   6.283  16.389  0.00  0.00    +0.000 OA
ATOM      8  C   UNL     1       6.926   4.974  14.597  0.00  0.00    +0.000 A 
ENDROOT
BRANCH   8   9
ATOM      9  C   UNL     1       7.870   5.540  13.695  0.00  0.00    +0.000 C 
ATOM     10  N   UNL     1       8.691   5.968  12.993  0.00  0.00    +0.000 NA
ENDBRANCH   8   9
BRANCH   5  11
ATOM     11  C   UNL     1       5.914   5.388  18.250  0.00  0.00    +0.000 C 
BRANCH  11  12
ATOM     12  C   UNL     1       4.517   5.302  18.770  0.00  0.00    +0.000 A 
ATOM     13  N   UNL     1       3.637   6.274  18.918  0.00  0.00    +0.000 NA
ATOM     14  C   UNL     1       2.546   5.645  19.460  0.00  0.00    +0.000 A 
ATOM     15  C   UNL     1       2.798   4.300  19.629  0.00  0.00    +0.000 A 
ATOM     16  O   UNL     1       4.066   4.068  19.161  0.00  0.00    +0.000 OA
BRANCH  15  17
ATOM     17  C   UNL     1       2.008   3.140  20.171  0.00  0.00    +0.000 C 
ATOM     18  C   UNL     1       0.519   3.517  20.242  0.00  0.00    +0.000 C 
ATOM     19  C   UNL     1       2.170   1.891  19.284  0.00  0.00    +0.000 C 
ATOM     20  C   UNL     1       2.502   2.785  21.587  0.00  0.00    +0.000 C 
ENDBRANCH  15  17
ENDBRANCH  11  12
ENDBRANCH   5  11
TORSDOF 4
ENDMDL
MODEL 3
REMARK VINA RESULT:      -6.4      3.797      6.095
REMARK  Name = 
REMARK  8 active torsions:
REMARK  status: ('A' for Active; 'I' for Inactive)
REMARK    1  A    between atoms: C_1  and  C_2
REMARK    2  A    between atoms: N_5  and  C_6
REMARK    3  A    between atoms: C_6  and  C_7
REMARK    4  A    between atoms: C_10  and  C_11
REMARK    5  A    between atoms: C_11  and  C_12
REMARK    6  A    between atoms: C_11  and  C_13
REMARK    7  A    between atoms: C_11  and  C_14
REMARK    8  A    between atoms: C_18  and  C_19
REMARK                            x       y       z     vdW  Elec       q    Type
REMARK                         _______ _______ _______ _____ _____    ______ ____
ROOT
ATOM      1  C   UNL     1       1.649   1.868  19.306  0.00  0.00    +0.000 C 
ATOM      2  C   UNL     1       2.279   3.199  18.989  0.00  0.00    +0.000 A 
ATOM      3  C   UNL     1       1.464   4.150  18.255  0.00  0.00    +0.000 A 
ATOM      4  C   UNL     1       1.954   5.346  17.917  0.00  0.00    +0.000 A 
ATOM      5  N   UNL     1       3.234   5.724  18.277  0.00  0.00    +0.000 N 
ATOM      6  C   UNL     1       4.083   4.882  18.996  0.00  0.00    +0.000 A 
ATOM      7  O   UNL     1       5.215   5.211  19.350  0.00  0.00    +0.000 OA
ATOM      8  C   UNL     1       3.539   3.529  19.344  0.00  0.00    +0.000 A 
ENDROOT
BRANCH   8   9
ATOM      9  C   UNL     1       4.391   2.632  20.049  0.00  0.00    +0.000 C 
ATOM     10  N   UNL     1       5.039   1.849  20.610  0.00  0.00    +0.000 NA
ENDBRANCH   8   9
BRANCH   5  11
ATOM     11  C   UNL     1       3.744   7.038  17.864  0.00  0.00    +0.000 C 
BRANCH  11  12
ATOM     12  C   UNL     1       2.709   8.092  18.083  0.00  0.00    +0.000 A 
ATOM     13  N   UNL     1       2.258   8.988  17.225  0.00  0.00    +0.000 NA
ATOM     14  C   UNL     1       1.357   9.715  17.959  0.00  0.00    +0.000 A 
ATOM     15  C   UNL     1       1.287   9.237  19.250  0.00  0.00    +0.000 A 
ATOM     16  O   UNL     1       2.145   8.170  19.330  0.00  0.00    +0.000 OA
BRANCH  15  17
ATOM     17  C   UNL     1       0.507   9.625  20.477  0.00  0.00    +0.000 C 
ATOM     18  C   UNL     1       1.102  10.907  21.083  0.00  0.00    +0.000 C 
ATOM     19  C   UNL     1      -0.977   9.869  20.141  0.00  0.00    +0.000 C 
ATOM     20  C   UNL     1       0.579   8.497  21.524  0.00  0.00    +0.000 C 
ENDBRANCH  15  17
ENDBRANCH  11  12
ENDBRANCH   5  11
TORSDOF 4
ENDMDL
MODEL 4
REMARK VINA RESULT:      -6.3      4.162      6.849
REMARK  Name = 
REMARK  8 active torsions:
REMARK  status: ('A' for Active; 'I' for Inactive)
REMARK    1  A    between atoms: C_1  and  C_2
REMARK    2  A    between atoms: N_5  and  C_6
REMARK    3  A    between atoms: C_6  and  C_7
REMARK    4  A    between atoms: C_10  and  C_11
REMARK    5  A    between atoms: C_11  and  C_12
REMARK    6  A    between atoms: C_11  and  C_13
REMARK    7  A    between atoms: C_11  and  C_14
REMARK    8  A    between atoms: C_18  and  C_19
REMARK                            x       y       z     vdW  Elec       q    Type
REMARK                         _______ _______ _______ _____ _____    ______ ____
ROOT
ATOM      1  C   UNL     1      -0.303   9.813  21.960  0.00  0.00    +0.000 C 
ATOM      2  C   UNL     1       0.544   9.247  20.851  0.00  0.00    +0.000 A 
ATOM      3  C   UNL     1       1.233   8.000  21.127  0.00  0.00    +0.000 A 
ATOM      4  C   UNL     1       2.021   7.441  20.203  0.00  0.00    +0.000 A 
ATOM      5  N   UNL     1       2.181   8.014  18.955  0.00  0.00    +0.000 N 
ATOM      6  C   UNL     1       1.546   9.203  18.596  0.00  0.00    +0.000 A 
ATOM      7  O   UNL     1       1.653   9.714  17.482  0.00  0.00    +0.000 OA
ATOM      8  C   UNL     1       0.689   9.842  19.648  0.00  0.00    +0.000 A 
ENDROOT
BRANCH   8   9
ATOM      9  C   UNL     1       0.052  11.075  19.327  0.00  0.00    +0.000 C 
ATOM     10  N   UNL     1      -0.412  12.113  19.092  0.00  0.00    +0.000 NA
ENDBRANCH   8   9
BRANCH   5  11
ATOM     11  C   UNL     1       3.075   7.381  17.978  0.00  0.00    +0.000 C 
BRANCH  11  12
ATOM     12  C   UNL     1       3.531   6.048  18.473  0.00  0.00    +0.000 A 
ATOM     13  N   UNL     1       4.748   5.674  18.818  0.00  0.00    +0.000 NA
ATOM     14  C   UNL     1       4.600   4.354  19.156  0.00  0.00    +0.000 A 
ATOM     15  C   UNL     1       3.287   3.961  19.004  0.00  0.00    +0.000 A 
ATOM     16  O   UNL     1       2.585   5.062  18.583  0.00  0.00    +0.000 OA
BRANCH  15  17
ATOM     17  C   UNL     1       2.544   2.668  19.206  0.00  0.00    +0.000 C 
ATOM     18  C   UNL     1       2.335   2.422  20.710  0.00  0.00    +0.000 C 
ATOM     19  C   UNL     1       1.173   2.697  18.505  0.00  0.00    +0.000 C 
ATOM     20  C   UNL     1       3.356   1.499  18.617  0.00  0.00    +0.000 C 
ENDBRANCH  15  17
ENDBRANCH  11  12
ENDBRANCH   5  11
TORSDOF 4
ENDMDL
MODEL 5
REMARK VINA RESULT:      -6.3      4.339      6.948
REMARK  Name = 
REMARK  8 active torsions:
REMARK  status: ('A' for Active; 'I' for Inactive)
REMARK    1  A    between atoms: C_1  and  C_2
REMARK    2  A    between atoms: N_5  and  C_6
REMARK    3  A    between atoms: C_6  and  C_7
REMARK    4  A    between atoms: C_10  and  C_11
REMARK    5  A    between atoms: C_11  and  C_12
REMARK    6  A    between atoms: C_11  and  C_13
REMARK    7  A    between atoms: C_11  and  C_14
REMARK    8  A    between atoms: C_18  and  C_19
REMARK                            x       y       z     vdW  Elec       q    Type
REMARK                         _______ _______ _______ _____ _____    ______ ____
ROOT
ATOM      1  C   UNL     1       0.589   1.825  18.734  0.00  0.00    +0.000 C 
ATOM      2  C   UNL     1       1.303   3.146  18.848  0.00  0.00    +0.000 A 
ATOM      3  C   UNL     1       1.578   3.848  17.608  0.00  0.00    +0.000 A 
ATOM      4  C   UNL     1       2.225   5.018  17.619  0.00  0.00    +0.000 A 
ATOM      5  N   UNL     1       2.624   5.605  18.806  0.00  0.00    +0.000 N 
ATOM      6  C   UNL     1       2.389   5.010  20.045  0.00  0.00    +0.000 A 
ATOM      7  O   UNL     1       2.712   5.530  21.113  0.00  0.00    +0.000 OA
ATOM      8  C   UNL     1       1.692   3.683  20.024  0.00  0.00    +0.000 A 
ENDROOT
BRANCH   8   9
ATOM      9  C   UNL     1       1.465   3.031  21.270  0.00  0.00    +0.000 C 
ATOM     10  N   UNL     1       1.241   2.453  22.251  0.00  0.00    +0.000 NA
ENDBRANCH   8   9
BRANCH   5  11
ATOM     11  C   UNL     1       3.355   6.878  18.773  0.00  0.00    +0.000 C 
BRANCH  11  12
ATOM     12  C   UNL     1       2.410   8.018  18.584  0.00  0.00    +0.000 A 
ATOM     13  N   UNL     1       2.132   8.678  17.475  0.00  0.00    +0.000 NA
ATOM     14  C   UNL     1       1.238   9.634  17.881  0.00  0.00    +0.000 A 
ATOM     15  C   UNL     1       0.999   9.528  19.235  0.00  0.00    +0.000 A 
ATOM     16  O   UNL     1       1.739   8.468  19.691  0.00  0.00    +0.000 OA
BRANCH  15  17
ATOM     17  C   UNL     1       0.145  10.285  20.216  0.00  0.00    +0.000 C 
ATOM     18  C   UNL     1      -1.141  10.762  19.522  0.00  0.00    +0.000 C 
ATOM     19  C   UNL     1      -0.232   9.405  21.423  0.00  0.00    +0.000 C 
ATOM     20  C   UNL     1       0.913  11.512  20.743  0.00  0.00    +0.000 C 
ENDBRANCH  15  17
ENDBRANCH  11  12
ENDBRANCH   5  11
TORSDOF 4
ENDMDL
MODEL 6
REMARK VINA RESULT:      -6.2      4.183      7.353
REMARK  Name = 
REMARK  8 active torsions:
REMARK  status: ('A' for Active; 'I' for Inactive)
REMARK    1  A    between atoms: C_1  and  C_2
REMARK    2  A    between atoms: N_5  and  C_6
REMARK    3  A    between atoms: C_6  and  C_7
REMARK    4  A    between atoms: C_10  and  C_11
REMARK    5  A    between atoms: C_11  and  C_12
REMARK    6  A    between atoms: C_11  and  C_13
REMARK    7  A    between atoms: C_11  and  C_14
REMARK    8  A    between atoms: C_18  and  C_19
REMARK                            x       y       z     vdW  Elec       q    Type
REMARK                         _______ _______ _______ _____ _____    ______ ____
ROOT
ATOM      1  C   UNL     1       0.872  11.290  18.298  0.00  0.00    +0.000 C 
ATOM      2  C   UNL     1       1.313   9.923  18.753  0.00  0.00    +0.000 A 
ATOM      3  C   UNL     1       1.994   9.097  17.772  0.00  0.00    +0.000 A 
ATOM      4  C   UNL     1       2.400   7.864  18.089  0.00  0.00    +0.000 A 
ATOM      5  N   UNL     1       2.212   7.350  19.359  0.00  0.00    +0.000 N 
ATOM      6  C   UNL     1       1.581   8.077  20.368  0.00  0.00    +0.000 A 
ATOM      7  O   UNL     1       1.428   7.649  21.511  0.00  0.00    +0.000 OA
ATOM      8  C   UNL     1       1.098   9.448  19.998  0.00  0.00    +0.000 A 
ENDROOT
BRANCH   8   9
ATOM      9  C   UNL     1       0.420  10.206  20.995  0.00  0.00    +0.000 C 
ATOM     10  N   UNL     1      -0.075  10.819  21.847  0.00  0.00    +0.000 NA
ENDBRANCH   8   9
BRANCH   5  11
ATOM     11  C   UNL     1       2.650   5.982  19.657  0.00  0.00    +0.000 C 
BRANCH  11  12
ATOM     12  C   UNL     1       3.492   5.448  18.546  0.00  0.00    +0.000 A 
ATOM     13  N   UNL     1       3.167   4.563  17.623  0.00  0.00    +0.000 NA
ATOM     14  C   UNL     1       4.316   4.418  16.890  0.00  0.00    +0.000 A 
ATOM     15  C   UNL     1       5.314   5.225  17.394  0.00  0.00    +0.000 A 
ATOM     16  O   UNL     1       4.779   5.912  18.453  0.00  0.00    +0.000 OA
BRANCH  15  17
ATOM     17  C   UNL     1       6.751   5.478  17.025  0.00  0.00    +0.000 C 
ATOM     18  C   UNL     1       6.963   5.172  15.533  0.00  0.00    +0.000 C 
ATOM     19  C   UNL     1       7.149   6.941  17.300  0.00  0.00    +0.000 C 
ATOM     20  C   UNL     1       7.675   4.569  17.858  0.00  0.00    +0.000 C 
ENDBRANCH  15  17
ENDBRANCH  11  12
ENDBRANCH   5  11
TORSDOF 4
ENDMDL
MODEL 7
REMARK VINA RESULT:      -6.2      6.287      8.507
REMARK  Name = 
REMARK  8 active torsions:
REMARK  status: ('A' for Active; 'I' for Inactive)
REMARK    1  A    between atoms: C_1  and  C_2
REMARK    2  A    between atoms: N_5  and  C_6
REMARK    3  A    between atoms: C_6  and  C_7
REMARK    4  A    between atoms: C_10  and  C_11
REMARK    5  A    between atoms: C_11  and  C_12
REMARK    6  A    between atoms: C_11  and  C_13
REMARK    7  A    between atoms: C_11  and  C_14
REMARK    8  A    between atoms: C_18  and  C_19
REMARK                            x       y       z     vdW  Elec       q    Type
REMARK                         _______ _______ _______ _____ _____    ______ ____
ROOT
ATOM      1  C   UNL     1       3.383   5.978  17.697  0.00  0.00    +0.000 C 
ATOM      2  C   UNL     1       2.659   7.076  18.431  0.00  0.00    +0.000 A 
ATOM      3  C   UNL     1       2.532   8.348  17.742  0.00  0.00    +0.000 A 
ATOM      4  C   UNL     1       1.921   9.380  18.331  0.00  0.00    +0.000 A 
ATOM      5  N   UNL     1       1.369   9.263  19.594  0.00  0.00    +0.000 N 
ATOM      6  C   UNL     1       1.431   8.075  20.323  0.00  0.00    +0.000 A 
ATOM      7  O   UNL     1       0.922   7.942  21.436  0.00  0.00    +0.000 OA
ATOM      8  C   UNL     1       2.146   6.930  19.671  0.00  0.00    +0.000 A 
ENDROOT
BRANCH   8   9
ATOM      9  C   UNL     1       2.256   5.713  20.401  0.00  0.00    +0.000 C 
ATOM     10  N   UNL     1       2.305   4.748  21.045  0.00  0.00    +0.000 NA
ENDBRANCH   8   9
BRANCH   5  11
ATOM     11  C   UNL     1       0.729  10.428  20.215  0.00  0.00    +0.000 C 
BRANCH  11  12
ATOM     12  C   UNL     1      -0.172  11.111  19.240  0.00  0.00    +0.000 A 
ATOM     13  N   UNL     1      -0.139  12.366  18.832  0.00  0.00    +0.000 NA
ATOM     14  C   UNL     1      -1.205  12.458  17.976  0.00  0.00    +0.000 A 
ATOM     15  C   UNL     1      -1.860  11.249  17.888  0.00  0.00    +0.000 A 
ATOM     16  O   UNL     1      -1.182  10.366  18.688  0.00  0.00    +0.000 OA
BRANCH  15  17
ATOM     17  C   UNL     1      -3.068  10.757  17.137  0.00  0.00    +0.000 C 
ATOM     18  C   UNL     1      -4.233  11.742  17.330  0.00  0.00    +0.000 C 
ATOM     19  C   UNL     1      -2.772  10.616  15.632  0.00  0.00    +0.000 C 
ATOM     20  C   UNL     1      -3.491   9.374  17.671  0.00  0.00    +0.000 C 
ENDBRANCH  15  17
ENDBRANCH  11  12
ENDBRANCH   5  11
TORSDOF 4
ENDMDL
MODEL 8
REMARK VINA RESULT:      -6.2      4.442      7.155
REMARK  Name = 
REMARK  8 active torsions:
REMARK  status: ('A' for Active; 'I' for Inactive)
REMARK    1  A    between atoms: C_1  and  C_2
REMARK    2  A    between atoms: N_5  and  C_6
REMARK    3  A    between atoms: C_6  and  C_7
REMARK    4  A    between atoms: C_10  and  C_11
REMARK    5  A    between atoms: C_11  and  C_12
REMARK    6  A    between atoms: C_11  and  C_13
REMARK    7  A    between atoms: C_11  and  C_14
REMARK    8  A    between atoms: C_18  and  C_19
REMARK                            x       y       z     vdW  Elec       q    Type
REMARK                         _______ _______ _______ _____ _____    ______ ____
ROOT
ATOM      1  C   UNL     1      -0.250  10.223  22.426  0.00  0.00    +0.000 C 
ATOM      2  C   UNL     1       0.453   9.599  21.249  0.00  0.00    +0.000 A 
ATOM      3  C   UNL     1       1.123   8.333  21.486  0.00  0.00    +0.000 A 
ATOM      4  C   UNL     1       1.788   7.722  20.500  0.00  0.00    +0.000 A 
ATOM      5  N   UNL     1       1.833   8.258  19.226  0.00  0.00    +0.000 N 
ATOM      6  C   UNL     1       1.206   9.461  18.904  0.00  0.00    +0.000 A 
ATOM      7  O   UNL     1       1.212   9.940  17.770  0.00  0.00    +0.000 OA
ATOM      8  C   UNL     1       0.490  10.158  20.022  0.00  0.00    +0.000 A 
ENDROOT
BRANCH   8   9
ATOM      9  C   UNL     1      -0.134  11.406  19.735  0.00  0.00    +0.000 C 
ATOM     10  N   UNL     1      -0.703  12.395  19.523  0.00  0.00    +0.000 NA
ENDBRANCH   8   9
BRANCH   5  11
ATOM     11  C   UNL     1       2.595   7.568  18.179  0.00  0.00    +0.000 C 
BRANCH  11  12
ATOM     12  C   UNL     1       3.092   6.250  18.675  0.00  0.00    +0.000 A 
ATOM     13  N   UNL     1       4.315   5.923  19.048  0.00  0.00    +0.000 NA
ATOM     14  C   UNL     1       4.211   4.595  19.373  0.00  0.00    +0.000 A 
ATOM     15  C   UNL     1       2.920   4.151  19.185  0.00  0.00    +0.000 A 
ATOM     16  O   UNL     1       2.185   5.226  18.755  0.00  0.00    +0.000 OA
BRANCH  15  17
ATOM     17  C   UNL     1       2.225   2.827  19.358  0.00  0.00    +0.000 C 
ATOM     18  C   UNL     1       0.860   2.864  18.652  0.00  0.00    +0.000 C 
ATOM     19  C   UNL     1       3.063   1.675  18.773  0.00  0.00    +0.000 C 
ATOM     20  C   UNL     1       2.004   2.543  20.857  0.00  0.00    +0.000 C 
ENDBRANCH  15  17
ENDBRANCH  11  12
ENDBRANCH   5  11
TORSDOF 4
ENDMDL
MODEL 9
REMARK VINA RESULT:      -6.1      4.497      7.944
REMARK  Name = 
REMARK  8 active torsions:
REMARK  status: ('A' for Active; 'I' for Inactive)
REMARK    1  A    between atoms: C_1  and  C_2
REMARK    2  A    between atoms: N_5  and  C_6
REMARK    3  A    between atoms: C_6  and  C_7
REMARK    4  A    between atoms: C_10  and  C_11
REMARK    5  A    between atoms: C_11  and  C_12
REMARK    6  A    between atoms: C_11  and  C_13
REMARK    7  A    between atoms: C_11  and  C_14
REMARK    8  A    between atoms: C_18  and  C_19
REMARK                            x       y       z     vdW  Elec       q    Type
REMARK                         _______ _______ _______ _____ _____    ______ ____
ROOT
ATOM      1  C   UNL     1      -0.156   9.123  22.687  0.00  0.00    +0.000 C 
ATOM      2  C   UNL     1       0.482   8.971  21.331  0.00  0.00    +0.000 A 
ATOM      3  C   UNL     1       1.376   7.842  21.153  0.00  0.00    +0.000 A 
ATOM      4  C   UNL     1       1.999   7.647  19.986  0.00  0.00    +0.000 A 
ATOM      5  N   UNL     1       1.789   8.491  18.911  0.00  0.00    +0.000 N 
ATOM      6  C   UNL     1       0.936   9.593  18.987  0.00  0.00    +0.000 A 
ATOM      7  O   UNL     1       0.716  10.339  18.034  0.00  0.00    +0.000 OA
ATOM      8  C   UNL     1       0.266   9.825  20.308  0.00  0.00    +0.000 A 
ENDROOT
BRANCH   8   9
ATOM      9  C   UNL     1      -0.586  10.959  20.430  0.00  0.00    +0.000 C 
ATOM     10  N   UNL     1      -1.242  11.916  20.482  0.00  0.00    +0.000 NA
ENDBRANCH   8   9
BRANCH   5  11
ATOM     11  C   UNL     1       2.512   8.256  17.655  0.00  0.00    +0.000 C 
BRANCH  11  12
ATOM     12  C   UNL     1       3.393   7.057  17.776  0.00  0.00    +0.000 A 
ATOM     13  N   UNL     1       3.042   5.792  17.913  0.00  0.00    +0.000 NA
ATOM     14  C   UNL     1       4.238   5.131  18.012  0.00  0.00    +0.000 A 
ATOM     15  C   UNL     1       5.289   6.019  17.932  0.00  0.00    +0.000 A 
ATOM     16  O   UNL     1       4.748   7.267  17.757  0.00  0.00    +0.000 OA
BRANCH  15  17
ATOM     17  C   UNL     1       6.787   5.887  17.986  0.00  0.00    +0.000 C 
ATOM     18  C   UNL     1       7.439   7.185  17.481  0.00  0.00    +0.000 C 
ATOM     19  C   UNL     1       7.272   5.606  19.421  0.00  0.00    +0.000 C 
ATOM     20  C   UNL     1       7.244   4.718  17.092  0.00  0.00    +0.000 C 
ENDBRANCH  15  17
ENDBRANCH  11  12
ENDBRANCH   5  11
TORSDOF 4
ENDMDL
