MODEL 1
REMARK VINA RESULT:      -6.4      0.000      0.000
REMARK  Name = 
REMARK  9 active torsions:
REMARK  status: ('A' for Active; 'I' for Inactive)
REMARK    1  A    between atoms: C_1  and  C_2
REMARK    2  A    between atoms: C_2  and  O_3
REMARK    3  A    between atoms: O_3  and  C_4
REMARK    4  A    between atoms: C_4  and  C_6
REMARK    5  A    between atoms: C_10  and  C_12
REMARK    6  A    between atoms: C_17  and  N_18
REMARK    7  A    between atoms: N_18  and  C_19
REMARK    8  A    between atoms: N_18  and  S_20
REMARK    9  A    between atoms: S_20  and  C_23
REMARK                            x       y       z     vdW  Elec       q    Type
REMARK                         _______ _______ _______ _____ _____    ______ ____
ROOT
ATOM      1  C   UNL     1       0.049  10.243  18.206  0.00  0.00    +0.000 A 
ATOM      2  C   UNL     1      -0.920   9.583  17.429  0.00  0.00    +0.000 A 
ATOM      3  C   UNL     1      -2.278   9.814  17.613  0.00  0.00    +0.000 A 
ATOM      4  C   UNL     1      -2.681  10.822  18.473  0.00  0.00    +0.000 A 
ATOM      5  C   UNL     1      -1.723  11.609  19.118  0.00  0.00    +0.000 A 
ATOM      6  C   UNL     1      -0.350  11.326  19.009  0.00  0.00    +0.000 A 
ENDROOT
BRANCH   1  11
ATOM      7  C   UNL     1       2.516   5.938  19.919  0.00  0.00    +0.000 C 
ATOM      8  C   UNL     1       1.644   6.932  20.678  0.00  0.00    +0.000 C 
ATOM      9  C   UNL     1       0.940   7.884  19.730  0.00  0.00    +0.000 C 
ATOM     10  N   UNL     1       1.827   8.559  18.773  0.00  0.00    +0.000 N 
ATOM     11  C   UNL     1       1.455   9.747  18.078  0.00  0.00    +0.000 C 
ATOM     12  O   UNL     1       2.216  10.330  17.308  0.00  0.00    +0.000 OA
ATOM     13  C   UNL     1       2.851   7.737  18.130  0.00  0.00    +0.000 C 
ATOM     14  C   UNL     1       3.506   6.698  19.039  0.00  0.00    +0.000 C 
BRANCH   7  15
ATOM     15  C   UNL     1       1.681   4.889  19.183  0.00  0.00    +0.000 C 
ATOM     16  O   UNL     1       1.655   4.750  17.970  0.00  0.00    +0.000 OA
BRANCH  15  17
ATOM     17  O   UNL     1       0.846   4.276  20.064  0.00  0.00    +0.000 OA
BRANCH  17  19
ATOM     18  C   UNL     1       1.691   2.735  21.676  0.00  0.00    +0.000 C 
ATOM     19  C   UNL     1       1.114   2.882  20.277  0.00  0.00    +0.000 C 
ENDBRANCH  17  19
ENDBRANCH  15  17
ENDBRANCH   7  15
ENDBRANCH   1  11
BRANCH   6  20
ATOM     20  N   UNL     1       0.564  12.275  19.577  0.00  0.00    +0.000 N 
ATOM     21  C   UNL     1       0.734  13.572  18.907  0.00  0.00    +0.000 C 
BRANCH  20  22
ATOM     22  S   UNL     1       1.065  12.140  21.186  0.00  0.00    +0.000 S 
ATOM     23  O   UNL     1       1.303  10.743  21.490  0.00  0.00    +0.000 OA
ATOM     24  O   UNL     1       2.074  13.142  21.466  0.00  0.00    +0.000 OA
BRANCH  22  25
ATOM     25  C   UNL     1      -0.410  12.608  22.066  0.00  0.00    +0.000 A 
ATOM     26  C   UNL     1      -1.238  11.615  22.600  0.00  0.00    +0.000 A 
ATOM     27  C   UNL     1      -2.422  11.975  23.240  0.00  0.00    +0.000 A 
ATOM     28  C   UNL     1      -2.759  13.322  23.375  0.00  0.00    +0.000 A 
ATOM     29  C   UNL     1      -1.903  14.314  22.889  0.00  0.00    +0.000 A 
ATOM     30  C   UNL     1      -0.724  13.959  22.233  0.00  0.00    +0.000 A 
ENDBRANCH  22  25
ENDBRANCH  20  22
ENDBRANCH   6  20
TORSDOF 7
ENDMDL
MODEL 2
REMARK VINA RESULT:      -6.2      4.119      7.540
REMARK  Name = 
REMARK  9 active torsions:
REMARK  status: ('A' for Active; 'I' for Inactive)
REMARK    1  A    between atoms: C_1  and  C_2
REMARK    2  A    between atoms: C_2  and  O_3
REMARK    3  A    between atoms: O_3  and  C_4
REMARK    4  A    between atoms: C_4  and  C_6
REMARK    5  A    between atoms: C_10  and  C_12
REMARK    6  A    between atoms: C_17  and  N_18
REMARK    7  A    between atoms: N_18  and  C_19
REMARK    8  A    between atoms: N_18  and  S_20
REMARK    9  A    between atoms: S_20  and  C_23
REMARK                            x       y       z     vdW  Elec       q    Type
REMARK                         _______ _______ _______ _____ _____    ______ ____
ROOT
ATOM      1  C   UNL     1      -0.685  11.908  22.359  0.00  0.00    +0.000 A 
ATOM      2  C   UNL     1      -0.788  10.698  23.068  0.00  0.00    +0.000 A 
ATOM      3  C   UNL     1      -0.290   9.508  22.550  0.00  0.00    +0.000 A 
ATOM      4  C   UNL     1       0.454   9.539  21.383  0.00  0.00    +0.000 A 
ATOM      5  C   UNL     1       0.719  10.762  20.760  0.00  0.00    +0.000 A 
ATOM      6  C   UNL     1       0.144  11.959  21.225  0.00  0.00    +0.000 A 
ENDROOT
BRANCH   1  11
ATOM      7  C   UNL     1      -5.542  13.718  21.528  0.00  0.00    +0.000 C 
ATOM      8  C   UNL     1      -4.451  13.348  20.528  0.00  0.00    +0.000 C 
ATOM      9  C   UNL     1      -3.297  12.637  21.208  0.00  0.00    +0.000 C 
ATOM     10  N   UNL     1      -2.748  13.343  22.373  0.00  0.00    +0.000 N 
ATOM     11  C   UNL     1      -1.455  13.068  22.907  0.00  0.00    +0.000 C 
ATOM     12  O   UNL     1      -0.984  13.689  23.858  0.00  0.00    +0.000 OA
ATOM     13  C   UNL     1      -3.712  13.928  23.305  0.00  0.00    +0.000 C 
ATOM     14  C   UNL     1      -4.938  14.561  22.649  0.00  0.00    +0.000 C 
BRANCH   7  15
ATOM     15  C   UNL     1      -6.325  12.493  22.001  0.00  0.00    +0.000 C 
ATOM     16  O   UNL     1      -6.774  12.349  23.128  0.00  0.00    +0.000 OA
BRANCH  15  17
ATOM     17  O   UNL     1      -6.279  11.529  21.042  0.00  0.00    +0.000 OA
BRANCH  17  19
ATOM     18  C   UNL     1      -7.149  11.469  18.823  0.00  0.00    +0.000 C 
ATOM     19  C   UNL     1      -7.495  11.359  20.300  0.00  0.00    +0.000 C 
ENDBRANCH  17  19
ENDBRANCH  15  17
ENDBRANCH   7  15
ENDBRANCH   1  11
BRANCH   6  20
ATOM     20  N   UNL     1       0.592  13.181  20.621  0.00  0.00    +0.000 N 
ATOM     21  C   UNL     1       1.730  13.886  21.227  0.00  0.00    +0.000 C 
BRANCH  20  22
ATOM     22  S   UNL     1       0.179  13.561  19.027  0.00  0.00    +0.000 S 
ATOM     23  O   UNL     1       1.389  13.650  18.234  0.00  0.00    +0.000 OA
ATOM     24  O   UNL     1      -0.928  12.727  18.600  0.00  0.00    +0.000 OA
BRANCH  22  25
ATOM     25  C   UNL     1      -0.441  15.221  19.198  0.00  0.00    +0.000 A 
ATOM     26  C   UNL     1      -0.001  16.215  18.319  0.00  0.00    +0.000 A 
ATOM     27  C   UNL     1      -0.440  17.527  18.484  0.00  0.00    +0.000 A 
ATOM     28  C   UNL     1      -1.342  17.836  19.503  0.00  0.00    +0.000 A 
ATOM     29  C   UNL     1      -1.822  16.831  20.345  0.00  0.00    +0.000 A 
ATOM     30  C   UNL     1      -1.375  15.518  20.194  0.00  0.00    +0.000 A 
ENDBRANCH  22  25
ENDBRANCH  20  22
ENDBRANCH   6  20
TORSDOF 7
ENDMDL
MODEL 3
REMARK VINA RESULT:      -6.2      3.082      7.664
REMARK  Name = 
REMARK  9 active torsions:
REMARK  status: ('A' for Active; 'I' for Inactive)
REMARK    1  A    between atoms: C_1  and  C_2
REMARK    2  A    between atoms: C_2  and  O_3
REMARK    3  A    between atoms: O_3  and  C_4
REMARK    4  A    between atoms: C_4  and  C_6
REMARK    5  A    between atoms: C_10  and  C_12
REMARK    6  A    between atoms: C_17  and  N_18
REMARK    7  A    between atoms: N_18  and  C_19
REMARK    8  A    between atoms: N_18  and  S_20
REMARK    9  A    between atoms: S_20  and  C_23
REMARK                            x       y       z     vdW  Elec       q    Type
REMARK                         _______ _______ _______ _____ _____    ______ ____
ROOT
ATOM      1  C   UNL     1      -0.038  13.009  21.072  0.00  0.00    +0.000 A 
ATOM      2  C   UNL     1       0.379  14.319  20.772  0.00  0.00    +0.000 A 
ATOM      3  C   UNL     1       1.414  14.564  19.877  0.00  0.00    +0.000 A 
ATOM      4  C   UNL     1       1.945  13.509  19.154  0.00  0.00    +0.000 A 
ATOM      5  C   UNL     1       1.417  12.224  19.310  0.00  0.00    +0.000 A 
ATOM      6  C   UNL     1       0.433  11.950  20.277  0.00  0.00    +0.000 A 
ENDROOT
BRANCH   1  11
ATOM      7  C   UNL     1      -5.249  13.497  21.479  0.00  0.00    +0.000 C 
ATOM      8  C   UNL     1      -4.222  14.448  20.872  0.00  0.00    +0.000 C 
ATOM      9  C   UNL     1      -2.862  13.788  20.754  0.00  0.00    +0.000 C 
ATOM     10  N   UNL     1      -2.370  13.177  21.995  0.00  0.00    +0.000 N 
ATOM     11  C   UNL     1      -0.996  12.860  22.212  0.00  0.00    +0.000 C 
ATOM     12  O   UNL     1      -0.584  12.386  23.268  0.00  0.00    +0.000 OA
ATOM     13  C   UNL     1      -3.334  12.404  22.778  0.00  0.00    +0.000 C 
ATOM     14  C   UNL     1      -4.742  12.995  22.829  0.00  0.00    +0.000 C 
BRANCH   7  15
ATOM     15  C   UNL     1      -5.657  12.396  20.500  0.00  0.00    +0.000 C 
ATOM     16  O   UNL     1      -5.538  12.467  19.286  0.00  0.00    +0.000 OA
BRANCH  15  17
ATOM     17  O   UNL     1      -6.334  11.423  21.169  0.00  0.00    +0.000 OA
BRANCH  17  19
ATOM     18  C   UNL     1      -7.692   9.554  20.581  0.00  0.00    +0.000 C 
ATOM     19  C   UNL     1      -7.603  11.071  20.599  0.00  0.00    +0.000 C 
ENDBRANCH  17  19
ENDBRANCH  15  17
ENDBRANCH   7  15
ENDBRANCH   1  11
BRANCH   6  20
ATOM     20  N   UNL     1      -0.158  10.643  20.260  0.00  0.00    +0.000 N 
ATOM     21  C   UNL     1      -1.046  10.289  19.144  0.00  0.00    +0.000 C 
BRANCH  20  22
ATOM     22  S   UNL     1       0.488   9.388  21.190  0.00  0.00    +0.000 S 
ATOM     23  O   UNL     1       1.430   9.943  22.142  0.00  0.00    +0.000 OA
ATOM     24  O   UNL     1      -0.579   8.510  21.629  0.00  0.00    +0.000 OA
BRANCH  22  25
ATOM     25  C   UNL     1       1.448   8.498  19.983  0.00  0.00    +0.000 A 
ATOM     26  C   UNL     1       1.692   9.079  18.734  0.00  0.00    +0.000 A 
ATOM     27  C   UNL     1       2.394   8.363  17.767  0.00  0.00    +0.000 A 
ATOM     28  C   UNL     1       2.879   7.088  18.059  0.00  0.00    +0.000 A 
ATOM     29  C   UNL     1       2.681   6.533  19.326  0.00  0.00    +0.000 A 
ATOM     30  C   UNL     1       1.965   7.238  20.294  0.00  0.00    +0.000 A 
ENDBRANCH  22  25
ENDBRANCH  20  22
ENDBRANCH   6  20
TORSDOF 7
ENDMDL
MODEL 4
REMARK VINA RESULT:      -6.1      0.717      1.489
REMARK  Name = 
REMARK  9 active torsions:
REMARK  status: ('A' for Active; 'I' for Inactive)
REMARK    1  A    between atoms: C_1  and  C_2
REMARK    2  A    between atoms: C_2  and  O_3
REMARK    3  A    between atoms: O_3  and  C_4
REMARK    4  A    between atoms: C_4  and  C_6
REMARK    5  A    between atoms: C_10  and  C_12
REMARK    6  A    between atoms: C_17  and  N_18
REMARK    7  A    between atoms: N_18  and  C_19
REMARK    8  A    between atoms: N_18  and  S_20
REMARK    9  A    between atoms: S_20  and  C_23
REMARK                            x       y       z     vdW  Elec       q    Type
REMARK                         _______ _______ _______ _____ _____    ______ ____
ROOT
ATOM      1  C   UNL     1       0.003  10.259  18.230  0.00  0.00    +0.000 A 
ATOM      2  C   UNL     1      -0.990   9.614  17.470  0.00  0.00    +0.000 A 
ATOM      3  C   UNL     1      -2.339   9.903  17.642  0.00  0.00    +0.000 A 
ATOM      4  C   UNL     1      -2.704  10.953  18.468  0.00  0.00    +0.000 A 
ATOM      5  C   UNL     1      -1.716  11.722  19.092  0.00  0.00    +0.000 A 
ATOM      6  C   UNL     1      -0.355  11.381  18.997  0.00  0.00    +0.000 A 
ENDROOT
BRANCH   1  11
ATOM      7  C   UNL     1       2.343   6.008  20.230  0.00  0.00    +0.000 C 
ATOM      8  C   UNL     1       1.518   7.087  20.923  0.00  0.00    +0.000 C 
ATOM      9  C   UNL     1       0.833   7.990  19.915  0.00  0.00    +0.000 C 
ATOM     10  N   UNL     1       1.728   8.559  18.900  0.00  0.00    +0.000 N 
ATOM     11  C   UNL     1       1.388   9.705  18.122  0.00  0.00    +0.000 C 
ATOM     12  O   UNL     1       2.158  10.202  17.302  0.00  0.00    +0.000 OA
ATOM     13  C   UNL     1       2.714   7.656  18.307  0.00  0.00    +0.000 C 
ATOM     14  C   UNL     1       3.346   6.664  19.284  0.00  0.00    +0.000 C 
BRANCH   7  15
ATOM     15  C   UNL     1       1.461   4.938  19.585  0.00  0.00    +0.000 C 
ATOM     16  O   UNL     1       0.697   4.208  20.197  0.00  0.00    +0.000 OA
BRANCH  15  17
ATOM     17  O   UNL     1       1.797   4.805  18.274  0.00  0.00    +0.000 OA
BRANCH  17  19
ATOM     18  C   UNL     1       3.491   3.553  17.155  0.00  0.00    +0.000 C 
ATOM     19  C   UNL     1       2.154   3.473  17.876  0.00  0.00    +0.000 C 
ENDBRANCH  17  19
ENDBRANCH  15  17
ENDBRANCH   7  15
ENDBRANCH   1  11
BRANCH   6  20
ATOM     20  N   UNL     1       0.594  12.311  19.538  0.00  0.00    +0.000 N 
ATOM     21  C   UNL     1       0.860  13.552  18.798  0.00  0.00    +0.000 C 
BRANCH  20  22
ATOM     22  S   UNL     1       1.034  12.249  21.169  0.00  0.00    +0.000 S 
ATOM     23  O   UNL     1       1.342  10.877  21.523  0.00  0.00    +0.000 OA
ATOM     24  O   UNL     1       1.969  13.318  21.461  0.00  0.00    +0.000 OA
BRANCH  22  25
ATOM     25  C   UNL     1      -0.501  12.650  21.976  0.00  0.00    +0.000 A 
ATOM     26  C   UNL     1      -0.967  13.969  21.952  0.00  0.00    +0.000 A 
ATOM     27  C   UNL     1      -2.139  14.299  22.629  0.00  0.00    +0.000 A 
ATOM     28  C   UNL     1      -2.859  13.309  23.298  0.00  0.00    +0.000 A 
ATOM     29  C   UNL     1      -2.421  11.983  23.273  0.00  0.00    +0.000 A 
ATOM     30  C   UNL     1      -1.240  11.649  22.610  0.00  0.00    +0.000 A 
ENDBRANCH  22  25
ENDBRANCH  20  22
ENDBRANCH   6  20
TORSDOF 7
ENDMDL
MODEL 5
REMARK VINA RESULT:      -6.1      4.463      7.758
REMARK  Name = 
REMARK  9 active torsions:
REMARK  status: ('A' for Active; 'I' for Inactive)
REMARK    1  A    between atoms: C_1  and  C_2
REMARK    2  A    between atoms: C_2  and  O_3
REMARK    3  A    between atoms: O_3  and  C_4
REMARK    4  A    between atoms: C_4  and  C_6
REMARK    5  A    between atoms: C_10  and  C_12
REMARK    6  A    between atoms: C_17  and  N_18
REMARK    7  A    between atoms: N_18  and  C_19
REMARK    8  A    between atoms: N_18  and  S_20
REMARK    9  A    between atoms: S_20  and  C_23
REMARK                            x       y       z     vdW  Elec       q    Type
REMARK                         _______ _______ _______ _____ _____    ______ ____
ROOT
ATOM      1  C   UNL     1      -1.039  12.210  22.487  0.00  0.00    +0.000 A 
ATOM      2  C   UNL     1      -1.114  10.942  23.092  0.00  0.00    +0.000 A 
ATOM      3  C   UNL     1      -0.442   9.846  22.564  0.00  0.00    +0.000 A 
ATOM      4  C   UNL     1       0.437  10.035  21.512  0.00  0.00    +0.000 A 
ATOM      5  C   UNL     1       0.660  11.322  21.015  0.00  0.00    +0.000 A 
ATOM      6  C   UNL     1      -0.081  12.424  21.480  0.00  0.00    +0.000 A 
ENDROOT
BRANCH   1  11
ATOM      7  C   UNL     1      -5.936  13.595  21.203  0.00  0.00    +0.000 C 
ATOM      8  C   UNL     1      -4.711  13.399  20.317  0.00  0.00    +0.000 C 
ATOM      9  C   UNL     1      -3.570  12.760  21.085  0.00  0.00    +0.000 C 
ATOM     10  N   UNL     1      -3.228  13.436  22.343  0.00  0.00    +0.000 N 
ATOM     11  C   UNL     1      -1.979  13.252  23.006  0.00  0.00    +0.000 C 
ATOM     12  O   UNL     1      -1.681  13.851  24.037  0.00  0.00    +0.000 OA
ATOM     13  C   UNL     1      -4.343  13.862  23.188  0.00  0.00    +0.000 C 
ATOM     14  C   UNL     1      -5.548  14.416  22.431  0.00  0.00    +0.000 C 
BRANCH   7  15
ATOM     15  C   UNL     1      -6.636  12.272  21.514  0.00  0.00    +0.000 C 
ATOM     16  O   UNL     1      -6.971  11.911  22.632  0.00  0.00    +0.000 OA
BRANCH  15  17
ATOM     17  O   UNL     1      -6.653  11.496  20.397  0.00  0.00    +0.000 OA
BRANCH  17  19
ATOM     18  C   UNL     1      -7.008   9.343  19.435  0.00  0.00    +0.000 C 
ATOM     19  C   UNL     1      -7.488  10.332  20.485  0.00  0.00    +0.000 C 
ENDBRANCH  17  19
ENDBRANCH  15  17
ENDBRANCH   7  15
ENDBRANCH   1  11
BRANCH   6  20
ATOM     20  N   UNL     1       0.321  13.724  21.027  0.00  0.00    +0.000 N 
ATOM     21  C   UNL     1       1.556  14.306  21.571  0.00  0.00    +0.000 C 
BRANCH  20  22
ATOM     22  S   UNL     1      -0.297  14.371  19.592  0.00  0.00    +0.000 S 
ATOM     23  O   UNL     1      -0.799  13.291  18.766  0.00  0.00    +0.000 OA
ATOM     24  O   UNL     1      -1.127  15.520  19.896  0.00  0.00    +0.000 OA
BRANCH  22  25
ATOM     25  C   UNL     1       1.179  14.975  18.801  0.00  0.00    +0.000 A 
ATOM     26  C   UNL     1       2.146  14.065  18.363  0.00  0.00    +0.000 A 
ATOM     27  C   UNL     1       3.328  14.535  17.793  0.00  0.00    +0.000 A 
ATOM     28  C   UNL     1       3.525  15.907  17.632  0.00  0.00    +0.000 A 
ATOM     29  C   UNL     1       2.533  16.810  18.020  0.00  0.00    +0.000 A 
ATOM     30  C   UNL     1       1.354  16.347  18.605  0.00  0.00    +0.000 A 
ENDBRANCH  22  25
ENDBRANCH  20  22
ENDBRANCH   6  20
TORSDOF 7
ENDMDL
MODEL 6
REMARK VINA RESULT:      -6.0      1.037      1.538
REMARK  Name = 
REMARK  9 active torsions:
REMARK  status: ('A' for Active; 'I' for Inactive)
REMARK    1  A    between atoms: C_1  and  C_2
REMARK    2  A    between atoms: C_2  and  O_3
REMARK    3  A    between atoms: O_3  and  C_4
REMARK    4  A    between atoms: C_4  and  C_6
REMARK    5  A    between atoms: C_10  and  C_12
REMARK    6  A    between atoms: C_17  and  N_18
REMARK    7  A    between atoms: N_18  and  C_19
REMARK    8  A    between atoms: N_18  and  S_20
REMARK    9  A    between atoms: S_20  and  C_23
REMARK                            x       y       z     vdW  Elec       q    Type
REMARK                         _______ _______ _______ _____ _____    ______ ____
ROOT
ATOM      1  C   UNL     1       0.380  10.245  18.190  0.00  0.00    +0.000 A 
ATOM      2  C   UNL     1      -0.679   9.532  17.601  0.00  0.00    +0.000 A 
ATOM      3  C   UNL     1      -2.006   9.851  17.867  0.00  0.00    +0.000 A 
ATOM      4  C   UNL     1      -2.292  10.985  18.608  0.00  0.00    +0.000 A 
ATOM      5  C   UNL     1      -1.251  11.806  19.051  0.00  0.00    +0.000 A 
ATOM      6  C   UNL     1       0.095  11.445  18.865  0.00  0.00    +0.000 A 
ENDROOT
BRANCH   1  11
ATOM      7  C   UNL     1       2.644   5.783  19.775  0.00  0.00    +0.000 C 
ATOM      8  C   UNL     1       1.855   6.816  20.573  0.00  0.00    +0.000 C 
ATOM      9  C   UNL     1       1.178   7.819  19.659  0.00  0.00    +0.000 C 
ATOM     10  N   UNL     1       2.073   8.454  18.682  0.00  0.00    +0.000 N 
ATOM     11  C   UNL     1       1.750   9.671  18.012  0.00  0.00    +0.000 C 
ATOM     12  O   UNL     1       2.519  10.219  17.225  0.00  0.00    +0.000 OA
ATOM     13  C   UNL     1       3.027   7.582  17.997  0.00  0.00    +0.000 C 
ATOM     14  C   UNL     1       3.648   6.495  18.873  0.00  0.00    +0.000 C 
BRANCH   7  15
ATOM     15  C   UNL     1       1.726   4.794  19.055  0.00  0.00    +0.000 C 
ATOM     16  O   UNL     1       1.669   4.659  17.842  0.00  0.00    +0.000 OA
BRANCH  15  17
ATOM     17  O   UNL     1       0.869   4.237  19.951  0.00  0.00    +0.000 OA
BRANCH  17  19
ATOM     18  C   UNL     1       1.661   2.752  21.641  0.00  0.00    +0.000 C 
ATOM     19  C   UNL     1       1.105   2.849  20.229  0.00  0.00    +0.000 C 
ENDBRANCH  17  19
ENDBRANCH  15  17
ENDBRANCH   7  15
ENDBRANCH   1  11
BRANCH   6  20
ATOM     20  N   UNL     1       1.090  12.419  19.212  0.00  0.00    +0.000 N 
ATOM     21  C   UNL     1       1.786  13.128  18.129  0.00  0.00    +0.000 C 
BRANCH  20  22
ATOM     22  S   UNL     1       1.140  13.091  20.763  0.00  0.00    +0.000 S 
ATOM     23  O   UNL     1       2.521  13.179  21.194  0.00  0.00    +0.000 OA
ATOM     24  O   UNL     1       0.270  14.249  20.818  0.00  0.00    +0.000 OA
BRANCH  22  25
ATOM     25  C   UNL     1       0.382  11.809  21.739  0.00  0.00    +0.000 A 
ATOM     26  C   UNL     1       0.997  10.556  21.826  0.00  0.00    +0.000 A 
ATOM     27  C   UNL     1       0.379   9.533  22.543  0.00  0.00    +0.000 A 
ATOM     28  C   UNL     1      -0.830   9.773  23.196  0.00  0.00    +0.000 A 
ATOM     29  C   UNL     1      -1.414  11.041  23.152  0.00  0.00    +0.000 A 
ATOM     30  C   UNL     1      -0.808  12.065  22.424  0.00  0.00    +0.000 A 
ENDBRANCH  22  25
ENDBRANCH  20  22
ENDBRANCH   6  20
TORSDOF 7
ENDMDL
MODEL 7
REMARK VINA RESULT:      -6.0      3.816      7.214
REMARK  Name = 
REMARK  9 active torsions:
REMARK  status: ('A' for Active; 'I' for Inactive)
REMARK    1  A    between atoms: C_1  and  C_2
REMARK    2  A    between atoms: C_2  and  O_3
REMARK    3  A    between atoms: O_3  and  C_4
REMARK    4  A    between atoms: C_4  and  C_6
REMARK    5  A    between atoms: C_10  and  C_12
REMARK    6  A    between atoms: C_17  and  N_18
REMARK    7  A    between atoms: N_18  and  C_19
REMARK    8  A    between atoms: N_18  and  S_20
REMARK    9  A    between atoms: S_20  and  C_23
REMARK                            x       y       z     vdW  Elec       q    Type
REMARK                         _______ _______ _______ _____ _____    ______ ____
ROOT
ATOM      1  C   UNL     1       3.098   2.941  19.105  0.00  0.00    +0.000 A 
ATOM      2  C   UNL     1       2.697   1.812  18.369  0.00  0.00    +0.000 A 
ATOM      3  C   UNL     1       1.357   1.464  18.245  0.00  0.00    +0.000 A 
ATOM      4  C   UNL     1       0.388   2.327  18.728  0.00  0.00    +0.000 A 
ATOM      5  C   UNL     1       0.766   3.543  19.304  0.00  0.00    +0.000 A 
ATOM      6  C   UNL     1       2.119   3.863  19.516  0.00  0.00    +0.000 A 
ENDROOT
BRANCH   1  11
ATOM      7  C   UNL     1       7.053   4.962  16.308  0.00  0.00    +0.000 C 
ATOM      8  C   UNL     1       5.984   3.952  15.902  0.00  0.00    +0.000 C 
ATOM      9  C   UNL     1       4.899   3.845  16.956  0.00  0.00    +0.000 C 
ATOM     10  N   UNL     1       5.393   3.596  18.316  0.00  0.00    +0.000 N 
ATOM     11  C   UNL     1       4.565   3.084  19.359  0.00  0.00    +0.000 C 
ATOM     12  O   UNL     1       4.993   2.840  20.486  0.00  0.00    +0.000 OA
ATOM     13  C   UNL     1       6.558   4.368  18.747  0.00  0.00    +0.000 C 
ATOM     14  C   UNL     1       7.622   4.578  17.671  0.00  0.00    +0.000 C 
BRANCH   7  15
ATOM     15  C   UNL     1       6.548   6.402  16.207  0.00  0.00    +0.000 C 
ATOM     16  O   UNL     1       5.502   6.734  15.672  0.00  0.00    +0.000 OA
BRANCH  15  17
ATOM     17  O   UNL     1       7.520   7.252  16.633  0.00  0.00    +0.000 OA
BRANCH  17  19
ATOM     18  C   UNL     1       8.264   9.115  17.923  0.00  0.00    +0.000 C 
ATOM     19  C   UNL     1       7.130   8.126  17.702  0.00  0.00    +0.000 C 
ENDBRANCH  17  19
ENDBRANCH  15  17
ENDBRANCH   7  15
ENDBRANCH   1  11
BRANCH   6  20
ATOM     20  N   UNL     1       2.417   5.191  19.969  0.00  0.00    +0.000 N 
ATOM     21  C   UNL     1       2.632   5.411  21.406  0.00  0.00    +0.000 C 
BRANCH  20  22
ATOM     22  S   UNL     1       2.979   6.368  18.893  0.00  0.00    +0.000 S 
ATOM     23  O   UNL     1       4.356   6.684  19.217  0.00  0.00    +0.000 OA
ATOM     24  O   UNL     1       2.599   6.010  17.540  0.00  0.00    +0.000 OA
BRANCH  22  25
ATOM     25  C   UNL     1       2.007   7.783  19.362  0.00  0.00    +0.000 A 
ATOM     26  C   UNL     1       1.708   8.760  18.407  0.00  0.00    +0.000 A 
ATOM     27  C   UNL     1       0.995   9.897  18.782  0.00  0.00    +0.000 A 
ATOM     28  C   UNL     1       0.555  10.040  20.098  0.00  0.00    +0.000 A 
ATOM     29  C   UNL     1       0.808   9.037  21.037  0.00  0.00    +0.000 A 
ATOM     30  C   UNL     1       1.534   7.903  20.671  0.00  0.00    +0.000 A 
ENDBRANCH  22  25
ENDBRANCH  20  22
ENDBRANCH   6  20
TORSDOF 7
ENDMDL
MODEL 8
REMARK VINA RESULT:      -6.0      3.605      6.098
REMARK  Name = 
REMARK  9 active torsions:
REMARK  status: ('A' for Active; 'I' for Inactive)
REMARK    1  A    between atoms: C_1  and  C_2
REMARK    2  A    between atoms: C_2  and  O_3
REMARK    3  A    between atoms: O_3  and  C_4
REMARK    4  A    between atoms: C_4  and  C_6
REMARK    5  A    between atoms: C_10  and  C_12
REMARK    6  A    between atoms: C_17  and  N_18
REMARK    7  A    between atoms: N_18  and  C_19
REMARK    8  A    between atoms: N_18  and  S_20
REMARK    9  A    between atoms: S_20  and  C_23
REMARK                            x       y       z     vdW  Elec       q    Type
REMARK                         _______ _______ _______ _____ _____    ______ ____
ROOT
ATOM      1  C   UNL     1      -0.448  10.719  20.579  0.00  0.00    +0.000 A 
ATOM      2  C   UNL     1      -0.146   9.366  20.815  0.00  0.00    +0.000 A 
ATOM      3  C   UNL     1       0.021   8.873  22.103  0.00  0.00    +0.000 A 
ATOM      4  C   UNL     1      -0.261   9.693  23.182  0.00  0.00    +0.000 A 
ATOM      5  C   UNL     1      -0.736  10.990  22.963  0.00  0.00    +0.000 A 
ATOM      6  C   UNL     1      -0.822  11.528  21.666  0.00  0.00    +0.000 A 
ENDROOT
BRANCH   1  11
ATOM      7  C   UNL     1      -3.822  10.523  16.563  0.00  0.00    +0.000 C 
ATOM      8  C   UNL     1      -3.358   9.417  17.506  0.00  0.00    +0.000 C 
ATOM      9  C   UNL     1      -2.566   9.981  18.670  0.00  0.00    +0.000 C 
ATOM     10  N   UNL     1      -1.460  10.865  18.283  0.00  0.00    +0.000 N 
ATOM     11  C   UNL     1      -0.378  11.180  19.158  0.00  0.00    +0.000 C 
ATOM     12  O   UNL     1       0.567  11.889  18.815  0.00  0.00    +0.000 OA
ATOM     13  C   UNL     1      -1.732  11.841  17.228  0.00  0.00    +0.000 C 
ATOM     14  C   UNL     1      -2.614  11.328  16.091  0.00  0.00    +0.000 C 
BRANCH   7  15
ATOM     15  C   UNL     1      -4.949  11.358  17.172  0.00  0.00    +0.000 C 
ATOM     16  O   UNL     1      -5.317  12.442  16.746  0.00  0.00    +0.000 OA
BRANCH  15  17
ATOM     17  O   UNL     1      -5.339  10.801  18.351  0.00  0.00    +0.000 OA
BRANCH  17  19
ATOM     18  C   UNL     1      -7.056   9.525  19.403  0.00  0.00    +0.000 C 
ATOM     19  C   UNL     1      -6.759  10.749  18.552  0.00  0.00    +0.000 C 
ENDBRANCH  17  19
ENDBRANCH  15  17
ENDBRANCH   7  15
ENDBRANCH   1  11
BRANCH   6  20
ATOM     20  N   UNL     1      -1.464  12.804  21.526  0.00  0.00    +0.000 N 
ATOM     21  C   UNL     1      -2.890  12.837  21.174  0.00  0.00    +0.000 C 
BRANCH  20  22
ATOM     22  S   UNL     1      -0.778  14.196  22.197  0.00  0.00    +0.000 S 
ATOM     23  O   UNL     1      -1.642  14.686  23.253  0.00  0.00    +0.000 OA
ATOM     24  O   UNL     1       0.634  13.974  22.437  0.00  0.00    +0.000 OA
BRANCH  22  25
ATOM     25  C   UNL     1      -0.914  15.352  20.850  0.00  0.00    +0.000 A 
ATOM     26  C   UNL     1      -1.830  16.406  20.937  0.00  0.00    +0.000 A 
ATOM     27  C   UNL     1      -1.980  17.280  19.862  0.00  0.00    +0.000 A 
ATOM     28  C   UNL     1      -1.193  17.122  18.722  0.00  0.00    +0.000 A 
ATOM     29  C   UNL     1      -0.240  16.103  18.660  0.00  0.00    +0.000 A 
ATOM     30  C   UNL     1      -0.096  15.215  19.726  0.00  0.00    +0.000 A 
ENDBRANCH  22  25
ENDBRANCH  20  22
ENDBRANCH   6  20
TORSDOF 7
ENDMDL
MODEL 9
REMARK VINA RESULT:      -5.9      3.720      7.744
REMARK  Name = 
REMARK  9 active torsions:
REMARK  status: ('A' for Active; 'I' for Inactive)
REMARK    1  A    between atoms: C_1  and  C_2
REMARK    2  A    between atoms: C_2  and  O_3
REMARK    3  A    between atoms: O_3  and  C_4
REMARK    4  A    between atoms: C_4  and  C_6
REMARK    5  A    between atoms: C_10  and  C_12
REMARK    6  A    between atoms: C_17  and  N_18
REMARK    7  A    between atoms: N_18  and  C_19
REMARK    8  A    between atoms: N_18  and  S_20
REMARK    9  A    between atoms: S_20  and  C_23
REMARK                            x       y       z     vdW  Elec       q    Type
REMARK                         _______ _______ _______ _____ _____    ______ ____
ROOT
ATOM      1  C   UNL     1      -0.461  15.952  20.939  0.00  0.00    +0.000 A 
ATOM      2  C   UNL     1      -0.660  17.298  20.584  0.00  0.00    +0.000 A 
ATOM      3  C   UNL     1      -0.384  17.760  19.303  0.00  0.00    +0.000 A 
ATOM      4  C   UNL     1      -0.051  16.849  18.315  0.00  0.00    +0.000 A 
ATOM      5  C   UNL     1      -0.024  15.483  18.609  0.00  0.00    +0.000 A 
ATOM      6  C   UNL     1      -0.212  15.014  19.922  0.00  0.00    +0.000 A 
ENDROOT
BRANCH   1  11
ATOM      7  C   UNL     1      -4.450  14.423  23.990  0.00  0.00    +0.000 C 
ATOM      8  C   UNL     1      -4.358  15.590  23.012  0.00  0.00    +0.000 C 
ATOM      9  C   UNL     1      -3.101  15.504  22.167  0.00  0.00    +0.000 C 
ATOM     10  N   UNL     1      -1.860  15.339  22.935  0.00  0.00    +0.000 N 
ATOM     11  C   UNL     1      -0.572  15.623  22.394  0.00  0.00    +0.000 C 
ATOM     12  O   UNL     1       0.461  15.522  23.054  0.00  0.00    +0.000 OA
ATOM     13  C   UNL     1      -1.891  14.386  24.044  0.00  0.00    +0.000 C 
ATOM     14  C   UNL     1      -3.189  14.380  24.850  0.00  0.00    +0.000 C 
BRANCH   7  15
ATOM     15  C   UNL     1      -4.786  13.109  23.283  0.00  0.00    +0.000 C 
ATOM     16  O   UNL     1      -4.105  12.097  23.340  0.00  0.00    +0.000 OA
BRANCH  15  17
ATOM     17  O   UNL     1      -5.841  13.303  22.446  0.00  0.00    +0.000 OA
BRANCH  17  19
ATOM     18  C   UNL     1      -5.328  13.306  20.118  0.00  0.00    +0.000 C 
ATOM     19  C   UNL     1      -5.844  12.470  21.278  0.00  0.00    +0.000 C 
ENDBRANCH  17  19
ENDBRANCH  15  17
ENDBRANCH   7  15
ENDBRANCH   1  11
BRANCH   6  20
ATOM     20  N   UNL     1      -0.322  13.595  20.103  0.00  0.00    +0.000 N 
ATOM     21  C   UNL     1      -1.572  12.932  19.705  0.00  0.00    +0.000 C 
BRANCH  20  22
ATOM     22  S   UNL     1       1.057  12.638  20.301  0.00  0.00    +0.000 S 
ATOM     23  O   UNL     1       1.443  12.093  19.015  0.00  0.00    +0.000 OA
ATOM     24  O   UNL     1       2.020  13.339  21.129  0.00  0.00    +0.000 OA
BRANCH  22  25
ATOM     25  C   UNL     1       0.422  11.279  21.260  0.00  0.00    +0.000 A 
ATOM     26  C   UNL     1       0.759   9.969  20.906  0.00  0.00    +0.000 A 
ATOM     27  C   UNL     1       0.219   8.901  21.619  0.00  0.00    +0.000 A 
ATOM     28  C   UNL     1      -0.626   9.143  22.701  0.00  0.00    +0.000 A 
ATOM     29  C   UNL     1      -0.918  10.453  23.087  0.00  0.00    +0.000 A 
ATOM     30  C   UNL     1      -0.392  11.527  22.368  0.00  0.00    +0.000 A 
ENDBRANCH  22  25
ENDBRANCH  20  22
ENDBRANCH   6  20
TORSDOF 7
ENDMDL
