MODEL 1
REMARK VINA RESULT:      -8.7      0.000      0.000
REMARK  Name = 
REMARK  4 active torsions:
REMARK  status: ('A' for Active; 'I' for Inactive)
REMARK    1  A    between atoms: C_1  and  C_2
REMARK    2  A    between atoms: C_4  and  C_5
REMARK    3  A    between atoms: N_11  and  C_12
REMARK    4  A    between atoms: C_19  and  C_20
REMARK                            x       y       z     vdW  Elec       q    Type
REMARK                         _______ _______ _______ _____ _____    ______ ____
ROOT
ATOM      1  C   UNL     1      -0.440  10.371  19.993  0.00  0.00    +0.000 A 
ATOM      2  N   UNL     1       0.423   9.307  19.831  0.00  0.00    +0.000 NA
ATOM      3  C   UNL     1       0.867   8.878  20.987  0.00  0.00    +0.000 A 
ATOM      4  N   UNL     1       1.688   7.807  21.133  0.00  0.00    +0.000 N 
ATOM      5  C   UNL     1       2.231   7.078  20.109  0.00  0.00    +0.000 C 
ATOM      6  N   UNL     1       2.368   7.526  18.899  0.00  0.00    +0.000 NA
ATOM      7  N   UNL     1       2.615   5.803  20.457  0.00  0.00    +0.000 N 
ATOM      8  S   UNL     1       0.300   9.773  22.343  0.00  0.00    +0.000 S 
ATOM      9  C   UNL     1      -0.634  10.774  21.300  0.00  0.00    +0.000 A 
ATOM     10  C   UNL     1      -1.509  11.847  21.841  0.00  0.00    +0.000 C 
ATOM     11  H   UNL     1       1.939   7.546  22.072  0.00  0.00    +0.000 HD
ATOM     12  H   UNL     1       1.963   8.473  18.868  0.00  0.00    +0.000 HD
ATOM     13  H   UNL     1       2.436   5.514  21.408  0.00  0.00    +0.000 HD
ENDROOT
BRANCH   1  17
ATOM     14  C   UNL     1      -3.061  10.782  15.652  0.00  0.00    +0.000 C 
ATOM     15  C   UNL     1      -2.232  11.023  16.857  0.00  0.00    +0.000 A 
ATOM     16  C   UNL     1      -1.837  10.173  17.872  0.00  0.00    +0.000 A 
ATOM     17  C   UNL     1      -1.047  10.924  18.781  0.00  0.00    +0.000 A 
ATOM     18  C   UNL     1      -0.971  12.208  18.289  0.00  0.00    +0.000 A 
ATOM     19  N   UNL     1      -1.690  12.256  17.121  0.00  0.00    +0.000 N 
ATOM     20  H   UNL     1      -1.794  13.076  16.537  0.00  0.00    +0.000 HD
ENDBRANCH   1  17
BRANCH   7  21
ATOM     21  C   UNL     1       2.429   4.696  19.584  0.00  0.00    +0.000 A 
ATOM     22  C   UNL     1       3.467   4.320  18.724  0.00  0.00    +0.000 A 
ATOM     23  C   UNL     1       3.314   3.235  17.852  0.00  0.00    +0.000 A 
ATOM     24  C   UNL     1       2.131   2.497  17.850  0.00  0.00    +0.000 A 
ATOM     25  C   UNL     1       1.100   2.844  18.719  0.00  0.00    +0.000 A 
ATOM     26  C   UNL     1       1.251   3.933  19.577  0.00  0.00    +0.000 A 
ENDBRANCH   7  21
TORSDOF 2
ENDMDL
MODEL 2
REMARK VINA RESULT:      -8.7      0.224      1.048
REMARK  Name = 
REMARK  4 active torsions:
REMARK  status: ('A' for Active; 'I' for Inactive)
REMARK    1  A    between atoms: C_1  and  C_2
REMARK    2  A    between atoms: C_4  and  C_5
REMARK    3  A    between atoms: N_11  and  C_12
REMARK    4  A    between atoms: C_19  and  C_20
REMARK                            x       y       z     vdW  Elec       q    Type
REMARK                         _______ _______ _______ _____ _____    ______ ____
ROOT
ATOM      1  C   UNL     1      -0.468  10.413  20.022  0.00  0.00    +0.000 A 
ATOM      2  N   UNL     1       0.376   9.329  19.900  0.00  0.00    +0.000 NA
ATOM      3  C   UNL     1       0.812   8.934  21.073  0.00  0.00    +0.000 A 
ATOM      4  N   UNL     1       1.614   7.855  21.259  0.00  0.00    +0.000 N 
ATOM      5  C   UNL     1       2.145   7.079  20.263  0.00  0.00    +0.000 C 
ATOM      6  N   UNL     1       2.289   7.480  19.038  0.00  0.00    +0.000 NA
ATOM      7  N   UNL     1       2.505   5.811  20.659  0.00  0.00    +0.000 N 
ATOM      8  S   UNL     1       0.260   9.889  22.393  0.00  0.00    +0.000 S 
ATOM      9  C   UNL     1      -0.656  10.867  21.312  0.00  0.00    +0.000 A 
ATOM     10  C   UNL     1      -1.511  11.975  21.812  0.00  0.00    +0.000 C 
ATOM     11  H   UNL     1       1.860   7.625  22.208  0.00  0.00    +0.000 HD
ATOM     12  H   UNL     1       1.902   8.432  18.971  0.00  0.00    +0.000 HD
ATOM     13  H   UNL     1       2.320   5.561  21.619  0.00  0.00    +0.000 HD
ENDROOT
BRANCH   1  17
ATOM     14  C   UNL     1      -2.980  10.682  15.606  0.00  0.00    +0.000 C 
ATOM     15  C   UNL     1      -2.197  10.967  16.832  0.00  0.00    +0.000 A 
ATOM     16  C   UNL     1      -1.794  10.141  17.864  0.00  0.00    +0.000 A 
ATOM     17  C   UNL     1      -1.064  10.931  18.789  0.00  0.00    +0.000 A 
ATOM     18  C   UNL     1      -1.032  12.215  18.291  0.00  0.00    +0.000 A 
ATOM     19  N   UNL     1      -1.719  12.224  17.103  0.00  0.00    +0.000 N 
ATOM     20  H   UNL     1      -1.843  13.034  16.510  0.00  0.00    +0.000 HD
ENDBRANCH   1  17
BRANCH   7  21
ATOM     21  C   UNL     1       2.300   4.676  19.827  0.00  0.00    +0.000 A 
ATOM     22  C   UNL     1       1.101   3.960  19.927  0.00  0.00    +0.000 A 
ATOM     23  C   UNL     1       0.871   2.839  19.122  0.00  0.00    +0.000 A 
ATOM     24  C   UNL     1       1.825   2.436  18.188  0.00  0.00    +0.000 A 
ATOM     25  C   UNL     1       3.010   3.155  18.059  0.00  0.00    +0.000 A 
ATOM     26  C   UNL     1       3.242   4.265  18.871  0.00  0.00    +0.000 A 
ENDBRANCH   7  21
TORSDOF 2
ENDMDL
MODEL 3
REMARK VINA RESULT:      -7.6      2.319      7.873
REMARK  Name = 
REMARK  4 active torsions:
REMARK  status: ('A' for Active; 'I' for Inactive)
REMARK    1  A    between atoms: C_1  and  C_2
REMARK    2  A    between atoms: C_4  and  C_5
REMARK    3  A    between atoms: N_11  and  C_12
REMARK    4  A    between atoms: C_19  and  C_20
REMARK                            x       y       z     vdW  Elec       q    Type
REMARK                         _______ _______ _______ _____ _____    ______ ____
ROOT
ATOM      1  C   UNL     1       2.943   5.519  18.376  0.00  0.00    +0.000 A 
ATOM      2  N   UNL     1       2.317   6.727  18.596  0.00  0.00    +0.000 NA
ATOM      3  C   UNL     1       2.874   7.685  17.895  0.00  0.00    +0.000 A 
ATOM      4  N   UNL     1       2.428   8.967  17.875  0.00  0.00    +0.000 N 
ATOM      5  C   UNL     1       1.400   9.462  18.632  0.00  0.00    +0.000 C 
ATOM      6  N   UNL     1       0.983   8.910  19.728  0.00  0.00    +0.000 NA
ATOM      7  N   UNL     1       0.818  10.602  18.126  0.00  0.00    +0.000 N 
ATOM      8  S   UNL     1       4.228   7.183  16.959  0.00  0.00    +0.000 S 
ATOM      9  C   UNL     1       4.016   5.565  17.507  0.00  0.00    +0.000 A 
ATOM     10  C   UNL     1       4.889   4.466  17.019  0.00  0.00    +0.000 C 
ATOM     11  H   UNL     1       2.914   9.612  17.273  0.00  0.00    +0.000 HD
ATOM     12  H   UNL     1       1.528   8.048  19.873  0.00  0.00    +0.000 HD
ATOM     13  H   UNL     1       1.172  10.945  17.245  0.00  0.00    +0.000 HD
ENDROOT
BRANCH   1  17
ATOM     14  C   UNL     1       1.401   2.348  22.043  0.00  0.00    +0.000 C 
ATOM     15  C   UNL     1       1.732   2.998  20.753  0.00  0.00    +0.000 A 
ATOM     16  C   UNL     1       2.296   4.229  20.475  0.00  0.00    +0.000 A 
ATOM     17  C   UNL     1       2.393   4.350  19.064  0.00  0.00    +0.000 A 
ATOM     18  C   UNL     1       1.897   3.185  18.521  0.00  0.00    +0.000 A 
ATOM     19  N   UNL     1       1.503   2.372  19.553  0.00  0.00    +0.000 N 
ATOM     20  H   UNL     1       1.114   1.445  19.445  0.00  0.00    +0.000 HD
ENDBRANCH   1  17
BRANCH   7  21
ATOM     21  C   UNL     1      -0.586  10.821  18.190  0.00  0.00    +0.000 A 
ATOM     22  C   UNL     1      -1.441  10.016  17.428  0.00  0.00    +0.000 A 
ATOM     23  C   UNL     1      -2.827  10.209  17.470  0.00  0.00    +0.000 A 
ATOM     24  C   UNL     1      -3.376  11.190  18.294  0.00  0.00    +0.000 A 
ATOM     25  C   UNL     1      -2.539  11.980  19.077  0.00  0.00    +0.000 A 
ATOM     26  C   UNL     1      -1.158  11.795  19.024  0.00  0.00    +0.000 A 
ENDBRANCH   7  21
TORSDOF 2
ENDMDL
MODEL 4
REMARK VINA RESULT:      -7.6      2.340      7.911
REMARK  Name = 
REMARK  4 active torsions:
REMARK  status: ('A' for Active; 'I' for Inactive)
REMARK    1  A    between atoms: C_1  and  C_2
REMARK    2  A    between atoms: C_4  and  C_5
REMARK    3  A    between atoms: N_11  and  C_12
REMARK    4  A    between atoms: C_19  and  C_20
REMARK                            x       y       z     vdW  Elec       q    Type
REMARK                         _______ _______ _______ _____ _____    ______ ____
ROOT
ATOM      1  C   UNL     1       3.009   5.445  18.335  0.00  0.00    +0.000 A 
ATOM      2  N   UNL     1       2.400   6.661  18.564  0.00  0.00    +0.000 NA
ATOM      3  C   UNL     1       2.954   7.611  17.850  0.00  0.00    +0.000 A 
ATOM      4  N   UNL     1       2.523   8.897  17.835  0.00  0.00    +0.000 N 
ATOM      5  C   UNL     1       1.514   9.406  18.609  0.00  0.00    +0.000 C 
ATOM      6  N   UNL     1       1.112   8.861  19.715  0.00  0.00    +0.000 NA
ATOM      7  N   UNL     1       0.935  10.551  18.112  0.00  0.00    +0.000 N 
ATOM      8  S   UNL     1       4.284   7.091  16.889  0.00  0.00    +0.000 S 
ATOM      9  C   UNL     1       4.065   5.477  17.446  0.00  0.00    +0.000 A 
ATOM     10  C   UNL     1       4.917   4.367  16.944  0.00  0.00    +0.000 C 
ATOM     11  H   UNL     1       3.004   9.535  17.222  0.00  0.00    +0.000 HD
ATOM     12  H   UNL     1       1.651   7.993  19.852  0.00  0.00    +0.000 HD
ATOM     13  H   UNL     1       1.276  10.888  17.223  0.00  0.00    +0.000 HD
ENDROOT
BRANCH   1  17
ATOM     14  C   UNL     1       1.471   2.315  22.039  0.00  0.00    +0.000 C 
ATOM     15  C   UNL     1       1.800   2.951  20.741  0.00  0.00    +0.000 A 
ATOM     16  C   UNL     1       2.364   4.178  20.449  0.00  0.00    +0.000 A 
ATOM     17  C   UNL     1       2.459   4.285  19.037  0.00  0.00    +0.000 A 
ATOM     18  C   UNL     1       1.961   3.114  18.507  0.00  0.00    +0.000 A 
ATOM     19  N   UNL     1       1.568   2.313  19.549  0.00  0.00    +0.000 N 
ATOM     20  H   UNL     1       1.177   1.384  19.452  0.00  0.00    +0.000 HD
ENDBRANCH   1  17
BRANCH   7  21
ATOM     21  C   UNL     1      -0.465  10.786  18.202  0.00  0.00    +0.000 A 
ATOM     22  C   UNL     1      -0.934  11.827  19.011  0.00  0.00    +0.000 A 
ATOM     23  C   UNL     1      -2.306  12.083  19.120  0.00  0.00    +0.000 A 
ATOM     24  C   UNL     1      -3.222  11.318  18.401  0.00  0.00    +0.000 A 
ATOM     25  C   UNL     1      -2.768  10.296  17.571  0.00  0.00    +0.000 A 
ATOM     26  C   UNL     1      -1.401  10.036  17.474  0.00  0.00    +0.000 A 
ENDBRANCH   7  21
TORSDOF 2
ENDMDL
MODEL 5
REMARK VINA RESULT:      -7.5      1.289      1.571
REMARK  Name = 
REMARK  4 active torsions:
REMARK  status: ('A' for Active; 'I' for Inactive)
REMARK    1  A    between atoms: C_1  and  C_2
REMARK    2  A    between atoms: C_4  and  C_5
REMARK    3  A    between atoms: N_11  and  C_12
REMARK    4  A    between atoms: C_19  and  C_20
REMARK                            x       y       z     vdW  Elec       q    Type
REMARK                         _______ _______ _______ _____ _____    ______ ____
ROOT
ATOM      1  C   UNL     1      -1.452  10.917  19.062  0.00  0.00    +0.000 A 
ATOM      2  N   UNL     1      -0.455   9.965  19.099  0.00  0.00    +0.000 NA
ATOM      3  C   UNL     1       0.192  10.000  20.240  0.00  0.00    +0.000 A 
ATOM      4  N   UNL     1       1.187   9.140  20.573  0.00  0.00    +0.000 N 
ATOM      5  C   UNL     1       1.712   8.176  19.753  0.00  0.00    +0.000 C 
ATOM      6  N   UNL     1       1.624   8.207  18.459  0.00  0.00    +0.000 NA
ATOM      7  N   UNL     1       2.336   7.143  20.414  0.00  0.00    +0.000 N 
ATOM      8  S   UNL     1      -0.343  11.228  21.321  0.00  0.00    +0.000 S 
ATOM      9  C   UNL     1      -1.547  11.709  20.190  0.00  0.00    +0.000 A 
ATOM     10  C   UNL     1      -2.511  12.796  20.506  0.00  0.00    +0.000 C 
ATOM     11  H   UNL     1       1.590   9.239  21.490  0.00  0.00    +0.000 HD
ATOM     12  H   UNL     1       1.070   9.036  18.201  0.00  0.00    +0.000 HD
ATOM     13  H   UNL     1       2.324   7.171  21.423  0.00  0.00    +0.000 HD
ENDROOT
BRANCH   1  17
ATOM     14  C   UNL     1      -3.202  10.081  14.359  0.00  0.00    +0.000 C 
ATOM     15  C   UNL     1      -2.995  10.538  15.754  0.00  0.00    +0.000 A 
ATOM     16  C   UNL     1      -1.995  10.254  16.664  0.00  0.00    +0.000 A 
ATOM     17  C   UNL     1      -2.285  10.960  17.859  0.00  0.00    +0.000 A 
ATOM     18  C   UNL     1      -3.448  11.666  17.642  0.00  0.00    +0.000 A 
ATOM     19  N   UNL     1      -3.867  11.405  16.363  0.00  0.00    +0.000 N 
ATOM     20  H   UNL     1      -4.691  11.803  15.929  0.00  0.00    +0.000 HD
ENDBRANCH   1  17
BRANCH   7  21
ATOM     21  C   UNL     1       2.226   5.795  19.976  0.00  0.00    +0.000 A 
ATOM     22  C   UNL     1       3.111   5.316  19.003  0.00  0.00    +0.000 A 
ATOM     23  C   UNL     1       3.027   3.993  18.552  0.00  0.00    +0.000 A 
ATOM     24  C   UNL     1       2.076   3.127  19.088  0.00  0.00    +0.000 A 
ATOM     25  C   UNL     1       1.207   3.582  20.077  0.00  0.00    +0.000 A 
ATOM     26  C   UNL     1       1.285   4.904  20.515  0.00  0.00    +0.000 A 
ENDBRANCH   7  21
TORSDOF 2
ENDMDL
MODEL 6
REMARK VINA RESULT:      -7.5      1.448      1.734
REMARK  Name = 
REMARK  4 active torsions:
REMARK  status: ('A' for Active; 'I' for Inactive)
REMARK    1  A    between atoms: C_1  and  C_2
REMARK    2  A    between atoms: C_4  and  C_5
REMARK    3  A    between atoms: N_11  and  C_12
REMARK    4  A    between atoms: C_19  and  C_20
REMARK                            x       y       z     vdW  Elec       q    Type
REMARK                         _______ _______ _______ _____ _____    ______ ____
ROOT
ATOM      1  C   UNL     1      -1.276  10.709  18.713  0.00  0.00    +0.000 A 
ATOM      2  N   UNL     1      -0.208   9.861  18.509  0.00  0.00    +0.000 NA
ATOM      3  C   UNL     1       0.544   9.779  19.580  0.00  0.00    +0.000 A 
ATOM      4  N   UNL     1       1.632   8.975  19.682  0.00  0.00    +0.000 N 
ATOM      5  C   UNL     1       2.148   8.204  18.674  0.00  0.00    +0.000 C 
ATOM      6  N   UNL     1       1.930   8.427  17.415  0.00  0.00    +0.000 NA
ATOM      7  N   UNL     1       2.914   7.145  19.101  0.00  0.00    +0.000 N 
ATOM      8  S   UNL     1       0.024  10.767  20.889  0.00  0.00    +0.000 S 
ATOM      9  C   UNL     1      -1.322  11.303  19.959  0.00  0.00    +0.000 A 
ATOM     10  C   UNL     1      -2.332  12.232  20.530  0.00  0.00    +0.000 C 
ATOM     11  H   UNL     1       2.116   8.967  20.565  0.00  0.00    +0.000 HD
ATOM     12  H   UNL     1       1.290   9.231  17.344  0.00  0.00    +0.000 HD
ATOM     13  H   UNL     1       3.001   7.014  20.098  0.00  0.00    +0.000 HD
ENDROOT
BRANCH   1  17
ATOM     14  C   UNL     1      -3.633  10.106  14.246  0.00  0.00    +0.000 C 
ATOM     15  C   UNL     1      -3.215  10.533  15.602  0.00  0.00    +0.000 A 
ATOM     16  C   UNL     1      -2.165  10.120  16.400  0.00  0.00    +0.000 A 
ATOM     17  C   UNL     1      -2.225  10.860  17.609  0.00  0.00    +0.000 A 
ATOM     18  C   UNL     1      -3.303  11.713  17.511  0.00  0.00    +0.000 A 
ATOM     19  N   UNL     1      -3.893  11.508  16.289  0.00  0.00    +0.000 N 
ATOM     20  H   UNL     1      -4.700  12.011  15.943  0.00  0.00    +0.000 HD
ENDBRANCH   1  17
BRANCH   7  21
ATOM     21  C   UNL     1       2.869   5.876  18.459  0.00  0.00    +0.000 A 
ATOM     22  C   UNL     1       3.971   5.448  17.710  0.00  0.00    +0.000 A 
ATOM     23  C   UNL     1       3.956   4.204  17.067  0.00  0.00    +0.000 A 
ATOM     24  C   UNL     1       2.851   3.364  17.187  0.00  0.00    +0.000 A 
ATOM     25  C   UNL     1       1.758   3.766  17.951  0.00  0.00    +0.000 A 
ATOM     26  C   UNL     1       1.771   5.011  18.581  0.00  0.00    +0.000 A 
ENDBRANCH   7  21
TORSDOF 2
ENDMDL
MODEL 7
REMARK VINA RESULT:      -7.2      0.999      1.522
REMARK  Name = 
REMARK  4 active torsions:
REMARK  status: ('A' for Active; 'I' for Inactive)
REMARK    1  A    between atoms: C_1  and  C_2
REMARK    2  A    between atoms: C_4  and  C_5
REMARK    3  A    between atoms: N_11  and  C_12
REMARK    4  A    between atoms: C_19  and  C_20
REMARK                            x       y       z     vdW  Elec       q    Type
REMARK                         _______ _______ _______ _____ _____    ______ ____
ROOT
ATOM      1  C   UNL     1      -0.691  10.273  19.582  0.00  0.00    +0.000 A 
ATOM      2  N   UNL     1       0.194   9.219  19.499  0.00  0.00    +0.000 NA
ATOM      3  C   UNL     1       0.926   9.128  20.583  0.00  0.00    +0.000 A 
ATOM      4  N   UNL     1       1.842   8.150  20.799  0.00  0.00    +0.000 N 
ATOM      5  C   UNL     1       2.192   7.177  19.901  0.00  0.00    +0.000 C 
ATOM      6  N   UNL     1       2.009   7.280  18.621  0.00  0.00    +0.000 NA
ATOM      7  N   UNL     1       2.746   6.052  20.466  0.00  0.00    +0.000 N 
ATOM      8  S   UNL     1       0.616  10.351  21.753  0.00  0.00    +0.000 S 
ATOM      9  C   UNL     1      -0.611  11.015  20.745  0.00  0.00    +0.000 A 
ATOM     10  C   UNL     1      -1.420  12.182  21.182  0.00  0.00    +0.000 C 
ATOM     11  H   UNL     1       2.323   8.160  21.683  0.00  0.00    +0.000 HD
ATOM     12  H   UNL     1       1.533   8.176  18.443  0.00  0.00    +0.000 HD
ATOM     13  H   UNL     1       2.815   6.031  21.473  0.00  0.00    +0.000 HD
ENDROOT
BRANCH   1  17
ATOM     14  C   UNL     1      -4.677  11.738  16.781  0.00  0.00    +0.000 C 
ATOM     15  C   UNL     1      -3.408  11.154  17.278  0.00  0.00    +0.000 A 
ATOM     16  C   UNL     1      -2.820  11.191  18.528  0.00  0.00    +0.000 A 
ATOM     17  C   UNL     1      -1.604  10.465  18.454  0.00  0.00    +0.000 A 
ATOM     18  C   UNL     1      -1.488   9.995  17.164  0.00  0.00    +0.000 A 
ATOM     19  N   UNL     1      -2.589  10.416  16.461  0.00  0.00    +0.000 N 
ATOM     20  H   UNL     1      -2.773  10.203  15.489  0.00  0.00    +0.000 HD
ENDBRANCH   1  17
BRANCH   7  21
ATOM     21  C   UNL     1       2.454   4.746  19.985  0.00  0.00    +0.000 A 
ATOM     22  C   UNL     1       1.198   4.184  20.245  0.00  0.00    +0.000 A 
ATOM     23  C   UNL     1       0.882   2.901  19.785  0.00  0.00    +0.000 A 
ATOM     24  C   UNL     1       1.806   2.175  19.037  0.00  0.00    +0.000 A 
ATOM     25  C   UNL     1       3.049   2.731  18.748  0.00  0.00    +0.000 A 
ATOM     26  C   UNL     1       3.367   4.005  19.218  0.00  0.00    +0.000 A 
ENDBRANCH   7  21
TORSDOF 2
ENDMDL
MODEL 8
REMARK VINA RESULT:      -7.2      1.033      1.169
REMARK  Name = 
REMARK  4 active torsions:
REMARK  status: ('A' for Active; 'I' for Inactive)
REMARK    1  A    between atoms: C_1  and  C_2
REMARK    2  A    between atoms: C_4  and  C_5
REMARK    3  A    between atoms: N_11  and  C_12
REMARK    4  A    between atoms: C_19  and  C_20
REMARK                            x       y       z     vdW  Elec       q    Type
REMARK                         _______ _______ _______ _____ _____    ______ ____
ROOT
ATOM      1  C   UNL     1      -0.722  10.327  19.566  0.00  0.00    +0.000 A 
ATOM      2  N   UNL     1       0.162   9.271  19.490  0.00  0.00    +0.000 NA
ATOM      3  C   UNL     1       0.904   9.196  20.568  0.00  0.00    +0.000 A 
ATOM      4  N   UNL     1       1.822   8.221  20.789  0.00  0.00    +0.000 N 
ATOM      5  C   UNL     1       2.162   7.234  19.902  0.00  0.00    +0.000 C 
ATOM      6  N   UNL     1       1.967   7.319  18.623  0.00  0.00    +0.000 NA
ATOM      7  N   UNL     1       2.721   6.117  20.479  0.00  0.00    +0.000 N 
ATOM      8  S   UNL     1       0.606  10.437  21.722  0.00  0.00    +0.000 S 
ATOM      9  C   UNL     1      -0.630  11.086  20.716  0.00  0.00    +0.000 A 
ATOM     10  C   UNL     1      -1.435  12.260  21.144  0.00  0.00    +0.000 C 
ATOM     11  H   UNL     1       2.311   8.243  21.669  0.00  0.00    +0.000 HD
ATOM     12  H   UNL     1       1.490   8.212  18.436  0.00  0.00    +0.000 HD
ATOM     13  H   UNL     1       2.800   6.111  21.485  0.00  0.00    +0.000 HD
ENDROOT
BRANCH   1  17
ATOM     14  C   UNL     1      -4.721  11.776  16.774  0.00  0.00    +0.000 C 
ATOM     15  C   UNL     1      -3.454  11.187  17.271  0.00  0.00    +0.000 A 
ATOM     16  C   UNL     1      -2.851  11.247  18.513  0.00  0.00    +0.000 A 
ATOM     17  C   UNL     1      -1.645  10.503  18.444  0.00  0.00    +0.000 A 
ATOM     18  C   UNL     1      -1.552   9.999  17.165  0.00  0.00    +0.000 A 
ATOM     19  N   UNL     1      -2.655  10.417  16.464  0.00  0.00    +0.000 N 
ATOM     20  H   UNL     1      -2.854  10.182  15.501  0.00  0.00    +0.000 HD
ENDBRANCH   1  17
BRANCH   7  21
ATOM     21  C   UNL     1       2.424   4.805  20.020  0.00  0.00    +0.000 A 
ATOM     22  C   UNL     1       3.388   4.098  19.291  0.00  0.00    +0.000 A 
ATOM     23  C   UNL     1       3.124   2.805  18.826  0.00  0.00    +0.000 A 
ATOM     24  C   UNL     1       1.904   2.192  19.106  0.00  0.00    +0.000 A 
ATOM     25  C   UNL     1       0.946   2.873  19.853  0.00  0.00    +0.000 A 
ATOM     26  C   UNL     1       1.207   4.166  20.305  0.00  0.00    +0.000 A 
ENDBRANCH   7  21
TORSDOF 2
ENDMDL
MODEL 9
REMARK VINA RESULT:      -7.1      4.333      6.083
REMARK  Name = 
REMARK  4 active torsions:
REMARK  status: ('A' for Active; 'I' for Inactive)
REMARK    1  A    between atoms: C_1  and  C_2
REMARK    2  A    between atoms: C_4  and  C_5
REMARK    3  A    between atoms: N_11  and  C_12
REMARK    4  A    between atoms: C_19  and  C_20
REMARK                            x       y       z     vdW  Elec       q    Type
REMARK                         _______ _______ _______ _____ _____    ______ ____
ROOT
ATOM      1  C   UNL     1       2.903   6.537  18.943  0.00  0.00    +0.000 A 
ATOM      2  N   UNL     1       3.969   6.193  18.138  0.00  0.00    +0.000 NA
ATOM      3  C   UNL     1       4.414   4.994  18.429  0.00  0.00    +0.000 A 
ATOM      4  N   UNL     1       5.422   4.378  17.759  0.00  0.00    +0.000 N 
ATOM      5  C   UNL     1       6.165   4.935  16.753  0.00  0.00    +0.000 C 
ATOM      6  N   UNL     1       6.287   6.213  16.572  0.00  0.00    +0.000 NA
ATOM      7  N   UNL     1       6.771   4.023  15.920  0.00  0.00    +0.000 N 
ATOM      8  S   UNL     1       3.594   4.229  19.733  0.00  0.00    +0.000 S 
ATOM      9  C   UNL     1       2.548   5.588  19.882  0.00  0.00    +0.000 A 
ATOM     10  C   UNL     1       1.444   5.606  20.877  0.00  0.00    +0.000 C 
ATOM     11  H   UNL     1       5.658   3.442  18.048  0.00  0.00    +0.000 HD
ATOM     12  H   UNL     1       5.704   6.687  17.277  0.00  0.00    +0.000 HD
ATOM     13  H   UNL     1       6.592   3.046  16.102  0.00  0.00    +0.000 HD
ENDROOT
BRANCH   1  17
ATOM     14  C   UNL     1       0.334  10.874  19.624  0.00  0.00    +0.000 C 
ATOM     15  C   UNL     1       1.121   9.742  19.080  0.00  0.00    +0.000 A 
ATOM     16  C   UNL     1       1.566   8.577  19.675  0.00  0.00    +0.000 A 
ATOM     17  C   UNL     1       2.278   7.837  18.696  0.00  0.00    +0.000 A 
ATOM     18  C   UNL     1       2.237   8.564  17.527  0.00  0.00    +0.000 A 
ATOM     19  N   UNL     1       1.531   9.715  17.770  0.00  0.00    +0.000 N 
ATOM     20  H   UNL     1       1.332  10.431  17.083  0.00  0.00    +0.000 HD
ENDBRANCH   1  17
BRANCH   7  21
ATOM     21  C   UNL     1       6.867   4.233  14.517  0.00  0.00    +0.000 A 
ATOM     22  C   UNL     1       7.795   5.158  14.024  0.00  0.00    +0.000 A 
ATOM     23  C   UNL     1       7.912   5.387  12.648  0.00  0.00    +0.000 A 
ATOM     24  C   UNL     1       7.122   4.675  11.747  0.00  0.00    +0.000 A 
ATOM     25  C   UNL     1       6.213   3.733  12.222  0.00  0.00    +0.000 A 
ATOM     26  C   UNL     1       6.090   3.516  13.594  0.00  0.00    +0.000 A 
ENDBRANCH   7  21
TORSDOF 2
ENDMDL
