MODEL 1
REMARK VINA RESULT:      -9.1      0.000      0.000
REMARK  Name = 
REMARK  7 active torsions:
REMARK  status: ('A' for Active; 'I' for Inactive)
REMARK    1  A    between atoms: C_2  and  C_15
REMARK    2  A    between atoms: N_3  and  C_4
REMARK    3  A    between atoms: C_7  and  O_8
REMARK    4  A    between atoms: O_8  and  C_9
REMARK    5  A    between atoms: C_18  and  N_19
REMARK    6  A    between atoms: C_23  and  O_24
REMARK    7  A    between atoms: C_26  and  C_27
REMARK                            x       y       z     vdW  Elec       q    Type
REMARK                         _______ _______ _______ _____ _____    ______ ____
ROOT
ATOM      1  C   UNL     1       2.181   8.102  18.545  0.00  0.00    +0.000 A 
ATOM      2  C   UNL     1       3.225   8.361  17.697  0.00  0.00    +0.000 A 
ATOM      3  N   UNL     1       4.062   7.401  17.235  0.00  0.00    +0.000 NA
ATOM      4  C   UNL     1       3.914   6.105  17.640  0.00  0.00    +0.000 A 
ATOM      5  C   UNL     1       2.839   5.743  18.492  0.00  0.00    +0.000 A 
ATOM      6  C   UNL     1       1.995   6.779  18.938  0.00  0.00    +0.000 A 
ENDROOT
BRANCH   4   7
ATOM      7  N   UNL     1       4.888   5.238  17.177  0.00  0.00    +0.000 N 
ATOM      8  C   UNL     1       4.536   4.356  16.055  0.00  0.00    +0.000 C 
ATOM      9  C   UNL     1       5.779   3.823  15.336  0.00  0.00    +0.000 C 
ATOM     10  C   UNL     1       6.827   4.919  15.213  0.00  0.00    +0.000 C 
ATOM     11  C   UNL     1       7.309   5.365  16.594  0.00  0.00    +0.000 C 
ATOM     12  C   UNL     1       6.257   5.158  17.700  0.00  0.00    +0.000 C 
BRANCH  11  13
ATOM     13  O   UNL     1       7.702   6.738  16.526  0.00  0.00    +0.000 OA
ATOM     14  H   UNL     1       7.796   7.042  17.447  0.00  0.00    +0.000 HD
ENDBRANCH  11  13
ENDBRANCH   4   7
BRANCH   5  15
ATOM     15  C   UNL     1       2.503   4.366  18.913  0.00  0.00    +0.000 A 
ATOM     16  C   UNL     1       1.499   3.617  18.279  0.00  0.00    +0.000 A 
ATOM     17  C   UNL     1       1.157   2.350  18.744  0.00  0.00    +0.000 A 
ATOM     18  C   UNL     1       1.820   1.861  19.855  0.00  0.00    +0.000 A 
ATOM     19  N   UNL     1       2.819   2.518  20.477  0.00  0.00    +0.000 NA
ATOM     20  C   UNL     1       3.154   3.730  19.972  0.00  0.00    +0.000 A 
ENDBRANCH   5  15
BRANCH   1  22
ATOM     21  O   UNL     1       0.804   9.926  18.301  0.00  0.00    +0.000 OA
ATOM     22  C   UNL     1       1.297   9.143  19.103  0.00  0.00    +0.000 C 
ATOM     23  N   UNL     1       1.165   9.174  20.480  0.00  0.00    +0.000 N 
ATOM     24  H   UNL     1       1.780   8.587  21.029  0.00  0.00    +0.000 HD
BRANCH  23  25
ATOM     25  C   UNL     1       0.385  10.103  21.204  0.00  0.00    +0.000 A 
ATOM     26  C   UNL     1       0.296  11.457  20.875  0.00  0.00    +0.000 A 
ATOM     27  C   UNL     1      -0.472  12.332  21.649  0.00  0.00    +0.000 A 
ATOM     28  C   UNL     1      -1.183  11.865  22.755  0.00  0.00    +0.000 A 
ATOM     29  C   UNL     1      -1.086  10.521  23.102  0.00  0.00    +0.000 A 
ATOM     30  C   UNL     1      -0.327   9.639  22.317  0.00  0.00    +0.000 A 
BRANCH  28  31
ATOM     31  O   UNL     1      -1.842  12.822  23.460  0.00  0.00    +0.000 OA
BRANCH  31  32
ATOM     32  C   UNL     1      -3.262  12.786  23.514  0.00  0.00    +0.000 C 
ATOM     33  F   UNL     1      -3.767  11.977  24.467  0.00  0.00    +0.000 F 
ATOM     34  F   UNL     1      -3.722  14.038  23.730  0.00  0.00    +0.000 F 
ATOM     35  F   UNL     1      -3.732  12.367  22.317  0.00  0.00    +0.000 F 
ENDBRANCH  31  32
ENDBRANCH  28  31
ENDBRANCH  23  25
ENDBRANCH   1  22
TORSDOF 7
ENDMDL
MODEL 2
REMARK VINA RESULT:      -8.9      1.017      1.069
REMARK  Name = 
REMARK  7 active torsions:
REMARK  status: ('A' for Active; 'I' for Inactive)
REMARK    1  A    between atoms: C_2  and  C_15
REMARK    2  A    between atoms: N_3  and  C_4
REMARK    3  A    between atoms: C_7  and  O_8
REMARK    4  A    between atoms: O_8  and  C_9
REMARK    5  A    between atoms: C_18  and  N_19
REMARK    6  A    between atoms: C_23  and  O_24
REMARK    7  A    between atoms: C_26  and  C_27
REMARK                            x       y       z     vdW  Elec       q    Type
REMARK                         _______ _______ _______ _____ _____    ______ ____
ROOT
ATOM      1  C   UNL     1       2.056   8.317  18.801  0.00  0.00    +0.000 A 
ATOM      2  C   UNL     1       3.048   8.361  17.858  0.00  0.00    +0.000 A 
ATOM      3  N   UNL     1       3.821   7.294  17.543  0.00  0.00    +0.000 NA
ATOM      4  C   UNL     1       3.661   6.108  18.204  0.00  0.00    +0.000 A 
ATOM      5  C   UNL     1       2.635   5.966  19.173  0.00  0.00    +0.000 A 
ATOM      6  C   UNL     1       1.856   7.104  19.457  0.00  0.00    +0.000 A 
ENDROOT
BRANCH   4   7
ATOM      7  N   UNL     1       4.574   5.126  17.861  0.00  0.00    +0.000 N 
ATOM      8  C   UNL     1       4.396   4.455  16.565  0.00  0.00    +0.000 C 
ATOM      9  C   UNL     1       5.686   3.774  16.094  0.00  0.00    +0.000 C 
ATOM     10  C   UNL     1       6.889   4.656  16.399  0.00  0.00    +0.000 C 
ATOM     11  C   UNL     1       7.050   4.848  17.907  0.00  0.00    +0.000 C 
ATOM     12  C   UNL     1       5.724   4.728  18.681  0.00  0.00    +0.000 C 
BRANCH  11  13
ATOM     13  O   UNL     1       7.659   6.119  18.149  0.00  0.00    +0.000 OA
ATOM     14  H   UNL     1       7.376   6.701  17.421  0.00  0.00    +0.000 HD
ENDBRANCH  11  13
ENDBRANCH   4   7
BRANCH   5  15
ATOM     15  C   UNL     1       2.286   4.713  19.875  0.00  0.00    +0.000 A 
ATOM     16  C   UNL     1       1.611   3.662  19.234  0.00  0.00    +0.000 A 
ATOM     17  C   UNL     1       1.232   2.523  19.942  0.00  0.00    +0.000 A 
ATOM     18  C   UNL     1       1.523   2.467  21.292  0.00  0.00    +0.000 A 
ATOM     19  N   UNL     1       2.204   3.427  21.949  0.00  0.00    +0.000 NA
ATOM     20  C   UNL     1       2.593   4.501  21.221  0.00  0.00    +0.000 A 
ENDBRANCH   5  15
BRANCH   1  22
ATOM     21  O   UNL     1       1.367  10.489  18.509  0.00  0.00    +0.000 OA
ATOM     22  C   UNL     1       1.245   9.484  19.197  0.00  0.00    +0.000 C 
ATOM     23  N   UNL     1       0.479   9.351  20.341  0.00  0.00    +0.000 N 
ATOM     24  H   UNL     1       0.622   8.529  20.914  0.00  0.00    +0.000 HD
BRANCH  23  25
ATOM     25  C   UNL     1      -0.346  10.357  20.893  0.00  0.00    +0.000 A 
ATOM     26  C   UNL     1      -1.120  11.227  20.121  0.00  0.00    +0.000 A 
ATOM     27  C   UNL     1      -1.895  12.220  20.726  0.00  0.00    +0.000 A 
ATOM     28  C   UNL     1      -1.926  12.350  22.116  0.00  0.00    +0.000 A 
ATOM     29  C   UNL     1      -1.144  11.500  22.892  0.00  0.00    +0.000 A 
ATOM     30  C   UNL     1      -0.378  10.492  22.286  0.00  0.00    +0.000 A 
BRANCH  28  31
ATOM     31  O   UNL     1      -2.669  13.391  22.579  0.00  0.00    +0.000 OA
BRANCH  31  32
ATOM     32  C   UNL     1      -3.916  13.125  23.207  0.00  0.00    +0.000 C 
ATOM     33  F   UNL     1      -3.835  12.351  24.308  0.00  0.00    +0.000 F 
ATOM     34  F   UNL     1      -4.489  14.298  23.551  0.00  0.00    +0.000 F 
ATOM     35  F   UNL     1      -4.726  12.506  22.319  0.00  0.00    +0.000 F 
ENDBRANCH  31  32
ENDBRANCH  28  31
ENDBRANCH  23  25
ENDBRANCH   1  22
TORSDOF 7
ENDMDL
MODEL 3
REMARK VINA RESULT:      -8.8      0.173      1.073
REMARK  Name = 
REMARK  7 active torsions:
REMARK  status: ('A' for Active; 'I' for Inactive)
REMARK    1  A    between atoms: C_2  and  C_15
REMARK    2  A    between atoms: N_3  and  C_4
REMARK    3  A    between atoms: C_7  and  O_8
REMARK    4  A    between atoms: O_8  and  C_9
REMARK    5  A    between atoms: C_18  and  N_19
REMARK    6  A    between atoms: C_23  and  O_24
REMARK    7  A    between atoms: C_26  and  C_27
REMARK                            x       y       z     vdW  Elec       q    Type
REMARK                         _______ _______ _______ _____ _____    ______ ____
ROOT
ATOM      1  C   UNL     1       2.123   8.074  18.644  0.00  0.00    +0.000 A 
ATOM      2  C   UNL     1       3.164   8.356  17.798  0.00  0.00    +0.000 A 
ATOM      3  N   UNL     1       4.005   7.410  17.315  0.00  0.00    +0.000 NA
ATOM      4  C   UNL     1       3.866   6.105  17.697  0.00  0.00    +0.000 A 
ATOM      5  C   UNL     1       2.796   5.721  18.544  0.00  0.00    +0.000 A 
ATOM      6  C   UNL     1       1.946   6.743  19.012  0.00  0.00    +0.000 A 
ENDROOT
BRANCH   4   7
ATOM      7  N   UNL     1       4.844   5.253  17.214  0.00  0.00    +0.000 N 
ATOM      8  C   UNL     1       4.497   4.400  16.069  0.00  0.00    +0.000 C 
ATOM      9  C   UNL     1       5.745   3.888  15.340  0.00  0.00    +0.000 C 
ATOM     10  C   UNL     1       6.790   4.990  15.250  0.00  0.00    +0.000 C 
ATOM     11  C   UNL     1       7.266   5.401  16.643  0.00  0.00    +0.000 C 
ATOM     12  C   UNL     1       6.212   5.163  17.740  0.00  0.00    +0.000 C 
BRANCH  11  13
ATOM     13  O   UNL     1       7.656   6.776  16.612  0.00  0.00    +0.000 OA
ATOM     14  H   UNL     1       6.993   7.260  17.137  0.00  0.00    +0.000 HD
ENDBRANCH  11  13
ENDBRANCH   4   7
BRANCH   5  15
ATOM     15  C   UNL     1       2.469   4.334  18.940  0.00  0.00    +0.000 A 
ATOM     16  C   UNL     1       1.501   3.575  18.264  0.00  0.00    +0.000 A 
ATOM     17  C   UNL     1       1.164   2.297  18.705  0.00  0.00    +0.000 A 
ATOM     18  C   UNL     1       1.797   1.808  19.834  0.00  0.00    +0.000 A 
ATOM     19  N   UNL     1       2.762   2.475  20.496  0.00  0.00    +0.000 NA
ATOM     20  C   UNL     1       3.094   3.699  20.015  0.00  0.00    +0.000 A 
ENDBRANCH   5  15
BRANCH   1  22
ATOM     21  O   UNL     1       0.618   9.797  18.430  0.00  0.00    +0.000 OA
ATOM     22  C   UNL     1       1.236   9.099  19.224  0.00  0.00    +0.000 C 
ATOM     23  N   UNL     1       1.238   9.216  20.603  0.00  0.00    +0.000 N 
ATOM     24  H   UNL     1       1.940   8.703  21.121  0.00  0.00    +0.000 HD
BRANCH  23  25
ATOM     25  C   UNL     1       0.475  10.146  21.345  0.00  0.00    +0.000 A 
ATOM     26  C   UNL     1      -0.373   9.784  22.393  0.00  0.00    +0.000 A 
ATOM     27  C   UNL     1      -1.124  10.750  23.071  0.00  0.00    +0.000 A 
ATOM     28  C   UNL     1      -1.024  12.098  22.725  0.00  0.00    +0.000 A 
ATOM     29  C   UNL     1      -0.196  12.466  21.670  0.00  0.00    +0.000 A 
ATOM     30  C   UNL     1       0.570  11.500  20.999  0.00  0.00    +0.000 A 
BRANCH  28  31
ATOM     31  O   UNL     1      -1.848  12.930  23.416  0.00  0.00    +0.000 OA
BRANCH  31  32
ATOM     32  C   UNL     1      -3.254  12.815  23.240  0.00  0.00    +0.000 C 
ATOM     33  F   UNL     1      -3.630  12.341  22.035  0.00  0.00    +0.000 F 
ATOM     34  F   UNL     1      -3.746  11.994  24.194  0.00  0.00    +0.000 F 
ATOM     35  F   UNL     1      -3.814  14.034  23.405  0.00  0.00    +0.000 F 
ENDBRANCH  31  32
ENDBRANCH  28  31
ENDBRANCH  23  25
ENDBRANCH   1  22
TORSDOF 7
ENDMDL
MODEL 4
REMARK VINA RESULT:      -8.7      1.606      1.953
REMARK  Name = 
REMARK  7 active torsions:
REMARK  status: ('A' for Active; 'I' for Inactive)
REMARK    1  A    between atoms: C_2  and  C_15
REMARK    2  A    between atoms: N_3  and  C_4
REMARK    3  A    between atoms: C_7  and  O_8
REMARK    4  A    between atoms: O_8  and  C_9
REMARK    5  A    between atoms: C_18  and  N_19
REMARK    6  A    between atoms: C_23  and  O_24
REMARK    7  A    between atoms: C_26  and  C_27
REMARK                            x       y       z     vdW  Elec       q    Type
REMARK                         _______ _______ _______ _____ _____    ______ ____
ROOT
ATOM      1  C   UNL     1       2.259   8.469  18.269  0.00  0.00    +0.000 A 
ATOM      2  C   UNL     1       3.331   8.421  17.417  0.00  0.00    +0.000 A 
ATOM      3  N   UNL     1       4.079   7.308  17.227  0.00  0.00    +0.000 NA
ATOM      4  C   UNL     1       3.807   6.167  17.929  0.00  0.00    +0.000 A 
ATOM      5  C   UNL     1       2.695   6.120  18.808  0.00  0.00    +0.000 A 
ATOM      6  C   UNL     1       1.947   7.303  18.964  0.00  0.00    +0.000 A 
ENDROOT
BRANCH   4   7
ATOM      7  N   UNL     1       4.700   5.131  17.718  0.00  0.00    +0.000 N 
ATOM      8  C   UNL     1       4.604   4.398  16.449  0.00  0.00    +0.000 C 
ATOM      9  C   UNL     1       5.897   3.640  16.128  0.00  0.00    +0.000 C 
ATOM     10  C   UNL     1       7.108   4.486  16.492  0.00  0.00    +0.000 C 
ATOM     11  C   UNL     1       7.149   4.755  17.996  0.00  0.00    +0.000 C 
ATOM     12  C   UNL     1       5.757   4.733  18.656  0.00  0.00    +0.000 C 
BRANCH  11  13
ATOM     13  O   UNL     1       7.792   6.012  18.224  0.00  0.00    +0.000 OA
ATOM     14  H   UNL     1       8.744   5.862  18.080  0.00  0.00    +0.000 HD
ENDBRANCH  11  13
ENDBRANCH   4   7
BRANCH   5  15
ATOM     15  C   UNL     1       2.228   4.922  19.538  0.00  0.00    +0.000 A 
ATOM     16  C   UNL     1       1.432   3.940  18.927  0.00  0.00    +0.000 A 
ATOM     17  C   UNL     1       0.948   2.860  19.661  0.00  0.00    +0.000 A 
ATOM     18  C   UNL     1       1.260   2.791  21.006  0.00  0.00    +0.000 A 
ATOM     19  N   UNL     1       2.054   3.682  21.634  0.00  0.00    +0.000 NA
ATOM     20  C   UNL     1       2.540   4.698  20.880  0.00  0.00    +0.000 A 
ENDBRANCH   5  15
BRANCH   1  22
ATOM     21  O   UNL     1       1.957  10.743  18.144  0.00  0.00    +0.000 OA
ATOM     22  C   UNL     1       1.472   9.688  18.532  0.00  0.00    +0.000 C 
ATOM     23  N   UNL     1       0.298   9.529  19.247  0.00  0.00    +0.000 N 
ATOM     24  H   UNL     1       0.117   8.626  19.667  0.00  0.00    +0.000 HD
BRANCH  23  25
ATOM     25  C   UNL     1      -0.582  10.572  19.614  0.00  0.00    +0.000 A 
ATOM     26  C   UNL     1      -0.459  11.301  20.800  0.00  0.00    +0.000 A 
ATOM     27  C   UNL     1      -1.379  12.303  21.120  0.00  0.00    +0.000 A 
ATOM     28  C   UNL     1      -2.428  12.610  20.252  0.00  0.00    +0.000 A 
ATOM     29  C   UNL     1      -2.569  11.877  19.078  0.00  0.00    +0.000 A 
ATOM     30  C   UNL     1      -1.637  10.881  18.748  0.00  0.00    +0.000 A 
BRANCH  28  31
ATOM     31  O   UNL     1      -3.289  13.561  20.704  0.00  0.00    +0.000 OA
BRANCH  31  32
ATOM     32  C   UNL     1      -4.552  13.161  21.219  0.00  0.00    +0.000 C 
ATOM     33  F   UNL     1      -5.370  12.589  20.312  0.00  0.00    +0.000 F 
ATOM     34  F   UNL     1      -4.354  12.286  22.228  0.00  0.00    +0.000 F 
ATOM     35  F   UNL     1      -5.179  14.248  21.722  0.00  0.00    +0.000 F 
ENDBRANCH  31  32
ENDBRANCH  28  31
ENDBRANCH  23  25
ENDBRANCH   1  22
TORSDOF 7
ENDMDL
MODEL 5
REMARK VINA RESULT:      -8.7      1.576      1.919
REMARK  Name = 
REMARK  7 active torsions:
REMARK  status: ('A' for Active; 'I' for Inactive)
REMARK    1  A    between atoms: C_2  and  C_15
REMARK    2  A    between atoms: N_3  and  C_4
REMARK    3  A    between atoms: C_7  and  O_8
REMARK    4  A    between atoms: O_8  and  C_9
REMARK    5  A    between atoms: C_18  and  N_19
REMARK    6  A    between atoms: C_23  and  O_24
REMARK    7  A    between atoms: C_26  and  C_27
REMARK                            x       y       z     vdW  Elec       q    Type
REMARK                         _______ _______ _______ _____ _____    ______ ____
ROOT
ATOM      1  C   UNL     1       2.217   8.441  18.294  0.00  0.00    +0.000 A 
ATOM      2  C   UNL     1       3.305   8.417  17.462  0.00  0.00    +0.000 A 
ATOM      3  N   UNL     1       4.063   7.312  17.262  0.00  0.00    +0.000 NA
ATOM      4  C   UNL     1       3.785   6.155  17.934  0.00  0.00    +0.000 A 
ATOM      5  C   UNL     1       2.657   6.083  18.790  0.00  0.00    +0.000 A 
ATOM      6  C   UNL     1       1.899   7.258  18.957  0.00  0.00    +0.000 A 
ENDROOT
BRANCH   4   7
ATOM      7  N   UNL     1       4.688   5.129  17.718  0.00  0.00    +0.000 N 
ATOM      8  C   UNL     1       4.587   4.388  16.453  0.00  0.00    +0.000 C 
ATOM      9  C   UNL     1       5.885   3.644  16.122  0.00  0.00    +0.000 C 
ATOM     10  C   UNL     1       7.089   4.507  16.468  0.00  0.00    +0.000 C 
ATOM     11  C   UNL     1       7.144   4.783  17.971  0.00  0.00    +0.000 C 
ATOM     12  C   UNL     1       5.760   4.747  18.646  0.00  0.00    +0.000 C 
BRANCH  11  13
ATOM     13  O   UNL     1       7.774   6.048  18.186  0.00  0.00    +0.000 OA
ATOM     14  H   UNL     1       8.670   5.975  17.810  0.00  0.00    +0.000 HD
ENDBRANCH  11  13
ENDBRANCH   4   7
BRANCH   5  15
ATOM     15  C   UNL     1       2.184   4.867  19.486  0.00  0.00    +0.000 A 
ATOM     16  C   UNL     1       2.351   4.686  20.868  0.00  0.00    +0.000 A 
ATOM     17  C   UNL     1       1.958   3.498  21.482  0.00  0.00    +0.000 A 
ATOM     18  C   UNL     1       1.418   2.501  20.690  0.00  0.00    +0.000 A 
ATOM     19  N   UNL     1       1.196   2.637  19.368  0.00  0.00    +0.000 NA
ATOM     20  C   UNL     1       1.552   3.820  18.811  0.00  0.00    +0.000 A 
ENDBRANCH   5  15
BRANCH   1  22
ATOM     21  O   UNL     1       1.890  10.712  18.185  0.00  0.00    +0.000 OA
ATOM     22  C   UNL     1       1.418   9.650  18.568  0.00  0.00    +0.000 C 
ATOM     23  N   UNL     1       0.249   9.473  19.286  0.00  0.00    +0.000 N 
ATOM     24  H   UNL     1       0.080   8.566  19.701  0.00  0.00    +0.000 HD
BRANCH  23  25
ATOM     25  C   UNL     1      -0.641  10.504  19.664  0.00  0.00    +0.000 A 
ATOM     26  C   UNL     1      -0.572  11.169  20.891  0.00  0.00    +0.000 A 
ATOM     27  C   UNL     1      -1.499  12.163  21.218  0.00  0.00    +0.000 A 
ATOM     28  C   UNL     1      -2.501  12.524  20.316  0.00  0.00    +0.000 A 
ATOM     29  C   UNL     1      -2.589  11.854  19.099  0.00  0.00    +0.000 A 
ATOM     30  C   UNL     1      -1.649  10.868  18.764  0.00  0.00    +0.000 A 
BRANCH  28  31
ATOM     31  O   UNL     1      -3.376  13.459  20.774  0.00  0.00    +0.000 OA
BRANCH  31  32
ATOM     32  C   UNL     1      -4.475  13.043  21.575  0.00  0.00    +0.000 C 
ATOM     33  F   UNL     1      -4.132  12.353  22.682  0.00  0.00    +0.000 F 
ATOM     34  F   UNL     1      -5.176  14.135  21.952  0.00  0.00    +0.000 F 
ATOM     35  F   UNL     1      -5.286  12.261  20.828  0.00  0.00    +0.000 F 
ENDBRANCH  31  32
ENDBRANCH  28  31
ENDBRANCH  23  25
ENDBRANCH   1  22
TORSDOF 7
ENDMDL
MODEL 6
REMARK VINA RESULT:      -8.7      1.071      1.465
REMARK  Name = 
REMARK  7 active torsions:
REMARK  status: ('A' for Active; 'I' for Inactive)
REMARK    1  A    between atoms: C_2  and  C_15
REMARK    2  A    between atoms: N_3  and  C_4
REMARK    3  A    between atoms: C_7  and  O_8
REMARK    4  A    between atoms: O_8  and  C_9
REMARK    5  A    between atoms: C_18  and  N_19
REMARK    6  A    between atoms: C_23  and  O_24
REMARK    7  A    between atoms: C_26  and  C_27
REMARK                            x       y       z     vdW  Elec       q    Type
REMARK                         _______ _______ _______ _____ _____    ______ ____
ROOT
ATOM      1  C   UNL     1       2.138   8.314  18.583  0.00  0.00    +0.000 A 
ATOM      2  C   UNL     1       3.164   8.354  17.676  0.00  0.00    +0.000 A 
ATOM      3  N   UNL     1       3.933   7.280  17.377  0.00  0.00    +0.000 NA
ATOM      4  C   UNL     1       3.734   6.089  18.018  0.00  0.00    +0.000 A 
ATOM      5  C   UNL     1       2.672   5.951  18.948  0.00  0.00    +0.000 A 
ATOM      6  C   UNL     1       1.898   7.098  19.217  0.00  0.00    +0.000 A 
ENDROOT
BRANCH   4   7
ATOM      7  N   UNL     1       4.645   5.098  17.697  0.00  0.00    +0.000 N 
ATOM      8  C   UNL     1       4.529   4.472  16.373  0.00  0.00    +0.000 C 
ATOM      9  C   UNL     1       5.830   3.777  15.955  0.00  0.00    +0.000 C 
ATOM     10  C   UNL     1       7.030   4.622  16.357  0.00  0.00    +0.000 C 
ATOM     11  C   UNL     1       7.108   4.764  17.877  0.00  0.00    +0.000 C 
ATOM     12  C   UNL     1       5.737   4.650  18.569  0.00  0.00    +0.000 C 
BRANCH  11  13
ATOM     13  O   UNL     1       7.728   6.013  18.193  0.00  0.00    +0.000 OA
ATOM     14  H   UNL     1       8.005   6.404  17.345  0.00  0.00    +0.000 HD
ENDBRANCH  11  13
ENDBRANCH   4   7
BRANCH   5  15
ATOM     15  C   UNL     1       2.281   4.696  19.624  0.00  0.00    +0.000 A 
ATOM     16  C   UNL     1       2.416   4.522  21.011  0.00  0.00    +0.000 A 
ATOM     17  C   UNL     1       2.106   3.302  21.608  0.00  0.00    +0.000 A 
ATOM     18  C   UNL     1       1.678   2.268  20.796  0.00  0.00    +0.000 A 
ATOM     19  N   UNL     1       1.490   2.391  19.467  0.00  0.00    +0.000 NA
ATOM     20  C   UNL     1       1.763   3.603  18.926  0.00  0.00    +0.000 A 
ENDBRANCH   5  15
BRANCH   1  22
ATOM     21  O   UNL     1       1.505  10.504  18.303  0.00  0.00    +0.000 OA
ATOM     22  C   UNL     1       1.330   9.488  18.962  0.00  0.00    +0.000 C 
ATOM     23  N   UNL     1       0.506   9.346  20.064  0.00  0.00    +0.000 N 
ATOM     24  H   UNL     1       0.605   8.510  20.626  0.00  0.00    +0.000 HD
BRANCH  23  25
ATOM     25  C   UNL     1      -0.328  10.356  20.596  0.00  0.00    +0.000 A 
ATOM     26  C   UNL     1      -1.168  11.152  19.813  0.00  0.00    +0.000 A 
ATOM     27  C   UNL     1      -1.948  12.154  20.396  0.00  0.00    +0.000 A 
ATOM     28  C   UNL     1      -1.918  12.367  21.774  0.00  0.00    +0.000 A 
ATOM     29  C   UNL     1      -1.070  11.593  22.560  0.00  0.00    +0.000 A 
ATOM     30  C   UNL     1      -0.298  10.575  21.978  0.00  0.00    +0.000 A 
BRANCH  28  31
ATOM     31  O   UNL     1      -2.675  13.410  22.211  0.00  0.00    +0.000 OA
BRANCH  31  32
ATOM     32  C   UNL     1      -3.925  13.144  22.834  0.00  0.00    +0.000 C 
ATOM     33  F   UNL     1      -4.633  14.244  23.161  0.00  0.00    +0.000 F 
ATOM     34  F   UNL     1      -4.672  12.386  22.002  0.00  0.00    +0.000 F 
ATOM     35  F   UNL     1      -3.706  12.436  23.964  0.00  0.00    +0.000 F 
ENDBRANCH  31  32
ENDBRANCH  28  31
ENDBRANCH  23  25
ENDBRANCH   1  22
TORSDOF 7
ENDMDL
MODEL 7
REMARK VINA RESULT:      -8.5      1.336      1.537
REMARK  Name = 
REMARK  7 active torsions:
REMARK  status: ('A' for Active; 'I' for Inactive)
REMARK    1  A    between atoms: C_2  and  C_15
REMARK    2  A    between atoms: N_3  and  C_4
REMARK    3  A    between atoms: C_7  and  O_8
REMARK    4  A    between atoms: O_8  and  C_9
REMARK    5  A    between atoms: C_18  and  N_19
REMARK    6  A    between atoms: C_23  and  O_24
REMARK    7  A    between atoms: C_26  and  C_27
REMARK                            x       y       z     vdW  Elec       q    Type
REMARK                         _______ _______ _______ _____ _____    ______ ____
ROOT
ATOM      1  C   UNL     1       2.042   8.330  18.810  0.00  0.00    +0.000 A 
ATOM      2  C   UNL     1       3.025   8.359  17.857  0.00  0.00    +0.000 A 
ATOM      3  N   UNL     1       3.781   7.281  17.538  0.00  0.00    +0.000 NA
ATOM      4  C   UNL     1       3.613   6.099  18.204  0.00  0.00    +0.000 A 
ATOM      5  C   UNL     1       2.595   5.973  19.183  0.00  0.00    +0.000 A 
ATOM      6  C   UNL     1       1.832   7.122  19.472  0.00  0.00    +0.000 A 
ENDROOT
BRANCH   4   7
ATOM      7  N   UNL     1       4.509   5.104  17.855  0.00  0.00    +0.000 N 
ATOM      8  C   UNL     1       4.316   4.438  16.560  0.00  0.00    +0.000 C 
ATOM      9  C   UNL     1       5.593   3.739  16.081  0.00  0.00    +0.000 C 
ATOM     10  C   UNL     1       6.810   4.603  16.381  0.00  0.00    +0.000 C 
ATOM     11  C   UNL     1       6.982   4.790  17.889  0.00  0.00    +0.000 C 
ATOM     12  C   UNL     1       5.658   4.689  18.669  0.00  0.00    +0.000 C 
BRANCH  11  13
ATOM     13  O   UNL     1       7.610   6.052  18.129  0.00  0.00    +0.000 OA
ATOM     14  H   UNL     1       7.731   6.468  17.256  0.00  0.00    +0.000 HD
ENDBRANCH  11  13
ENDBRANCH   4   7
BRANCH   5  15
ATOM     15  C   UNL     1       2.236   4.727  19.893  0.00  0.00    +0.000 A 
ATOM     16  C   UNL     1       1.510   3.698  19.273  0.00  0.00    +0.000 A 
ATOM     17  C   UNL     1       1.125   2.567  19.989  0.00  0.00    +0.000 A 
ATOM     18  C   UNL     1       1.463   2.496  21.328  0.00  0.00    +0.000 A 
ATOM     19  N   UNL     1       2.194   3.433  21.964  0.00  0.00    +0.000 NA
ATOM     20  C   UNL     1       2.586   4.500  21.226  0.00  0.00    +0.000 A 
ENDBRANCH   5  15
BRANCH   1  22
ATOM     21  O   UNL     1       1.415  10.525  18.548  0.00  0.00    +0.000 OA
ATOM     22  C   UNL     1       1.250   9.509  19.210  0.00  0.00    +0.000 C 
ATOM     23  N   UNL     1       0.452   9.371  20.332  0.00  0.00    +0.000 N 
ATOM     24  H   UNL     1       0.560   8.534  20.891  0.00  0.00    +0.000 HD
BRANCH  23  25
ATOM     25  C   UNL     1      -0.362  10.386  20.884  0.00  0.00    +0.000 A 
ATOM     26  C   UNL     1      -1.101  11.286  20.112  0.00  0.00    +0.000 A 
ATOM     27  C   UNL     1      -1.866  12.286  20.719  0.00  0.00    +0.000 A 
ATOM     28  C   UNL     1      -1.923  12.393  22.109  0.00  0.00    +0.000 A 
ATOM     29  C   UNL     1      -1.176  11.513  22.886  0.00  0.00    +0.000 A 
ATOM     30  C   UNL     1      -0.420  10.498  22.278  0.00  0.00    +0.000 A 
BRANCH  28  31
ATOM     31  O   UNL     1      -2.652  13.442  22.575  0.00  0.00    +0.000 OA
BRANCH  31  32
ATOM     32  C   UNL     1      -1.976  14.554  23.147  0.00  0.00    +0.000 C 
ATOM     33  F   UNL     1      -0.746  14.783  22.641  0.00  0.00    +0.000 F 
ATOM     34  F   UNL     1      -2.726  15.662  22.963  0.00  0.00    +0.000 F 
ATOM     35  F   UNL     1      -1.850  14.348  24.477  0.00  0.00    +0.000 F 
ENDBRANCH  31  32
ENDBRANCH  28  31
ENDBRANCH  23  25
ENDBRANCH   1  22
TORSDOF 7
ENDMDL
MODEL 8
REMARK VINA RESULT:      -8.5      1.065      1.285
REMARK  Name = 
REMARK  7 active torsions:
REMARK  status: ('A' for Active; 'I' for Inactive)
REMARK    1  A    between atoms: C_2  and  C_15
REMARK    2  A    between atoms: N_3  and  C_4
REMARK    3  A    between atoms: C_7  and  O_8
REMARK    4  A    between atoms: O_8  and  C_9
REMARK    5  A    between atoms: C_18  and  N_19
REMARK    6  A    between atoms: C_23  and  O_24
REMARK    7  A    between atoms: C_26  and  C_27
REMARK                            x       y       z     vdW  Elec       q    Type
REMARK                         _______ _______ _______ _____ _____    ______ ____
ROOT
ATOM      1  C   UNL     1       1.961   8.293  18.931  0.00  0.00    +0.000 A 
ATOM      2  C   UNL     1       2.928   8.370  17.963  0.00  0.00    +0.000 A 
ATOM      3  N   UNL     1       3.711   7.322  17.611  0.00  0.00    +0.000 NA
ATOM      4  C   UNL     1       3.589   6.123  18.256  0.00  0.00    +0.000 A 
ATOM      5  C   UNL     1       2.592   5.948  19.248  0.00  0.00    +0.000 A 
ATOM      6  C   UNL     1       1.800   7.067  19.571  0.00  0.00    +0.000 A 
ENDROOT
BRANCH   4   7
ATOM      7  N   UNL     1       4.510   5.164  17.874  0.00  0.00    +0.000 N 
ATOM      8  C   UNL     1       4.295   4.491  16.585  0.00  0.00    +0.000 C 
ATOM      9  C   UNL     1       5.580   3.841  16.060  0.00  0.00    +0.000 C 
ATOM     10  C   UNL     1       6.773   4.750  16.317  0.00  0.00    +0.000 C 
ATOM     11  C   UNL     1       6.992   4.944  17.818  0.00  0.00    +0.000 C 
ATOM     12  C   UNL     1       5.702   4.792  18.645  0.00  0.00    +0.000 C 
BRANCH  11  13
ATOM     13  O   UNL     1       7.580   6.229  18.037  0.00  0.00    +0.000 OA
ATOM     14  H   UNL     1       7.974   6.202  18.928  0.00  0.00    +0.000 HD
ENDBRANCH  11  13
ENDBRANCH   4   7
BRANCH   5  15
ATOM     15  C   UNL     1       2.282   4.677  19.939  0.00  0.00    +0.000 A 
ATOM     16  C   UNL     1       1.679   3.596  19.276  0.00  0.00    +0.000 A 
ATOM     17  C   UNL     1       1.335   2.439  19.971  0.00  0.00    +0.000 A 
ATOM     18  C   UNL     1       1.588   2.393  21.330  0.00  0.00    +0.000 A 
ATOM     19  N   UNL     1       2.202   3.383  22.008  0.00  0.00    +0.000 NA
ATOM     20  C   UNL     1       2.560   4.477  21.293  0.00  0.00    +0.000 A 
ENDBRANCH   5  15
BRANCH   1  22
ATOM     21  O   UNL     1       0.614  10.099  18.480  0.00  0.00    +0.000 OA
ATOM     22  C   UNL     1       1.141   9.439  19.366  0.00  0.00    +0.000 C 
ATOM     23  N   UNL     1       1.101   9.695  20.725  0.00  0.00    +0.000 N 
ATOM     24  H   UNL     1       1.737   9.183  21.323  0.00  0.00    +0.000 HD
BRANCH  23  25
ATOM     25  C   UNL     1       0.391  10.753  21.336  0.00  0.00    +0.000 A 
ATOM     26  C   UNL     1       0.606  12.100  21.034  0.00  0.00    +0.000 A 
ATOM     27  C   UNL     1      -0.110  13.103  21.694  0.00  0.00    +0.000 A 
ATOM     28  C   UNL     1      -1.068  12.777  22.654  0.00  0.00    +0.000 A 
ATOM     29  C   UNL     1      -1.276  11.440  22.976  0.00  0.00    +0.000 A 
ATOM     30  C   UNL     1      -0.569  10.431  22.303  0.00  0.00    +0.000 A 
BRANCH  28  31
ATOM     31  O   UNL     1      -1.652  13.842  23.267  0.00  0.00    +0.000 OA
BRANCH  31  32
ATOM     32  C   UNL     1      -2.852  14.378  22.726  0.00  0.00    +0.000 C 
ATOM     33  F   UNL     1      -3.424  13.619  21.769  0.00  0.00    +0.000 F 
ATOM     34  F   UNL     1      -3.744  14.546  23.726  0.00  0.00    +0.000 F 
ATOM     35  F   UNL     1      -2.585  15.592  22.193  0.00  0.00    +0.000 F 
ENDBRANCH  31  32
ENDBRANCH  28  31
ENDBRANCH  23  25
ENDBRANCH   1  22
TORSDOF 7
ENDMDL
MODEL 9
REMARK VINA RESULT:      -8.5      1.178      1.562
REMARK  Name = 
REMARK  7 active torsions:
REMARK  status: ('A' for Active; 'I' for Inactive)
REMARK    1  A    between atoms: C_2  and  C_15
REMARK    2  A    between atoms: N_3  and  C_4
REMARK    3  A    between atoms: C_7  and  O_8
REMARK    4  A    between atoms: O_8  and  C_9
REMARK    5  A    between atoms: C_18  and  N_19
REMARK    6  A    between atoms: C_23  and  O_24
REMARK    7  A    between atoms: C_26  and  C_27
REMARK                            x       y       z     vdW  Elec       q    Type
REMARK                         _______ _______ _______ _____ _____    ______ ____
ROOT
ATOM      1  C   UNL     1       2.019   8.377  18.817  0.00  0.00    +0.000 A 
ATOM      2  C   UNL     1       2.994   8.402  17.855  0.00  0.00    +0.000 A 
ATOM      3  N   UNL     1       3.735   7.319  17.520  0.00  0.00    +0.000 NA
ATOM      4  C   UNL     1       3.560   6.134  18.179  0.00  0.00    +0.000 A 
ATOM      5  C   UNL     1       2.551   6.012  19.168  0.00  0.00    +0.000 A 
ATOM      6  C   UNL     1       1.804   7.167  19.472  0.00  0.00    +0.000 A 
ENDROOT
BRANCH   4   7
ATOM      7  N   UNL     1       4.443   5.132  17.814  0.00  0.00    +0.000 N 
ATOM      8  C   UNL     1       4.583   4.839  16.381  0.00  0.00    +0.000 C 
ATOM      9  C   UNL     1       5.888   4.096  16.076  0.00  0.00    +0.000 C 
ATOM     10  C   UNL     1       7.027   4.669  16.907  0.00  0.00    +0.000 C 
ATOM     11  C   UNL     1       6.769   4.456  18.399  0.00  0.00    +0.000 C 
ATOM     12  C   UNL     1       5.273   4.365  18.751  0.00  0.00    +0.000 C 
BRANCH  11  13
ATOM     13  O   UNL     1       7.394   5.513  19.131  0.00  0.00    +0.000 OA
ATOM     14  H   UNL     1       7.000   5.498  20.022  0.00  0.00    +0.000 HD
ENDBRANCH  11  13
ENDBRANCH   4   7
BRANCH   5  15
ATOM     15  C   UNL     1       2.186   4.764  19.872  0.00  0.00    +0.000 A 
ATOM     16  C   UNL     1       1.450   3.744  19.248  0.00  0.00    +0.000 A 
ATOM     17  C   UNL     1       1.059   2.612  19.959  0.00  0.00    +0.000 A 
ATOM     18  C   UNL     1       1.402   2.531  21.297  0.00  0.00    +0.000 A 
ATOM     19  N   UNL     1       2.142   3.459  21.935  0.00  0.00    +0.000 NA
ATOM     20  C   UNL     1       2.539   4.527  21.202  0.00  0.00    +0.000 A 
ENDBRANCH   5  15
BRANCH   1  22
ATOM     21  O   UNL     1       1.403  10.576  18.569  0.00  0.00    +0.000 OA
ATOM     22  C   UNL     1       1.245   9.561  19.234  0.00  0.00    +0.000 C 
ATOM     23  N   UNL     1       0.468   9.428  20.371  0.00  0.00    +0.000 N 
ATOM     24  H   UNL     1       0.581   8.590  20.927  0.00  0.00    +0.000 HD
BRANCH  23  25
ATOM     25  C   UNL     1      -0.328  10.448  20.940  0.00  0.00    +0.000 A 
ATOM     26  C   UNL     1      -0.381  10.709  22.311  0.00  0.00    +0.000 A 
ATOM     27  C   UNL     1      -1.210  11.715  22.815  0.00  0.00    +0.000 A 
ATOM     28  C   UNL     1      -1.987  12.493  21.955  0.00  0.00    +0.000 A 
ATOM     29  C   UNL     1      -1.955  12.228  20.590  0.00  0.00    +0.000 A 
ATOM     30  C   UNL     1      -1.111  11.228  20.081  0.00  0.00    +0.000 A 
BRANCH  28  31
ATOM     31  O   UNL     1      -2.796  13.397  22.571  0.00  0.00    +0.000 OA
BRANCH  31  32
ATOM     32  C   UNL     1      -4.110  13.006  22.946  0.00  0.00    +0.000 C 
ATOM     33  F   UNL     1      -4.772  12.297  22.009  0.00  0.00    +0.000 F 
ATOM     34  F   UNL     1      -4.038  12.262  24.071  0.00  0.00    +0.000 F 
ATOM     35  F   UNL     1      -4.832  14.115  23.220  0.00  0.00    +0.000 F 
ENDBRANCH  31  32
ENDBRANCH  28  31
ENDBRANCH  23  25
ENDBRANCH   1  22
TORSDOF 7
ENDMDL
