MODEL 1
REMARK VINA RESULT:      -8.4      0.000      0.000
REMARK  Name = 
REMARK  2 active torsions:
REMARK  status: ('A' for Active; 'I' for Inactive)
REMARK    1  A    between atoms: C_2  and  C_14
REMARK    2  A    between atoms: N_3  and  C_4
REMARK                            x       y       z     vdW  Elec       q    Type
REMARK                         _______ _______ _______ _____ _____    ______ ____
ROOT
ATOM      1  O   UNL     1       2.872   7.643  18.414  0.00  0.00    +0.000 OA
ATOM      2  C   UNL     1       2.175   7.411  19.391  0.00  0.00    +0.000 C 
ATOM      3  N   UNL     1       1.994   6.148  19.934  0.00  0.00    +0.000 N 
ATOM      4  H   UNL     1       1.293   6.040  20.651  0.00  0.00    +0.000 HD
ENDROOT
BRANCH   2   5
ATOM      5  C   UNL     1       1.440   8.462  20.055  0.00  0.00    +0.000 A 
ATOM      6  C   UNL     1       0.955   8.557  21.345  0.00  0.00    +0.000 A 
ATOM      7  C   UNL     1       0.207   9.750  21.456  0.00  0.00    +0.000 A 
ATOM      8  C   UNL     1      -0.562  10.307  22.493  0.00  0.00    +0.000 A 
ATOM      9  C   UNL     1      -1.219  11.514  22.270  0.00  0.00    +0.000 A 
ATOM     10 CL   UNL     1      -2.208  12.170  23.518  0.00  0.00    +0.000 Cl
ATOM     11  C   UNL     1      -1.098  12.185  21.054  0.00  0.00    +0.000 A 
ATOM     12  C   UNL     1      -0.323  11.655  20.012  0.00  0.00    +0.000 A 
ATOM     13  C   UNL     1       0.307  10.426  20.239  0.00  0.00    +0.000 A 
ATOM     14  N   UNL     1       1.089   9.641  19.418  0.00  0.00    +0.000 N 
ATOM     15  H   UNL     1       1.338   9.855  18.460  0.00  0.00    +0.000 HD
ENDBRANCH   2   5
BRANCH   3  16
ATOM     16  C   UNL     1       2.584   4.929  19.376  0.00  0.00    +0.000 C 
ATOM     17  C   UNL     1       4.128   4.989  19.436  0.00  0.00    +0.000 C 
ATOM     18  C   UNL     1       4.746   3.722  18.831  0.00  0.00    +0.000 C 
ATOM     19  C   UNL     1       4.292   2.501  19.642  0.00  0.00    +0.000 C 
ATOM     20  C   UNL     1       2.758   2.393  19.611  0.00  0.00    +0.000 C 
ATOM     21  C   UNL     1       2.299   2.229  18.152  0.00  0.00    +0.000 C 
ATOM     22  C   UNL     1       2.739   3.445  17.325  0.00  0.00    +0.000 C 
ATOM     23  C   UNL     1       4.271   3.577  17.375  0.00  0.00    +0.000 C 
ATOM     24  C   UNL     1       2.109   4.712  17.919  0.00  0.00    +0.000 C 
ATOM     25  C   UNL     1       2.142   3.681  20.200  0.00  0.00    +0.000 C 
ENDBRANCH   3  16
TORSDOF 2
ENDMDL
MODEL 2
REMARK VINA RESULT:      -8.4      0.806      1.340
REMARK  Name = 
REMARK  2 active torsions:
REMARK  status: ('A' for Active; 'I' for Inactive)
REMARK    1  A    between atoms: C_2  and  C_14
REMARK    2  A    between atoms: N_3  and  C_4
REMARK                            x       y       z     vdW  Elec       q    Type
REMARK                         _______ _______ _______ _____ _____    ______ ____
ROOT
ATOM      1  O   UNL     1       2.861   7.698  18.506  0.00  0.00    +0.000 OA
ATOM      2  C   UNL     1       2.127   7.427  19.446  0.00  0.00    +0.000 C 
ATOM      3  N   UNL     1       1.950   6.148  19.950  0.00  0.00    +0.000 N 
ATOM      4  H   UNL     1       1.222   6.007  20.632  0.00  0.00    +0.000 HD
ENDROOT
BRANCH   2   5
ATOM      5  C   UNL     1       1.342   8.446  20.103  0.00  0.00    +0.000 A 
ATOM      6  C   UNL     1       1.028   9.736  19.724  0.00  0.00    +0.000 A 
ATOM      7  C   UNL     1       0.321  10.354  20.779  0.00  0.00    +0.000 A 
ATOM      8  C   UNL     1      -0.167  11.659  20.972  0.00  0.00    +0.000 A 
ATOM      9  C   UNL     1      -0.810  11.966  22.168  0.00  0.00    +0.000 A 
ATOM     10 CL   UNL     1      -1.357  13.578  22.432  0.00  0.00    +0.000 Cl
ATOM     11  C   UNL     1      -1.000  10.998  23.153  0.00  0.00    +0.000 A 
ATOM     12  C   UNL     1      -0.535   9.687  22.974  0.00  0.00    +0.000 A 
ATOM     13  C   UNL     1       0.136   9.399  21.779  0.00  0.00    +0.000 A 
ATOM     14  N   UNL     1       0.733   8.240  21.330  0.00  0.00    +0.000 N 
ATOM     15  H   UNL     1       0.779   7.365  21.837  0.00  0.00    +0.000 HD
ENDBRANCH   2   5
BRANCH   3  16
ATOM     16  C   UNL     1       2.590   4.955  19.388  0.00  0.00    +0.000 C 
ATOM     17  C   UNL     1       4.130   5.069  19.468  0.00  0.00    +0.000 C 
ATOM     18  C   UNL     1       4.800   3.830  18.860  0.00  0.00    +0.000 C 
ATOM     19  C   UNL     1       4.379   2.586  19.654  0.00  0.00    +0.000 C 
ATOM     20  C   UNL     1       2.851   2.425  19.602  0.00  0.00    +0.000 C 
ATOM     21  C   UNL     1       2.416   2.258  18.136  0.00  0.00    +0.000 C 
ATOM     22  C   UNL     1       2.824   3.497  17.326  0.00  0.00    +0.000 C 
ATOM     23  C   UNL     1       4.349   3.682  17.397  0.00  0.00    +0.000 C 
ATOM     24  C   UNL     1       2.141   4.736  17.923  0.00  0.00    +0.000 C 
ATOM     25  C   UNL     1       2.182   3.685  20.195  0.00  0.00    +0.000 C 
ENDBRANCH   3  16
TORSDOF 2
ENDMDL
MODEL 3
REMARK VINA RESULT:      -8.4      0.055      1.579
REMARK  Name = 
REMARK  2 active torsions:
REMARK  status: ('A' for Active; 'I' for Inactive)
REMARK    1  A    between atoms: C_2  and  C_14
REMARK    2  A    between atoms: N_3  and  C_4
REMARK                            x       y       z     vdW  Elec       q    Type
REMARK                         _______ _______ _______ _____ _____    ______ ____
ROOT
ATOM      1  O   UNL     1       2.928   7.624  18.498  0.00  0.00    +0.000 OA
ATOM      2  C   UNL     1       2.190   7.385  19.442  0.00  0.00    +0.000 C 
ATOM      3  N   UNL     1       1.967   6.115  19.952  0.00  0.00    +0.000 N 
ATOM      4  H   UNL     1       1.237   6.004  20.638  0.00  0.00    +0.000 HD
ENDROOT
BRANCH   2   5
ATOM      5  C   UNL     1       1.446   8.435  20.098  0.00  0.00    +0.000 A 
ATOM      6  C   UNL     1       0.982   8.546  21.394  0.00  0.00    +0.000 A 
ATOM      7  C   UNL     1       0.213   9.726  21.496  0.00  0.00    +0.000 A 
ATOM      8  C   UNL     1      -0.548  10.289  22.536  0.00  0.00    +0.000 A 
ATOM      9  C   UNL     1      -1.231  11.479  22.300  0.00  0.00    +0.000 A 
ATOM     10 CL   UNL     1      -2.212  12.141  23.553  0.00  0.00    +0.000 Cl
ATOM     11  C   UNL     1      -1.146  12.127  21.069  0.00  0.00    +0.000 A 
ATOM     12  C   UNL     1      -0.380  11.592  20.024  0.00  0.00    +0.000 A 
ATOM     13  C   UNL     1       0.278  10.379  20.264  0.00  0.00    +0.000 A 
ATOM     14  N   UNL     1       1.061   9.594  19.444  0.00  0.00    +0.000 N 
ATOM     15  H   UNL     1       1.289   9.793  18.478  0.00  0.00    +0.000 HD
ENDBRANCH   2   5
BRANCH   3  16
ATOM     16  C   UNL     1       2.559   4.897  19.392  0.00  0.00    +0.000 C 
ATOM     17  C   UNL     1       2.081   3.647  20.168  0.00  0.00    +0.000 C 
ATOM     18  C   UNL     1       2.718   2.374  19.596  0.00  0.00    +0.000 C 
ATOM     19  C   UNL     1       2.290   2.209  18.131  0.00  0.00    +0.000 C 
ATOM     20  C   UNL     1       2.747   3.428  17.313  0.00  0.00    +0.000 C 
ATOM     21  C   UNL     1       4.281   3.530  17.382  0.00  0.00    +0.000 C 
ATOM     22  C   UNL     1       4.727   3.702  18.841  0.00  0.00    +0.000 C 
ATOM     23  C   UNL     1       4.249   2.500  19.673  0.00  0.00    +0.000 C 
ATOM     24  C   UNL     1       4.104   4.984  19.410  0.00  0.00    +0.000 C 
ATOM     25  C   UNL     1       2.121   4.709  17.907  0.00  0.00    +0.000 C 
ENDBRANCH   3  16
TORSDOF 2
ENDMDL
MODEL 4
REMARK VINA RESULT:      -8.4      0.042      1.574
REMARK  Name = 
REMARK  2 active torsions:
REMARK  status: ('A' for Active; 'I' for Inactive)
REMARK    1  A    between atoms: C_2  and  C_14
REMARK    2  A    between atoms: N_3  and  C_4
REMARK                            x       y       z     vdW  Elec       q    Type
REMARK                         _______ _______ _______ _____ _____    ______ ____
ROOT
ATOM      1  O   UNL     1       2.912   7.624  18.472  0.00  0.00    +0.000 OA
ATOM      2  C   UNL     1       2.179   7.391  19.423  0.00  0.00    +0.000 C 
ATOM      3  N   UNL     1       1.959   6.124  19.941  0.00  0.00    +0.000 N 
ATOM      4  H   UNL     1       1.234   6.017  20.633  0.00  0.00    +0.000 HD
ENDROOT
BRANCH   2   5
ATOM      5  C   UNL     1       1.441   8.445  20.078  0.00  0.00    +0.000 A 
ATOM      6  C   UNL     1       0.979   8.561  21.374  0.00  0.00    +0.000 A 
ATOM      7  C   UNL     1       0.215   9.744  21.474  0.00  0.00    +0.000 A 
ATOM      8  C   UNL     1      -0.543  10.312  22.513  0.00  0.00    +0.000 A 
ATOM      9  C   UNL     1      -1.222  11.504  22.276  0.00  0.00    +0.000 A 
ATOM     10 CL   UNL     1      -2.198  12.172  23.529  0.00  0.00    +0.000 Cl
ATOM     11  C   UNL     1      -1.136  12.150  21.044  0.00  0.00    +0.000 A 
ATOM     12  C   UNL     1      -0.373  11.609  19.999  0.00  0.00    +0.000 A 
ATOM     13  C   UNL     1       0.281  10.395  20.240  0.00  0.00    +0.000 A 
ATOM     14  N   UNL     1       1.060   9.604  19.422  0.00  0.00    +0.000 N 
ATOM     15  H   UNL     1       1.287   9.800  18.455  0.00  0.00    +0.000 HD
ENDBRANCH   2   5
BRANCH   3  16
ATOM     16  C   UNL     1       2.547   4.902  19.384  0.00  0.00    +0.000 C 
ATOM     17  C   UNL     1       2.125   4.713  17.908  0.00  0.00    +0.000 C 
ATOM     18  C   UNL     1       2.721   3.423  17.332  0.00  0.00    +0.000 C 
ATOM     19  C   UNL     1       4.253   3.511  17.375  0.00  0.00    +0.000 C 
ATOM     20  C   UNL     1       4.726   3.696  18.827  0.00  0.00    +0.000 C 
ATOM     21  C   UNL     1       4.266   2.486  19.659  0.00  0.00    +0.000 C 
ATOM     22  C   UNL     1       2.735   2.385  19.633  0.00  0.00    +0.000 C 
ATOM     23  C   UNL     1       2.252   2.229  18.182  0.00  0.00    +0.000 C 
ATOM     24  C   UNL     1       2.136   3.669  20.224  0.00  0.00    +0.000 C 
ATOM     25  C   UNL     1       4.104   4.984  19.408  0.00  0.00    +0.000 C 
ENDBRANCH   3  16
TORSDOF 2
ENDMDL
MODEL 5
REMARK VINA RESULT:      -8.4      0.801      2.069
REMARK  Name = 
REMARK  2 active torsions:
REMARK  status: ('A' for Active; 'I' for Inactive)
REMARK    1  A    between atoms: C_2  and  C_14
REMARK    2  A    between atoms: N_3  and  C_4
REMARK                            x       y       z     vdW  Elec       q    Type
REMARK                         _______ _______ _______ _____ _____    ______ ____
ROOT
ATOM      1  O   UNL     1       2.887   7.692  18.532  0.00  0.00    +0.000 OA
ATOM      2  C   UNL     1       2.135   7.416  19.456  0.00  0.00    +0.000 C 
ATOM      3  N   UNL     1       1.948   6.134  19.948  0.00  0.00    +0.000 N 
ATOM      4  H   UNL     1       1.206   5.989  20.616  0.00  0.00    +0.000 HD
ENDROOT
BRANCH   2   5
ATOM      5  C   UNL     1       1.339   8.432  20.104  0.00  0.00    +0.000 A 
ATOM      6  C   UNL     1       0.981   9.702  19.698  0.00  0.00    +0.000 A 
ATOM      7  C   UNL     1       0.284  10.331  20.753  0.00  0.00    +0.000 A 
ATOM      8  C   UNL     1      -0.235  11.627  20.922  0.00  0.00    +0.000 A 
ATOM      9  C   UNL     1      -0.857  11.950  22.125  0.00  0.00    +0.000 A 
ATOM     10 CL   UNL     1      -1.442  13.554  22.358  0.00  0.00    +0.000 Cl
ATOM     11  C   UNL     1      -0.998  11.005  23.140  0.00  0.00    +0.000 A 
ATOM     12  C   UNL     1      -0.503   9.702  22.985  0.00  0.00    +0.000 A 
ATOM     13  C   UNL     1       0.148   9.399  21.783  0.00  0.00    +0.000 A 
ATOM     14  N   UNL     1       0.765   8.244  21.351  0.00  0.00    +0.000 N 
ATOM     15  H   UNL     1       0.846   7.385  21.880  0.00  0.00    +0.000 HD
ENDBRANCH   2   5
BRANCH   3  16
ATOM     16  C   UNL     1       2.597   4.944  19.392  0.00  0.00    +0.000 C 
ATOM     17  C   UNL     1       2.159   3.672  20.156  0.00  0.00    +0.000 C 
ATOM     18  C   UNL     1       2.857   2.429  19.588  0.00  0.00    +0.000 C 
ATOM     19  C   UNL     1       2.456   2.254  18.116  0.00  0.00    +0.000 C 
ATOM     20  C   UNL     1       2.874   3.494  17.310  0.00  0.00    +0.000 C 
ATOM     21  C   UNL     1       4.401   3.659  17.401  0.00  0.00    +0.000 C 
ATOM     22  C   UNL     1       4.820   3.842  18.867  0.00  0.00    +0.000 C 
ATOM     23  C   UNL     1       4.380   2.617  19.687  0.00  0.00    +0.000 C 
ATOM     24  C   UNL     1       4.137   5.094  19.433  0.00  0.00    +0.000 C 
ATOM     25  C   UNL     1       2.188   4.745  17.900  0.00  0.00    +0.000 C 
ENDBRANCH   3  16
TORSDOF 2
ENDMDL
MODEL 6
REMARK VINA RESULT:      -8.4      0.806      2.059
REMARK  Name = 
REMARK  2 active torsions:
REMARK  status: ('A' for Active; 'I' for Inactive)
REMARK    1  A    between atoms: C_2  and  C_14
REMARK    2  A    between atoms: N_3  and  C_4
REMARK                            x       y       z     vdW  Elec       q    Type
REMARK                         _______ _______ _______ _____ _____    ______ ____
ROOT
ATOM      1  O   UNL     1       2.898   7.681  18.558  0.00  0.00    +0.000 OA
ATOM      2  C   UNL     1       2.132   7.410  19.470  0.00  0.00    +0.000 C 
ATOM      3  N   UNL     1       1.920   6.127  19.951  0.00  0.00    +0.000 N 
ATOM      4  H   UNL     1       1.169   5.988  20.609  0.00  0.00    +0.000 HD
ENDROOT
BRANCH   2   5
ATOM      5  C   UNL     1       1.341   8.432  20.116  0.00  0.00    +0.000 A 
ATOM      6  C   UNL     1       1.009   9.711  19.715  0.00  0.00    +0.000 A 
ATOM      7  C   UNL     1       0.306  10.341  20.766  0.00  0.00    +0.000 A 
ATOM      8  C   UNL     1      -0.196  11.643  20.939  0.00  0.00    +0.000 A 
ATOM      9  C   UNL     1      -0.831  11.965  22.136  0.00  0.00    +0.000 A 
ATOM     10 CL   UNL     1      -1.394  13.576  22.374  0.00  0.00    +0.000 Cl
ATOM     11  C   UNL     1      -1.000  11.014  23.140  0.00  0.00    +0.000 A 
ATOM     12  C   UNL     1      -0.522   9.705  22.982  0.00  0.00    +0.000 A 
ATOM     13  C   UNL     1       0.141   9.402  21.786  0.00  0.00    +0.000 A 
ATOM     14  N   UNL     1       0.747   8.242  21.352  0.00  0.00    +0.000 N 
ATOM     15  H   UNL     1       0.807   7.377  21.875  0.00  0.00    +0.000 HD
ENDBRANCH   2   5
BRANCH   3  16
ATOM     16  C   UNL     1       2.560   4.932  19.394  0.00  0.00    +0.000 C 
ATOM     17  C   UNL     1       2.189   4.756  17.903  0.00  0.00    +0.000 C 
ATOM     18  C   UNL     1       2.840   3.492  17.326  0.00  0.00    +0.000 C 
ATOM     19  C   UNL     1       4.367   3.623  17.418  0.00  0.00    +0.000 C 
ATOM     20  C   UNL     1       4.789   3.797  18.887  0.00  0.00    +0.000 C 
ATOM     21  C   UNL     1       4.339   2.561  19.685  0.00  0.00    +0.000 C 
ATOM     22  C   UNL     1       2.812   2.417  19.609  0.00  0.00    +0.000 C 
ATOM     23  C   UNL     1       2.379   2.272  18.140  0.00  0.00    +0.000 C 
ATOM     24  C   UNL     1       2.159   3.673  20.201  0.00  0.00    +0.000 C 
ATOM     25  C   UNL     1       4.112   5.057  19.469  0.00  0.00    +0.000 C 
ENDBRANCH   3  16
TORSDOF 2
ENDMDL
MODEL 7
REMARK VINA RESULT:      -7.9      1.605      2.083
REMARK  Name = 
REMARK  2 active torsions:
REMARK  status: ('A' for Active; 'I' for Inactive)
REMARK    1  A    between atoms: C_2  and  C_14
REMARK    2  A    between atoms: N_3  and  C_4
REMARK                            x       y       z     vdW  Elec       q    Type
REMARK                         _______ _______ _______ _____ _____    ______ ____
ROOT
ATOM      1  O   UNL     1       3.235   7.365  17.691  0.00  0.00    +0.000 OA
ATOM      2  C   UNL     1       2.407   7.524  18.576  0.00  0.00    +0.000 C 
ATOM      3  N   UNL     1       1.920   6.502  19.377  0.00  0.00    +0.000 N 
ATOM      4  H   UNL     1       1.140   6.708  19.982  0.00  0.00    +0.000 HD
ENDROOT
BRANCH   2   5
ATOM      5  C   UNL     1       1.832   8.822  18.842  0.00  0.00    +0.000 A 
ATOM      6  C   UNL     1       1.814   9.979  18.088  0.00  0.00    +0.000 A 
ATOM      7  C   UNL     1       1.216  11.004  18.853  0.00  0.00    +0.000 A 
ATOM      8  C   UNL     1       1.009  12.376  18.625  0.00  0.00    +0.000 A 
ATOM      9  C   UNL     1       0.402  13.139  19.619  0.00  0.00    +0.000 A 
ATOM     10 CL   UNL     1       0.201  14.831  19.366  0.00  0.00    +0.000 Cl
ATOM     11  C   UNL     1      -0.026  12.559  20.812  0.00  0.00    +0.000 A 
ATOM     12  C   UNL     1       0.155  11.189  21.053  0.00  0.00    +0.000 A 
ATOM     13  C   UNL     1       0.794  10.439  20.058  0.00  0.00    +0.000 A 
ATOM     14  N   UNL     1       1.148   9.107  20.012  0.00  0.00    +0.000 N 
ATOM     15  H   UNL     1       0.987   8.428  20.745  0.00  0.00    +0.000 HD
ENDBRANCH   2   5
BRANCH   3  16
ATOM     16  C   UNL     1       2.308   5.097  19.231  0.00  0.00    +0.000 C 
ATOM     17  C   UNL     1       3.826   4.920  19.467  0.00  0.00    +0.000 C 
ATOM     18  C   UNL     1       4.237   3.452  19.292  0.00  0.00    +0.000 C 
ATOM     19  C   UNL     1       3.498   2.594  20.328  0.00  0.00    +0.000 C 
ATOM     20  C   UNL     1       1.979   2.732  20.134  0.00  0.00    +0.000 C 
ATOM     21  C   UNL     1       1.610   2.246  18.721  0.00  0.00    +0.000 C 
ATOM     22  C   UNL     1       2.336   3.098  17.670  0.00  0.00    +0.000 C 
ATOM     23  C   UNL     1       3.856   2.988  17.876  0.00  0.00    +0.000 C 
ATOM     24  C   UNL     1       1.914   4.565  17.832  0.00  0.00    +0.000 C 
ATOM     25  C   UNL     1       1.575   4.215  20.288  0.00  0.00    +0.000 C 
ENDBRANCH   3  16
TORSDOF 2
ENDMDL
MODEL 8
REMARK VINA RESULT:      -7.9      1.110      2.022
REMARK  Name = 
REMARK  2 active torsions:
REMARK  status: ('A' for Active; 'I' for Inactive)
REMARK    1  A    between atoms: C_2  and  C_14
REMARK    2  A    between atoms: N_3  and  C_4
REMARK                            x       y       z     vdW  Elec       q    Type
REMARK                         _______ _______ _______ _____ _____    ______ ____
ROOT
ATOM      1  O   UNL     1       2.549   8.310  17.859  0.00  0.00    +0.000 OA
ATOM      2  C   UNL     1       2.144   7.929  18.948  0.00  0.00    +0.000 C 
ATOM      3  N   UNL     1       2.452   6.697  19.504  0.00  0.00    +0.000 N 
ATOM      4  H   UNL     1       1.959   6.421  20.339  0.00  0.00    +0.000 HD
ENDROOT
BRANCH   2   5
ATOM      5  C   UNL     1       1.263   8.747  19.748  0.00  0.00    +0.000 A 
ATOM      6  C   UNL     1       0.601   9.924  19.456  0.00  0.00    +0.000 A 
ATOM      7  C   UNL     1      -0.047  10.375  20.627  0.00  0.00    +0.000 A 
ATOM      8  C   UNL     1      -0.786  11.534  20.928  0.00  0.00    +0.000 A 
ATOM      9  C   UNL     1      -1.278  11.699  22.220  0.00  0.00    +0.000 A 
ATOM     10 CL   UNL     1      -2.133  13.144  22.608  0.00  0.00    +0.000 Cl
ATOM     11  C   UNL     1      -1.076  10.728  23.198  0.00  0.00    +0.000 A 
ATOM     12  C   UNL     1      -0.356   9.558  22.915  0.00  0.00    +0.000 A 
ATOM     13  C   UNL     1       0.159   9.417  21.620  0.00  0.00    +0.000 A 
ATOM     14  N   UNL     1       0.927   8.422  21.052  0.00  0.00    +0.000 N 
ATOM     15  H   UNL     1       1.255   7.589  21.523  0.00  0.00    +0.000 HD
ENDBRANCH   2   5
BRANCH   3  16
ATOM     16  C   UNL     1       3.267   5.681  18.833  0.00  0.00    +0.000 C 
ATOM     17  C   UNL     1       3.906   4.721  19.864  0.00  0.00    +0.000 C 
ATOM     18  C   UNL     1       4.778   3.671  19.164  0.00  0.00    +0.000 C 
ATOM     19  C   UNL     1       3.902   2.834  18.223  0.00  0.00    +0.000 C 
ATOM     20  C   UNL     1       3.245   3.744  17.172  0.00  0.00    +0.000 C 
ATOM     21  C   UNL     1       4.347   4.436  16.352  0.00  0.00    +0.000 C 
ATOM     22  C   UNL     1       5.231   5.285  17.277  0.00  0.00    +0.000 C 
ATOM     23  C   UNL     1       5.869   4.386  18.350  0.00  0.00    +0.000 C 
ATOM     24  C   UNL     1       4.363   6.347  17.966  0.00  0.00    +0.000 C 
ATOM     25  C   UNL     1       2.387   4.812  17.884  0.00  0.00    +0.000 C 
ENDBRANCH   3  16
TORSDOF 2
ENDMDL
MODEL 9
REMARK VINA RESULT:      -7.9      1.222      2.553
REMARK  Name = 
REMARK  2 active torsions:
REMARK  status: ('A' for Active; 'I' for Inactive)
REMARK    1  A    between atoms: C_2  and  C_14
REMARK    2  A    between atoms: N_3  and  C_4
REMARK                            x       y       z     vdW  Elec       q    Type
REMARK                         _______ _______ _______ _____ _____    ______ ____
ROOT
ATOM      1  O   UNL     1       2.443   8.344  17.685  0.00  0.00    +0.000 OA
ATOM      2  C   UNL     1       2.156   7.994  18.821  0.00  0.00    +0.000 C 
ATOM      3  N   UNL     1       2.602   6.820  19.407  0.00  0.00    +0.000 N 
ATOM      4  H   UNL     1       2.200   6.553  20.292  0.00  0.00    +0.000 HD
ENDROOT
BRANCH   2   5
ATOM      5  C   UNL     1       1.278   8.785  19.650  0.00  0.00    +0.000 A 
ATOM      6  C   UNL     1       0.599   9.960  19.393  0.00  0.00    +0.000 A 
ATOM      7  C   UNL     1      -0.036  10.381  20.582  0.00  0.00    +0.000 A 
ATOM      8  C   UNL     1      -0.783  11.524  20.919  0.00  0.00    +0.000 A 
ATOM      9  C   UNL     1      -1.256  11.659  22.221  0.00  0.00    +0.000 A 
ATOM     10 CL   UNL     1      -2.121  13.085  22.652  0.00  0.00    +0.000 Cl
ATOM     11  C   UNL     1      -1.027  10.670  23.177  0.00  0.00    +0.000 A 
ATOM     12  C   UNL     1      -0.299   9.515  22.858  0.00  0.00    +0.000 A 
ATOM     13  C   UNL     1       0.197   9.406  21.553  0.00  0.00    +0.000 A 
ATOM     14  N   UNL     1       0.967   8.431  20.953  0.00  0.00    +0.000 N 
ATOM     15  H   UNL     1       1.312   7.592  21.403  0.00  0.00    +0.000 HD
ENDBRANCH   2   5
BRANCH   3  16
ATOM     16  C   UNL     1       3.441   5.833  18.721  0.00  0.00    +0.000 C 
ATOM     17  C   UNL     1       2.588   4.944  17.786  0.00  0.00    +0.000 C 
ATOM     18  C   UNL     1       3.462   3.896  17.085  0.00  0.00    +0.000 C 
ATOM     19  C   UNL     1       4.513   4.609  16.224  0.00  0.00    +0.000 C 
ATOM     20  C   UNL     1       5.393   5.507  17.110  0.00  0.00    +0.000 C 
ATOM     21  C   UNL     1       6.106   4.631  18.155  0.00  0.00    +0.000 C 
ATOM     22  C   UNL     1       5.069   3.914  19.031  0.00  0.00    +0.000 C 
ATOM     23  C   UNL     1       4.166   3.036  18.148  0.00  0.00    +0.000 C 
ATOM     24  C   UNL     1       4.204   4.961  19.746  0.00  0.00    +0.000 C 
ATOM     25  C   UNL     1       4.505   6.544  17.831  0.00  0.00    +0.000 C 
ENDBRANCH   3  16
TORSDOF 2
ENDMDL
