MODEL 1
REMARK VINA RESULT:      -6.4      0.000      0.000
REMARK  Name = 
REMARK  17 active torsions:
REMARK  status: ('A' for Active; 'I' for Inactive)
REMARK    1  A    between atoms: C_1  and  C_2
REMARK    2  A    between atoms: C_2  and  O_3
REMARK    3  A    between atoms: O_3  and  P_4
REMARK    4  A    between atoms: P_4  and  C_6
REMARK    5  A    between atoms: P_4  and  O_24
REMARK    6  A    between atoms: C_6  and  C_7
REMARK    7  A    between atoms: C_7  and  C_8
REMARK    8  A    between atoms: C_8  and  C_9
REMARK    9  A    between atoms: C_9  and  C_10
REMARK   10  A    between atoms: C_10  and  C_11
REMARK   11  A    between atoms: C_11  and  C_12
REMARK   12  A    between atoms: C_12  and  C_13
REMARK   13  A    between atoms: C_13  and  C_14
REMARK   14  A    between atoms: C_14  and  N_15
REMARK   15  A    between atoms: C_17  and  C_18
REMARK   16  A    between atoms: O_24  and  C_25
REMARK   17  A    between atoms: C_25  and  C_26
REMARK                            x       y       z     vdW  Elec       q    Type
REMARK                         _______ _______ _______ _____ _____    ______ ____
ROOT
ATOM      1  C   UNL     1       2.853   3.134  21.147  0.00  0.00    +0.000 C 
ENDROOT
BRANCH   1   2
ATOM      2  C   UNL     1       3.638   2.177  20.261  0.00  0.00    +0.000 C 
BRANCH   2   3
ATOM      3  C   UNL     1       4.496   2.948  19.268  0.00  0.00    +0.000 C 
BRANCH   3   4
ATOM      4  C   UNL     1       3.866   2.940  17.879  0.00  0.00    +0.000 C 
BRANCH   4   5
ATOM      5  C   UNL     1       4.455   4.066  17.041  0.00  0.00    +0.000 C 
BRANCH   5   6
ATOM      6  C   UNL     1       5.501   4.859  17.810  0.00  0.00    +0.000 C 
BRANCH   6   7
ATOM      7  P   UNL     1       7.005   5.163  16.714  0.00  0.00    +0.000 P 
ATOM      8  O   UNL     1       8.102   4.198  17.180  0.00  0.00    +0.000 OA
BRANCH   7   9
ATOM      9  O   UNL     1       7.583   6.356  17.825  0.00  0.00    +0.000 OA
BRANCH   9  11
ATOM     10  C   UNL     1       8.199   8.669  18.002  0.00  0.00    +0.000 C 
ATOM     11  C   UNL     1       7.182   7.674  17.481  0.00  0.00    +0.000 C 
ENDBRANCH   9  11
ENDBRANCH   7   9
BRANCH   7  12
ATOM     12  O   UNL     1       6.426   3.969  15.604  0.00  0.00    +0.000 OA
BRANCH  12  13
ATOM     13  C   UNL     1       6.667   4.359  14.257  0.00  0.00    +0.000 C 
ATOM     14  C   UNL     1       5.560   3.840  13.366  0.00  0.00    +0.000 C 
ENDBRANCH  12  13
ENDBRANCH   7  12
ENDBRANCH   6   7
ENDBRANCH   5   6
ENDBRANCH   4   5
ENDBRANCH   3   4
ENDBRANCH   2   3
ENDBRANCH   1   2
BRANCH   1  15
ATOM     15  C   UNL     1       1.433   3.282  20.617  0.00  0.00    +0.000 C 
BRANCH  15  16
ATOM     16  C   UNL     1       1.056   4.749  20.483  0.00  0.00    +0.000 C 
BRANCH  16  17
ATOM     17  C   UNL     1       2.277   5.592  20.126  0.00  0.00    +0.000 C 
BRANCH  17  18
ATOM     18  N   UNL     1       1.919   7.004  20.060  0.00  0.00    +0.000 N 
ATOM     19  C   UNL     1       1.164   7.551  21.075  0.00  0.00    +0.000 A 
ATOM     20  C   UNL     1       0.668   8.792  21.008  0.00  0.00    +0.000 A 
ATOM     21  C   UNL     1      -0.182   9.415  22.063  0.00  0.00    +0.000 C 
ATOM     22  C   UNL     1       0.957   9.590  19.791  0.00  0.00    +0.000 A 
ATOM     23  O   UNL     1       0.484  10.708  19.624  0.00  0.00    +0.000 OA
ATOM     24  N   UNL     1       1.766   8.998  18.865  0.00  0.00    +0.000 N 
ATOM     25  C   UNL     1       2.220   7.709  18.902  0.00  0.00    +0.000 A 
ATOM     26  O   UNL     1       2.828   7.237  17.940  0.00  0.00    +0.000 OA
ATOM     27  H   UNL     1       1.944   9.511  18.016  0.00  0.00    +0.000 HD
ENDBRANCH  17  18
ENDBRANCH  16  17
ENDBRANCH  15  16
ENDBRANCH   1  15
TORSDOF 14
ENDMDL
MODEL 2
REMARK VINA RESULT:      -6.4      1.516      3.216
REMARK  Name = 
REMARK  17 active torsions:
REMARK  status: ('A' for Active; 'I' for Inactive)
REMARK    1  A    between atoms: C_1  and  C_2
REMARK    2  A    between atoms: C_2  and  O_3
REMARK    3  A    between atoms: O_3  and  P_4
REMARK    4  A    between atoms: P_4  and  C_6
REMARK    5  A    between atoms: P_4  and  O_24
REMARK    6  A    between atoms: C_6  and  C_7
REMARK    7  A    between atoms: C_7  and  C_8
REMARK    8  A    between atoms: C_8  and  C_9
REMARK    9  A    between atoms: C_9  and  C_10
REMARK   10  A    between atoms: C_10  and  C_11
REMARK   11  A    between atoms: C_11  and  C_12
REMARK   12  A    between atoms: C_12  and  C_13
REMARK   13  A    between atoms: C_13  and  C_14
REMARK   14  A    between atoms: C_14  and  N_15
REMARK   15  A    between atoms: C_17  and  C_18
REMARK   16  A    between atoms: O_24  and  C_25
REMARK   17  A    between atoms: C_25  and  C_26
REMARK                            x       y       z     vdW  Elec       q    Type
REMARK                         _______ _______ _______ _____ _____    ______ ____
ROOT
ATOM      1  C   UNL     1       0.964   4.070  20.123  0.00  0.00    +0.000 C 
ENDROOT
BRANCH   1   2
ATOM      2  C   UNL     1       1.698   3.275  19.052  0.00  0.00    +0.000 C 
BRANCH   2   3
ATOM      3  C   UNL     1       2.265   4.207  17.989  0.00  0.00    +0.000 C 
BRANCH   3   4
ATOM      4  C   UNL     1       3.783   4.091  17.914  0.00  0.00    +0.000 C 
BRANCH   4   5
ATOM      5  C   UNL     1       4.218   3.964  16.461  0.00  0.00    +0.000 C 
BRANCH   5   6
ATOM      6  C   UNL     1       5.660   3.496  16.339  0.00  0.00    +0.000 C 
BRANCH   6   7
ATOM      7  P   UNL     1       6.666   4.770  15.380  0.00  0.00    +0.000 P 
ATOM      8  O   UNL     1       5.982   6.127  15.583  0.00  0.00    +0.000 OA
BRANCH   7   9
ATOM      9  O   UNL     1       5.695   4.491  13.975  0.00  0.00    +0.000 OA
BRANCH   9  11
ATOM     10  C   UNL     1       5.377   3.119  12.032  0.00  0.00    +0.000 C 
ATOM     11  C   UNL     1       6.380   3.769  12.962  0.00  0.00    +0.000 C 
ENDBRANCH   9  11
ENDBRANCH   7   9
BRANCH   7  12
ATOM     12  O   UNL     1       7.636   5.048  16.785  0.00  0.00    +0.000 OA
BRANCH  12  13
ATOM     13  C   UNL     1       7.215   6.217  17.478  0.00  0.00    +0.000 C 
ATOM     14  C   UNL     1       7.924   6.308  18.811  0.00  0.00    +0.000 C 
ENDBRANCH  12  13
ENDBRANCH   7  12
ENDBRANCH   6   7
ENDBRANCH   5   6
ENDBRANCH   4   5
ENDBRANCH   3   4
ENDBRANCH   2   3
ENDBRANCH   1   2
BRANCH   1  15
ATOM     15  C   UNL     1       1.904   5.097  20.739  0.00  0.00    +0.000 C 
BRANCH  15  16
ATOM     16  C   UNL     1       1.331   6.500  20.610  0.00  0.00    +0.000 C 
BRANCH  16  17
ATOM     17  C   UNL     1       2.181   7.347  19.666  0.00  0.00    +0.000 C 
BRANCH  17  18
ATOM     18  N   UNL     1       1.604   8.679  19.521  0.00  0.00    +0.000 N 
ATOM     19  C   UNL     1       0.878   9.212  20.564  0.00  0.00    +0.000 A 
ATOM     20  C   UNL     1       0.194  10.356  20.448  0.00  0.00    +0.000 A 
ATOM     21  C   UNL     1      -0.633  10.954  21.535  0.00  0.00    +0.000 C 
ATOM     22  C   UNL     1       0.234  11.059  19.142  0.00  0.00    +0.000 A 
ATOM     23  O   UNL     1      -0.421  12.074  18.935  0.00  0.00    +0.000 OA
ATOM     24  N   UNL     1       1.028  10.499  18.184  0.00  0.00    +0.000 N 
ATOM     25  C   UNL     1       1.677   9.299  18.280  0.00  0.00    +0.000 A 
ATOM     26  O   UNL     1       2.252   8.824  17.299  0.00  0.00    +0.000 OA
ATOM     27  H   UNL     1       1.040  10.942  17.280  0.00  0.00    +0.000 HD
ENDBRANCH  17  18
ENDBRANCH  16  17
ENDBRANCH  15  16
ENDBRANCH   1  15
TORSDOF 14
ENDMDL
MODEL 3
REMARK VINA RESULT:      -6.1      2.876      7.559
REMARK  Name = 
REMARK  17 active torsions:
REMARK  status: ('A' for Active; 'I' for Inactive)
REMARK    1  A    between atoms: C_1  and  C_2
REMARK    2  A    between atoms: C_2  and  O_3
REMARK    3  A    between atoms: O_3  and  P_4
REMARK    4  A    between atoms: P_4  and  C_6
REMARK    5  A    between atoms: P_4  and  O_24
REMARK    6  A    between atoms: C_6  and  C_7
REMARK    7  A    between atoms: C_7  and  C_8
REMARK    8  A    between atoms: C_8  and  C_9
REMARK    9  A    between atoms: C_9  and  C_10
REMARK   10  A    between atoms: C_10  and  C_11
REMARK   11  A    between atoms: C_11  and  C_12
REMARK   12  A    between atoms: C_12  and  C_13
REMARK   13  A    between atoms: C_13  and  C_14
REMARK   14  A    between atoms: C_14  and  N_15
REMARK   15  A    between atoms: C_17  and  C_18
REMARK   16  A    between atoms: O_24  and  C_25
REMARK   17  A    between atoms: C_25  and  C_26
REMARK                            x       y       z     vdW  Elec       q    Type
REMARK                         _______ _______ _______ _____ _____    ______ ____
ROOT
ATOM      1  C   UNL     1       1.674   2.245  19.713  0.00  0.00    +0.000 C 
ENDROOT
BRANCH   1   2
ATOM      2  C   UNL     1       1.844   3.242  20.851  0.00  0.00    +0.000 C 
BRANCH   2   3
ATOM      3  C   UNL     1       0.997   4.484  20.605  0.00  0.00    +0.000 C 
BRANCH   3   4
ATOM      4  C   UNL     1       1.876   5.708  20.373  0.00  0.00    +0.000 C 
BRANCH   4   5
ATOM      5  C   UNL     1       1.213   6.938  20.977  0.00  0.00    +0.000 C 
BRANCH   5   6
ATOM      6  C   UNL     1       1.773   8.227  20.396  0.00  0.00    +0.000 C 
BRANCH   6   7
ATOM      7  P   UNL     1       0.564   9.641  20.698  0.00  0.00    +0.000 P 
ATOM      8  O   UNL     1       1.305  10.695  21.529  0.00  0.00    +0.000 OA
BRANCH   7   9
ATOM      9  O   UNL     1       0.021   8.878  22.153  0.00  0.00    +0.000 OA
BRANCH   9  11
ATOM     10  C   UNL     1      -1.306  10.608  23.156  0.00  0.00    +0.000 C 
ATOM     11  C   UNL     1      -0.048   9.770  23.255  0.00  0.00    +0.000 C 
ENDBRANCH   9  11
ENDBRANCH   7   9
BRANCH   7  12
ATOM     12  O   UNL     1       1.106  10.405  19.244  0.00  0.00    +0.000 OA
BRANCH  12  13
ATOM     13  C   UNL     1       0.045  11.096  18.598  0.00  0.00    +0.000 C 
ATOM     14  C   UNL     1      -1.234  10.297  18.711  0.00  0.00    +0.000 C 
ENDBRANCH  12  13
ENDBRANCH   7  12
ENDBRANCH   6   7
ENDBRANCH   5   6
ENDBRANCH   4   5
ENDBRANCH   3   4
ENDBRANCH   2   3
ENDBRANCH   1   2
BRANCH   1  15
ATOM     15  C   UNL     1       2.352   2.775  18.457  0.00  0.00    +0.000 C 
BRANCH  15  16
ATOM     16  C   UNL     1       3.841   2.467  18.475  0.00  0.00    +0.000 C 
BRANCH  16  17
ATOM     17  C   UNL     1       4.640   3.685  18.930  0.00  0.00    +0.000 C 
BRANCH  17  18
ATOM     18  N   UNL     1       5.418   4.226  17.820  0.00  0.00    +0.000 N 
ATOM     19  C   UNL     1       5.000   3.985  16.530  0.00  0.00    +0.000 A 
ATOM     20  C   UNL     1       5.740   4.315  15.465  0.00  0.00    +0.000 A 
ATOM     21  C   UNL     1       5.348   4.044  14.052  0.00  0.00    +0.000 C 
ATOM     22  C   UNL     1       7.051   4.965  15.707  0.00  0.00    +0.000 A 
ATOM     23  O   UNL     1       7.817   5.236  14.788  0.00  0.00    +0.000 OA
ATOM     24  N   UNL     1       7.359   5.228  17.010  0.00  0.00    +0.000 N 
ATOM     25  C   UNL     1       6.634   4.834  18.101  0.00  0.00    +0.000 A 
ATOM     26  O   UNL     1       7.081   5.004  19.236  0.00  0.00    +0.000 OA
ATOM     27  H   UNL     1       8.260   5.637  17.196  0.00  0.00    +0.000 HD
ENDBRANCH  17  18
ENDBRANCH  16  17
ENDBRANCH  15  16
ENDBRANCH   1  15
TORSDOF 14
ENDMDL
MODEL 4
REMARK VINA RESULT:      -6.1      2.011      4.005
REMARK  Name = 
REMARK  17 active torsions:
REMARK  status: ('A' for Active; 'I' for Inactive)
REMARK    1  A    between atoms: C_1  and  C_2
REMARK    2  A    between atoms: C_2  and  O_3
REMARK    3  A    between atoms: O_3  and  P_4
REMARK    4  A    between atoms: P_4  and  C_6
REMARK    5  A    between atoms: P_4  and  O_24
REMARK    6  A    between atoms: C_6  and  C_7
REMARK    7  A    between atoms: C_7  and  C_8
REMARK    8  A    between atoms: C_8  and  C_9
REMARK    9  A    between atoms: C_9  and  C_10
REMARK   10  A    between atoms: C_10  and  C_11
REMARK   11  A    between atoms: C_11  and  C_12
REMARK   12  A    between atoms: C_12  and  C_13
REMARK   13  A    between atoms: C_13  and  C_14
REMARK   14  A    between atoms: C_14  and  N_15
REMARK   15  A    between atoms: C_17  and  C_18
REMARK   16  A    between atoms: O_24  and  C_25
REMARK   17  A    between atoms: C_25  and  C_26
REMARK                            x       y       z     vdW  Elec       q    Type
REMARK                         _______ _______ _______ _____ _____    ______ ____
ROOT
ATOM      1  C   UNL     1       1.972   5.901  20.609  0.00  0.00    +0.000 C 
ENDROOT
BRANCH   1   2
ATOM      2  C   UNL     1       3.113   5.290  19.808  0.00  0.00    +0.000 C 
BRANCH   2   3
ATOM      3  C   UNL     1       3.048   5.740  18.354  0.00  0.00    +0.000 C 
BRANCH   3   4
ATOM      4  C   UNL     1       2.919   4.545  17.417  0.00  0.00    +0.000 C 
BRANCH   4   5
ATOM      5  C   UNL     1       4.303   4.058  17.012  0.00  0.00    +0.000 C 
BRANCH   5   6
ATOM      6  C   UNL     1       5.199   5.201  16.563  0.00  0.00    +0.000 C 
BRANCH   6   7
ATOM      7  P   UNL     1       6.904   4.537  16.111  0.00  0.00    +0.000 P 
ATOM      8  O   UNL     1       7.491   5.487  15.061  0.00  0.00    +0.000 OA
BRANCH   7   9
ATOM      9  O   UNL     1       6.205   3.578  14.852  0.00  0.00    +0.000 OA
BRANCH   9  11
ATOM     10  C   UNL     1       5.679   3.283  12.528  0.00  0.00    +0.000 C 
ATOM     11  C   UNL     1       6.260   4.206  13.580  0.00  0.00    +0.000 C 
ENDBRANCH   9  11
ENDBRANCH   7   9
BRANCH   7  12
ATOM     12  O   UNL     1       7.603   5.496  17.369  0.00  0.00    +0.000 OA
BRANCH  12  13
ATOM     13  C   UNL     1       6.819   6.654  17.629  0.00  0.00    +0.000 C 
ATOM     14  C   UNL     1       7.701   7.884  17.623  0.00  0.00    +0.000 C 
ENDBRANCH  12  13
ENDBRANCH   7  12
ENDBRANCH   6   7
ENDBRANCH   5   6
ENDBRANCH   4   5
ENDBRANCH   3   4
ENDBRANCH   2   3
ENDBRANCH   1   2
BRANCH   1  15
ATOM     15  C   UNL     1       1.962   7.412  20.423  0.00  0.00    +0.000 C 
BRANCH  15  16
ATOM     16  C   UNL     1       0.814   8.044  21.194  0.00  0.00    +0.000 C 
BRANCH  16  17
ATOM     17  C   UNL     1       1.130   9.497  21.540  0.00  0.00    +0.000 C 
BRANCH  17  18
ATOM     18  N   UNL     1       0.436  10.399  20.627  0.00  0.00    +0.000 N 
ATOM     19  C   UNL     1      -0.432   9.872  19.696  0.00  0.00    +0.000 A 
ATOM     20  C   UNL     1      -0.984  10.616  18.731  0.00  0.00    +0.000 A 
ATOM     21  C   UNL     1      -1.899  10.086  17.680  0.00  0.00    +0.000 C 
ATOM     22  C   UNL     1      -0.636  12.058  18.683  0.00  0.00    +0.000 A 
ATOM     23  O   UNL     1      -1.045  12.791  17.790  0.00  0.00    +0.000 OA
ATOM     24  N   UNL     1       0.177  12.512  19.680  0.00  0.00    +0.000 N 
ATOM     25  C   UNL     1       0.791  11.742  20.628  0.00  0.00    +0.000 A 
ATOM     26  O   UNL     1       1.617  12.241  21.394  0.00  0.00    +0.000 OA
ATOM     27  H   UNL     1       0.452  13.480  19.644  0.00  0.00    +0.000 HD
ENDBRANCH  17  18
ENDBRANCH  16  17
ENDBRANCH  15  16
ENDBRANCH   1  15
TORSDOF 14
ENDMDL
MODEL 5
REMARK VINA RESULT:      -6.1      1.216      2.647
REMARK  Name = 
REMARK  17 active torsions:
REMARK  status: ('A' for Active; 'I' for Inactive)
REMARK    1  A    between atoms: C_1  and  C_2
REMARK    2  A    between atoms: C_2  and  O_3
REMARK    3  A    between atoms: O_3  and  P_4
REMARK    4  A    between atoms: P_4  and  C_6
REMARK    5  A    between atoms: P_4  and  O_24
REMARK    6  A    between atoms: C_6  and  C_7
REMARK    7  A    between atoms: C_7  and  C_8
REMARK    8  A    between atoms: C_8  and  C_9
REMARK    9  A    between atoms: C_9  and  C_10
REMARK   10  A    between atoms: C_10  and  C_11
REMARK   11  A    between atoms: C_11  and  C_12
REMARK   12  A    between atoms: C_12  and  C_13
REMARK   13  A    between atoms: C_13  and  C_14
REMARK   14  A    between atoms: C_14  and  N_15
REMARK   15  A    between atoms: C_17  and  C_18
REMARK   16  A    between atoms: O_24  and  C_25
REMARK   17  A    between atoms: C_25  and  C_26
REMARK                            x       y       z     vdW  Elec       q    Type
REMARK                         _______ _______ _______ _____ _____    ______ ____
ROOT
ATOM      1  C   UNL     1       1.968   2.942  20.790  0.00  0.00    +0.000 C 
ENDROOT
BRANCH   1   2
ATOM      2  C   UNL     1       2.856   2.312  19.725  0.00  0.00    +0.000 C 
BRANCH   2   3
ATOM      3  C   UNL     1       4.144   3.109  19.563  0.00  0.00    +0.000 C 
BRANCH   3   4
ATOM      4  C   UNL     1       4.613   3.100  18.113  0.00  0.00    +0.000 C 
BRANCH   4   5
ATOM      5  C   UNL     1       3.629   3.878  17.250  0.00  0.00    +0.000 C 
BRANCH   5   6
ATOM      6  C   UNL     1       4.168   5.248  16.871  0.00  0.00    +0.000 C 
BRANCH   6   7
ATOM      7  P   UNL     1       6.032   5.151  16.605  0.00  0.00    +0.000 P 
ATOM      8  O   UNL     1       6.399   6.248  15.599  0.00  0.00    +0.000 OA
BRANCH   7   9
ATOM      9  O   UNL     1       5.796   4.036  15.303  0.00  0.00    +0.000 OA
BRANCH   9  11
ATOM     10  C   UNL     1       5.994   3.609  12.949  0.00  0.00    +0.000 C 
ATOM     11  C   UNL     1       6.529   4.382  14.137  0.00  0.00    +0.000 C 
ENDBRANCH   9  11
ENDBRANCH   7   9
BRANCH   7  12
ATOM     12  O   UNL     1       6.267   6.265  17.907  0.00  0.00    +0.000 OA
BRANCH  12  13
ATOM     13  C   UNL     1       7.484   6.004  18.594  0.00  0.00    +0.000 C 
ATOM     14  C   UNL     1       8.034   4.659  18.174  0.00  0.00    +0.000 C 
ENDBRANCH  12  13
ENDBRANCH   7  12
ENDBRANCH   6   7
ENDBRANCH   5   6
ENDBRANCH   4   5
ENDBRANCH   3   4
ENDBRANCH   2   3
ENDBRANCH   1   2
BRANCH   1  15
ATOM     15  C   UNL     1       1.222   4.131  20.202  0.00  0.00    +0.000 C 
BRANCH  15  16
ATOM     16  C   UNL     1       1.687   5.431  20.839  0.00  0.00    +0.000 C 
BRANCH  16  17
ATOM     17  C   UNL     1       2.297   6.360  19.792  0.00  0.00    +0.000 C 
BRANCH  17  18
ATOM     18  N   UNL     1       1.812   7.723  19.977  0.00  0.00    +0.000 N 
ATOM     19  C   UNL     1       1.235   8.071  21.179  0.00  0.00    +0.000 A 
ATOM     20  C   UNL     1       0.631   9.250  21.368  0.00  0.00    +0.000 A 
ATOM     21  C   UNL     1      -0.036   9.658  22.637  0.00  0.00    +0.000 C 
ATOM     22  C   UNL     1       0.596  10.200  20.230  0.00  0.00    +0.000 A 
ATOM     23  O   UNL     1       0.003  11.271  20.301  0.00  0.00    +0.000 OA
ATOM     24  N   UNL     1       1.247   9.805  19.097  0.00  0.00    +0.000 N 
ATOM     25  C   UNL     1       1.809   8.577  18.882  0.00  0.00    +0.000 A 
ATOM     26  O   UNL     1       2.246   8.281  17.769  0.00  0.00    +0.000 OA
ATOM     27  H   UNL     1       1.203  10.422  18.303  0.00  0.00    +0.000 HD
ENDBRANCH  17  18
ENDBRANCH  16  17
ENDBRANCH  15  16
ENDBRANCH   1  15
TORSDOF 14
ENDMDL
MODEL 6
REMARK VINA RESULT:      -6.0      1.132      1.342
REMARK  Name = 
REMARK  17 active torsions:
REMARK  status: ('A' for Active; 'I' for Inactive)
REMARK    1  A    between atoms: C_1  and  C_2
REMARK    2  A    between atoms: C_2  and  O_3
REMARK    3  A    between atoms: O_3  and  P_4
REMARK    4  A    between atoms: P_4  and  C_6
REMARK    5  A    between atoms: P_4  and  O_24
REMARK    6  A    between atoms: C_6  and  C_7
REMARK    7  A    between atoms: C_7  and  C_8
REMARK    8  A    between atoms: C_8  and  C_9
REMARK    9  A    between atoms: C_9  and  C_10
REMARK   10  A    between atoms: C_10  and  C_11
REMARK   11  A    between atoms: C_11  and  C_12
REMARK   12  A    between atoms: C_12  and  C_13
REMARK   13  A    between atoms: C_13  and  C_14
REMARK   14  A    between atoms: C_14  and  N_15
REMARK   15  A    between atoms: C_17  and  C_18
REMARK   16  A    between atoms: O_24  and  C_25
REMARK   17  A    between atoms: C_25  and  C_26
REMARK                            x       y       z     vdW  Elec       q    Type
REMARK                         _______ _______ _______ _____ _____    ______ ____
ROOT
ATOM      1  C   UNL     1       1.433   3.770  18.719  0.00  0.00    +0.000 C 
ENDROOT
BRANCH   1   2
ATOM      2  C   UNL     1       1.960   2.559  19.477  0.00  0.00    +0.000 C 
BRANCH   2   3
ATOM      3  C   UNL     1       3.456   2.393  19.247  0.00  0.00    +0.000 C 
BRANCH   3   4
ATOM      4  C   UNL     1       3.808   2.589  17.777  0.00  0.00    +0.000 C 
BRANCH   4   5
ATOM      5  C   UNL     1       4.942   3.597  17.650  0.00  0.00    +0.000 C 
BRANCH   5   6
ATOM      6  C   UNL     1       4.559   4.775  16.769  0.00  0.00    +0.000 C 
BRANCH   6   7
ATOM      7  P   UNL     1       6.087   5.810  16.386  0.00  0.00    +0.000 P 
ATOM      8  O   UNL     1       7.295   4.867  16.447  0.00  0.00    +0.000 OA
BRANCH   7   9
ATOM      9  O   UNL     1       6.280   6.164  18.068  0.00  0.00    +0.000 OA
BRANCH   9  11
ATOM     10  C   UNL     1       8.170   7.581  18.493  0.00  0.00    +0.000 C 
ATOM     11  C   UNL     1       7.637   6.162  18.484  0.00  0.00    +0.000 C 
ENDBRANCH   9  11
ENDBRANCH   7   9
BRANCH   7  12
ATOM     12  O   UNL     1       5.895   5.456  14.703  0.00  0.00    +0.000 OA
BRANCH  12  13
ATOM     13  C   UNL     1       6.416   4.172  14.384  0.00  0.00    +0.000 C 
ATOM     14  C   UNL     1       5.710   3.618  13.166  0.00  0.00    +0.000 C 
ENDBRANCH  12  13
ENDBRANCH   7  12
ENDBRANCH   6   7
ENDBRANCH   5   6
ENDBRANCH   4   5
ENDBRANCH   3   4
ENDBRANCH   2   3
ENDBRANCH   1   2
BRANCH   1  15
ATOM     15  C   UNL     1       1.118   4.894  19.697  0.00  0.00    +0.000 C 
BRANCH  15  16
ATOM     16  C   UNL     1       2.397   5.527  20.223  0.00  0.00    +0.000 C 
BRANCH  16  17
ATOM     17  C   UNL     1       2.834   6.686  19.331  0.00  0.00    +0.000 C 
BRANCH  17  18
ATOM     18  N   UNL     1       2.069   7.887  19.645  0.00  0.00    +0.000 N 
ATOM     19  C   UNL     1       1.501   8.011  20.895  0.00  0.00    +0.000 A 
ATOM     20  C   UNL     1       0.661   9.006  21.203  0.00  0.00    +0.000 A 
ATOM     21  C   UNL     1      -0.005   9.163  22.527  0.00  0.00    +0.000 C 
ATOM     22  C   UNL     1       0.347  10.000  20.148  0.00  0.00    +0.000 A 
ATOM     23  O   UNL     1      -0.464  10.901  20.330  0.00  0.00    +0.000 OA
ATOM     24  N   UNL     1       1.002   9.842  18.961  0.00  0.00    +0.000 N 
ATOM     25  C   UNL     1       1.810   8.791  18.624  0.00  0.00    +0.000 A 
ATOM     26  O   UNL     1       2.236   8.681  17.473  0.00  0.00    +0.000 OA
ATOM     27  H   UNL     1       0.775  10.487  18.221  0.00  0.00    +0.000 HD
ENDBRANCH  17  18
ENDBRANCH  16  17
ENDBRANCH  15  16
ENDBRANCH   1  15
TORSDOF 14
ENDMDL
MODEL 7
REMARK VINA RESULT:      -5.9      3.286      8.369
REMARK  Name = 
REMARK  17 active torsions:
REMARK  status: ('A' for Active; 'I' for Inactive)
REMARK    1  A    between atoms: C_1  and  C_2
REMARK    2  A    between atoms: C_2  and  O_3
REMARK    3  A    between atoms: O_3  and  P_4
REMARK    4  A    between atoms: P_4  and  C_6
REMARK    5  A    between atoms: P_4  and  O_24
REMARK    6  A    between atoms: C_6  and  C_7
REMARK    7  A    between atoms: C_7  and  C_8
REMARK    8  A    between atoms: C_8  and  C_9
REMARK    9  A    between atoms: C_9  and  C_10
REMARK   10  A    between atoms: C_10  and  C_11
REMARK   11  A    between atoms: C_11  and  C_12
REMARK   12  A    between atoms: C_12  and  C_13
REMARK   13  A    between atoms: C_13  and  C_14
REMARK   14  A    between atoms: C_14  and  N_15
REMARK   15  A    between atoms: C_17  and  C_18
REMARK   16  A    between atoms: O_24  and  C_25
REMARK   17  A    between atoms: C_25  and  C_26
REMARK                            x       y       z     vdW  Elec       q    Type
REMARK                         _______ _______ _______ _____ _____    ______ ____
ROOT
ATOM      1  C   UNL     1       2.616   5.844  19.726  0.00  0.00    +0.000 C 
ENDROOT
BRANCH   1   2
ATOM      2  C   UNL     1       2.219   7.313  19.666  0.00  0.00    +0.000 C 
BRANCH   2   3
ATOM      3  C   UNL     1       2.633   7.925  18.335  0.00  0.00    +0.000 C 
BRANCH   3   4
ATOM      4  C   UNL     1       1.540   8.838  17.790  0.00  0.00    +0.000 C 
BRANCH   4   5
ATOM      5  C   UNL     1       1.471  10.110  18.623  0.00  0.00    +0.000 C 
BRANCH   5   6
ATOM      6  C   UNL     1       0.042  10.602  18.792  0.00  0.00    +0.000 C 
BRANCH   6   7
ATOM      7  P   UNL     1      -0.054  11.799  20.245  0.00  0.00    +0.000 P 
ATOM      8  O   UNL     1       1.267  11.681  21.013  0.00  0.00    +0.000 OA
BRANCH   7   9
ATOM      9  O   UNL     1      -0.741  10.558  21.234  0.00  0.00    +0.000 OA
BRANCH   9  11
ATOM     10  C   UNL     1      -1.809  11.653  23.084  0.00  0.00    +0.000 C 
ATOM     11  C   UNL     1      -0.625  10.828  22.623  0.00  0.00    +0.000 C 
ENDBRANCH   9  11
ENDBRANCH   7   9
BRANCH   7  12
ATOM     12  O   UNL     1       0.632  13.041  19.255  0.00  0.00    +0.000 OA
BRANCH  12  13
ATOM     13  C   UNL     1      -0.321  14.057  18.967  0.00  0.00    +0.000 C 
ATOM     14  C   UNL     1      -0.790  14.702  20.253  0.00  0.00    +0.000 C 
ENDBRANCH  12  13
ENDBRANCH   7  12
ENDBRANCH   6   7
ENDBRANCH   5   6
ENDBRANCH   4   5
ENDBRANCH   3   4
ENDBRANCH   2   3
ENDBRANCH   1   2
BRANCH   1  15
ATOM     15  C   UNL     1       1.486   4.981  19.182  0.00  0.00    +0.000 C 
BRANCH  15  16
ATOM     16  C   UNL     1       1.866   4.372  17.842  0.00  0.00    +0.000 C 
BRANCH  16  17
ATOM     17  C   UNL     1       2.900   3.264  18.025  0.00  0.00    +0.000 C 
BRANCH  17  18
ATOM     18  N   UNL     1       4.231   3.747  17.676  0.00  0.00    +0.000 N 
ATOM     19  C   UNL     1       4.498   4.087  16.368  0.00  0.00    +0.000 A 
ATOM     20  C   UNL     1       5.731   4.390  15.945  0.00  0.00    +0.000 A 
ATOM     21  C   UNL     1       6.076   4.729  14.535  0.00  0.00    +0.000 C 
ATOM     22  C   UNL     1       6.833   4.354  16.938  0.00  0.00    +0.000 A 
ATOM     23  O   UNL     1       7.999   4.551  16.617  0.00  0.00    +0.000 OA
ATOM     24  N   UNL     1       6.472   4.073  18.224  0.00  0.00    +0.000 N 
ATOM     25  C   UNL     1       5.225   3.702  18.645  0.00  0.00    +0.000 A 
ATOM     26  O   UNL     1       5.046   3.334  19.807  0.00  0.00    +0.000 OA
ATOM     27  H   UNL     1       7.211   4.009  18.905  0.00  0.00    +0.000 HD
ENDBRANCH  17  18
ENDBRANCH  16  17
ENDBRANCH  15  16
ENDBRANCH   1  15
TORSDOF 14
ENDMDL
MODEL 8
REMARK VINA RESULT:      -5.9      3.213      7.933
REMARK  Name = 
REMARK  17 active torsions:
REMARK  status: ('A' for Active; 'I' for Inactive)
REMARK    1  A    between atoms: C_1  and  C_2
REMARK    2  A    between atoms: C_2  and  O_3
REMARK    3  A    between atoms: O_3  and  P_4
REMARK    4  A    between atoms: P_4  and  C_6
REMARK    5  A    between atoms: P_4  and  O_24
REMARK    6  A    between atoms: C_6  and  C_7
REMARK    7  A    between atoms: C_7  and  C_8
REMARK    8  A    between atoms: C_8  and  C_9
REMARK    9  A    between atoms: C_9  and  C_10
REMARK   10  A    between atoms: C_10  and  C_11
REMARK   11  A    between atoms: C_11  and  C_12
REMARK   12  A    between atoms: C_12  and  C_13
REMARK   13  A    between atoms: C_13  and  C_14
REMARK   14  A    between atoms: C_14  and  N_15
REMARK   15  A    between atoms: C_17  and  C_18
REMARK   16  A    between atoms: O_24  and  C_25
REMARK   17  A    between atoms: C_25  and  C_26
REMARK                            x       y       z     vdW  Elec       q    Type
REMARK                         _______ _______ _______ _____ _____    ______ ____
ROOT
ATOM      1  C   UNL     1       1.823   5.348  18.098  0.00  0.00    +0.000 C 
ENDROOT
BRANCH   1   2
ATOM      2  C   UNL     1       2.873   6.444  18.226  0.00  0.00    +0.000 C 
BRANCH   2   3
ATOM      3  C   UNL     1       2.253   7.715  18.792  0.00  0.00    +0.000 C 
BRANCH   3   4
ATOM      4  C   UNL     1       2.132   8.789  17.717  0.00  0.00    +0.000 C 
BRANCH   4   5
ATOM      5  C   UNL     1       1.032   9.772  18.094  0.00  0.00    +0.000 C 
BRANCH   5   6
ATOM      6  C   UNL     1       1.002  10.044  19.590  0.00  0.00    +0.000 C 
BRANCH   6   7
ATOM      7  P   UNL     1      -0.620  10.884  20.054  0.00  0.00    +0.000 P 
ATOM      8  O   UNL     1      -0.498  12.355  19.642  0.00  0.00    +0.000 OA
BRANCH   7   9
ATOM      9  O   UNL     1       0.016  11.270  21.616  0.00  0.00    +0.000 OA
BRANCH   9  11
ATOM     10  C   UNL     1      -1.876  11.651  23.043  0.00  0.00    +0.000 C 
ATOM     11  C   UNL     1      -0.744  10.713  22.677  0.00  0.00    +0.000 C 
ENDBRANCH   9  11
ENDBRANCH   7   9
BRANCH   7  12
ATOM     12  O   UNL     1      -1.257  10.499  18.493  0.00  0.00    +0.000 OA
BRANCH  12  13
ATOM     13  C   UNL     1      -2.542  11.078  18.303  0.00  0.00    +0.000 C 
ATOM     14  C   UNL     1      -3.455  10.090  17.611  0.00  0.00    +0.000 C 
ENDBRANCH  12  13
ENDBRANCH   7  12
ENDBRANCH   6   7
ENDBRANCH   5   6
ENDBRANCH   4   5
ENDBRANCH   3   4
ENDBRANCH   2   3
ENDBRANCH   1   2
BRANCH   1  15
ATOM     15  C   UNL     1       2.136   4.219  19.069  0.00  0.00    +0.000 C 
BRANCH  15  16
ATOM     16  C   UNL     1       3.406   4.514  19.852  0.00  0.00    +0.000 C 
BRANCH  16  17
ATOM     17  C   UNL     1       4.515   3.535  19.475  0.00  0.00    +0.000 C 
BRANCH  17  18
ATOM     18  N   UNL     1       5.442   4.156  18.535  0.00  0.00    +0.000 N 
ATOM     19  C   UNL     1       6.333   5.100  18.999  0.00  0.00    +0.000 A 
ATOM     20  C   UNL     1       7.104   5.820  18.176  0.00  0.00    +0.000 A 
ATOM     21  C   UNL     1       8.055   6.877  18.626  0.00  0.00    +0.000 C 
ATOM     22  C   UNL     1       6.981   5.574  16.718  0.00  0.00    +0.000 A 
ATOM     23  O   UNL     1       7.602   6.239  15.897  0.00  0.00    +0.000 OA
ATOM     24  N   UNL     1       6.126   4.577  16.348  0.00  0.00    +0.000 N 
ATOM     25  C   UNL     1       5.291   3.885  17.182  0.00  0.00    +0.000 A 
ATOM     26  O   UNL     1       4.459   3.105  16.718  0.00  0.00    +0.000 OA
ATOM     27  H   UNL     1       6.003   4.420  15.361  0.00  0.00    +0.000 HD
ENDBRANCH  17  18
ENDBRANCH  16  17
ENDBRANCH  15  16
ENDBRANCH   1  15
TORSDOF 14
ENDMDL
MODEL 9
REMARK VINA RESULT:      -5.9      1.379      2.884
REMARK  Name = 
REMARK  17 active torsions:
REMARK  status: ('A' for Active; 'I' for Inactive)
REMARK    1  A    between atoms: C_1  and  C_2
REMARK    2  A    between atoms: C_2  and  O_3
REMARK    3  A    between atoms: O_3  and  P_4
REMARK    4  A    between atoms: P_4  and  C_6
REMARK    5  A    between atoms: P_4  and  O_24
REMARK    6  A    between atoms: C_6  and  C_7
REMARK    7  A    between atoms: C_7  and  C_8
REMARK    8  A    between atoms: C_8  and  C_9
REMARK    9  A    between atoms: C_9  and  C_10
REMARK   10  A    between atoms: C_10  and  C_11
REMARK   11  A    between atoms: C_11  and  C_12
REMARK   12  A    between atoms: C_12  and  C_13
REMARK   13  A    between atoms: C_13  and  C_14
REMARK   14  A    between atoms: C_14  and  N_15
REMARK   15  A    between atoms: C_17  and  C_18
REMARK   16  A    between atoms: O_24  and  C_25
REMARK   17  A    between atoms: C_25  and  C_26
REMARK                            x       y       z     vdW  Elec       q    Type
REMARK                         _______ _______ _______ _____ _____    ______ ____
ROOT
ATOM      1  C   UNL     1       2.131   4.121  19.279  0.00  0.00    +0.000 C 
ENDROOT
BRANCH   1   2
ATOM      2  C   UNL     1       1.448   3.082  18.400  0.00  0.00    +0.000 C 
BRANCH   2   3
ATOM      3  C   UNL     1       2.478   2.308  17.589  0.00  0.00    +0.000 C 
BRANCH   3   4
ATOM      4  C   UNL     1       3.894   2.748  17.941  0.00  0.00    +0.000 C 
BRANCH   4   5
ATOM      5  C   UNL     1       4.537   3.422  16.736  0.00  0.00    +0.000 C 
BRANCH   5   6
ATOM      6  C   UNL     1       5.187   4.745  17.107  0.00  0.00    +0.000 C 
BRANCH   6   7
ATOM      7  P   UNL     1       6.061   5.470  15.602  0.00  0.00    +0.000 P 
ATOM      8  O   UNL     1       5.204   6.639  15.105  0.00  0.00    +0.000 OA
BRANCH   7   9
ATOM      9  O   UNL     1       5.192   4.392  14.566  0.00  0.00    +0.000 OA
BRANCH   9  11
ATOM     10  C   UNL     1       7.308   4.620  13.457  0.00  0.00    +0.000 C 
ATOM     11  C   UNL     1       5.984   3.885  13.503  0.00  0.00    +0.000 C 
ENDBRANCH   9  11
ENDBRANCH   7   9
BRANCH   7  12
ATOM     12  O   UNL     1       6.931   6.549  16.638  0.00  0.00    +0.000 OA
BRANCH  12  13
ATOM     13  C   UNL     1       7.373   5.886  17.817  0.00  0.00    +0.000 C 
ATOM     14  C   UNL     1       8.087   6.867  18.721  0.00  0.00    +0.000 C 
ENDBRANCH  12  13
ENDBRANCH   7  12
ENDBRANCH   6   7
ENDBRANCH   5   6
ENDBRANCH   4   5
ENDBRANCH   3   4
ENDBRANCH   2   3
ENDBRANCH   1   2
BRANCH   1  15
ATOM     15  C   UNL     1       1.219   4.496  20.439  0.00  0.00    +0.000 C 
BRANCH  15  16
ATOM     16  C   UNL     1       1.545   5.888  20.956  0.00  0.00    +0.000 C 
BRANCH  16  17
ATOM     17  C   UNL     1       2.250   6.713  19.882  0.00  0.00    +0.000 C 
BRANCH  17  18
ATOM     18  N   UNL     1       1.753   8.084  19.886  0.00  0.00    +0.000 N 
ATOM     19  C   UNL     1       1.131   8.567  21.017  0.00  0.00    +0.000 A 
ATOM     20  C   UNL     1       0.516   9.755  21.042  0.00  0.00    +0.000 A 
ATOM     21  C   UNL     1      -0.201  10.305  22.228  0.00  0.00    +0.000 C 
ATOM     22  C   UNL     1       0.520  10.565  19.799  0.00  0.00    +0.000 A 
ATOM     23  O   UNL     1      -0.079  11.632  19.721  0.00  0.00    +0.000 OA
ATOM     24  N   UNL     1       1.215  10.044  18.746  0.00  0.00    +0.000 N 
ATOM     25  C   UNL     1       1.788   8.803  18.699  0.00  0.00    +0.000 A 
ATOM     26  O   UNL     1       2.268   8.382  17.645  0.00  0.00    +0.000 OA
ATOM     27  H   UNL     1       1.199  10.563  17.883  0.00  0.00    +0.000 HD
ENDBRANCH  17  18
ENDBRANCH  16  17
ENDBRANCH  15  16
ENDBRANCH   1  15
TORSDOF 14
ENDMDL
