MODEL 1
REMARK VINA RESULT:      -8.9      0.000      0.000
REMARK  Name = 
REMARK  13 active torsions:
REMARK  status: ('A' for Active; 'I' for Inactive)
REMARK    1  A    between atoms: C_2  and  C_3
REMARK    2  A    between atoms: C_3  and  N_4
REMARK    3  A    between atoms: C_5  and  C_7
REMARK    4  A    between atoms: C_7  and  C_8
REMARK    5  A    between atoms: C_7  and  O_17
REMARK    6  A    between atoms: C_8  and  C_9
REMARK    7  A    between atoms: C_12  and  O_13
REMARK    8  A    between atoms: C_14  and  O_15
REMARK    9  A    between atoms: O_17  and  C_18
REMARK   10  A    between atoms: C_18  and  C_20
REMARK   11  A    between atoms: C_21  and  C_22
REMARK   12  A    between atoms: C_25  and  O_26
REMARK   13  A    between atoms: C_27  and  O_28
REMARK                            x       y       z     vdW  Elec       q    Type
REMARK                         _______ _______ _______ _____ _____    ______ ____
ROOT
ATOM      1  C   UNL     1       5.885   6.293  16.629  0.00  0.00    +0.000 C 
ENDROOT
BRANCH   1   3
ATOM      2  N   UNL     1       6.336   5.230  14.416  0.00  0.00    +0.000 N 
ATOM      3  C   UNL     1       6.661   5.264  15.758  0.00  0.00    +0.000 C 
ATOM      4  O   UNL     1       7.464   4.469  16.241  0.00  0.00    +0.000 OA
ATOM      5  H   UNL     1       5.590   5.813  14.065  0.00  0.00    +0.000 HD
BRANCH   2   6
ATOM      6  C   UNL     1       7.039   4.324  13.523  0.00  0.00    +0.000 C 
BRANCH   6   8
ATOM      7  C   UNL     1       5.269   2.913  11.834  0.00  0.00    +0.000 C 
ATOM      8  C   UNL     1       6.087   3.565  12.614  0.00  0.00    +0.000 C 
ENDBRANCH   6   8
ENDBRANCH   2   6
ENDBRANCH   1   3
BRANCH   1   9
ATOM      9  C   UNL     1       5.491   5.686  17.997  0.00  0.00    +0.000 C 
BRANCH   9  10
ATOM     10  C   UNL     1       4.238   4.829  18.003  0.00  0.00    +0.000 A 
ATOM     11  C   UNL     1       2.969   5.436  17.987  0.00  0.00    +0.000 A 
ATOM     12  C   UNL     1       1.798   4.675  18.051  0.00  0.00    +0.000 A 
ATOM     13  C   UNL     1       1.895   3.296  18.154  0.00  0.00    +0.000 A 
ATOM     14  C   UNL     1       3.145   2.680  18.163  0.00  0.00    +0.000 A 
ATOM     15  C   UNL     1       4.314   3.429  18.070  0.00  0.00    +0.000 A 
BRANCH  13  16
ATOM     16  O   UNL     1       0.788   2.503  18.267  0.00  0.00    +0.000 OA
ATOM     17  H   UNL     1       0.455   2.586  19.178  0.00  0.00    +0.000 HD
ENDBRANCH  13  16
BRANCH  14  18
ATOM     18  O   UNL     1       3.230   1.322  18.290  0.00  0.00    +0.000 OA
ATOM     19  H   UNL     1       3.206   0.993  17.368  0.00  0.00    +0.000 HD
ENDBRANCH  14  18
ENDBRANCH   9  10
ENDBRANCH   1   9
BRANCH   1  20
ATOM     20  O   UNL     1       6.513   7.553  16.923  0.00  0.00    +0.000 OA
BRANCH  20  21
ATOM     21  C   UNL     1       7.547   7.503  17.798  0.00  0.00    +0.000 C 
ATOM     22  O   UNL     1       7.920   6.509  18.400  0.00  0.00    +0.000 OA
BRANCH  21  23
ATOM     23  C   UNL     1       8.199   8.836  17.817  0.00  0.00    +0.000 C 
ATOM     24  C   UNL     1       8.754   9.341  18.932  0.00  0.00    +0.000 C 
BRANCH  24  25
ATOM     25  C   UNL     1       9.447  10.646  19.018  0.00  0.00    +0.000 A 
ATOM     26  C   UNL     1      10.242  11.004  20.125  0.00  0.00    +0.000 A 
ATOM     27  C   UNL     1      10.921  12.229  20.169  0.00  0.00    +0.000 A 
ATOM     28  C   UNL     1      10.818  13.103  19.098  0.00  0.00    +0.000 A 
ATOM     29  C   UNL     1      10.051  12.757  17.990  0.00  0.00    +0.000 A 
ATOM     30  C   UNL     1       9.373  11.541  17.937  0.00  0.00    +0.000 A 
BRANCH  28  31
ATOM     31  O   UNL     1      11.458  14.311  19.084  0.00  0.00    +0.000 OA
ATOM     32  H   UNL     1      12.291  14.220  19.579  0.00  0.00    +0.000 HD
ENDBRANCH  28  31
BRANCH  29  33
ATOM     33  O   UNL     1       9.968  13.618  16.932  0.00  0.00    +0.000 OA
ATOM     34  H   UNL     1      10.839  14.064  16.907  0.00  0.00    +0.000 HD
ENDBRANCH  29  33
ENDBRANCH  24  25
ENDBRANCH  21  23
ENDBRANCH  20  21
ENDBRANCH   1  20
TORSDOF 13
ENDMDL
MODEL 2
REMARK VINA RESULT:      -8.9      2.816      4.394
REMARK  Name = 
REMARK  13 active torsions:
REMARK  status: ('A' for Active; 'I' for Inactive)
REMARK    1  A    between atoms: C_2  and  C_3
REMARK    2  A    between atoms: C_3  and  N_4
REMARK    3  A    between atoms: C_5  and  C_7
REMARK    4  A    between atoms: C_7  and  C_8
REMARK    5  A    between atoms: C_7  and  O_17
REMARK    6  A    between atoms: C_8  and  C_9
REMARK    7  A    between atoms: C_12  and  O_13
REMARK    8  A    between atoms: C_14  and  O_15
REMARK    9  A    between atoms: O_17  and  C_18
REMARK   10  A    between atoms: C_18  and  C_20
REMARK   11  A    between atoms: C_21  and  C_22
REMARK   12  A    between atoms: C_25  and  O_26
REMARK   13  A    between atoms: C_27  and  O_28
REMARK                            x       y       z     vdW  Elec       q    Type
REMARK                         _______ _______ _______ _____ _____    ______ ____
ROOT
ATOM      1  C   UNL     1       5.311   5.676  17.733  0.00  0.00    +0.000 C 
ENDROOT
BRANCH   1   3
ATOM      2  N   UNL     1       4.390   3.657  18.877  0.00  0.00    +0.000 N 
ATOM      3  C   UNL     1       5.369   4.632  18.885  0.00  0.00    +0.000 C 
ATOM      4  O   UNL     1       6.187   4.708  19.799  0.00  0.00    +0.000 OA
ATOM      5  H   UNL     1       3.660   3.685  18.180  0.00  0.00    +0.000 HD
BRANCH   2   6
ATOM      6  C   UNL     1       4.391   2.621  19.895  0.00  0.00    +0.000 C 
BRANCH   6   8
ATOM      7  C   UNL     1       2.110   2.761  21.554  0.00  0.00    +0.000 C 
ATOM      8  C   UNL     1       3.164   2.696  20.788  0.00  0.00    +0.000 C 
ENDBRANCH   6   8
ENDBRANCH   2   6
ENDBRANCH   1   3
BRANCH   1   9
ATOM      9  C   UNL     1       3.853   5.935  17.283  0.00  0.00    +0.000 C 
BRANCH   9  10
ATOM     10  C   UNL     1       3.078   6.950  18.105  0.00  0.00    +0.000 A 
ATOM     11  C   UNL     1       2.670   6.633  19.413  0.00  0.00    +0.000 A 
ATOM     12  C   UNL     1       1.907   7.523  20.173  0.00  0.00    +0.000 A 
ATOM     13  C   UNL     1       1.527   8.733  19.613  0.00  0.00    +0.000 A 
ATOM     14  C   UNL     1       1.931   9.065  18.321  0.00  0.00    +0.000 A 
ATOM     15  C   UNL     1       2.716   8.196  17.570  0.00  0.00    +0.000 A 
BRANCH  13  16
ATOM     16  O   UNL     1       0.742   9.625  20.289  0.00  0.00    +0.000 OA
ATOM     17  H   UNL     1       0.947  10.515  19.954  0.00  0.00    +0.000 HD
ENDBRANCH  13  16
BRANCH  14  18
ATOM     18  O   UNL     1       1.531  10.250  17.770  0.00  0.00    +0.000 OA
ATOM     19  H   UNL     1       0.579  10.116  17.579  0.00  0.00    +0.000 HD
ENDBRANCH  14  18
ENDBRANCH   9  10
ENDBRANCH   1   9
BRANCH   1  20
ATOM     20  O   UNL     1       5.891   6.973  17.955  0.00  0.00    +0.000 OA
BRANCH  20  21
ATOM     21  C   UNL     1       7.067   7.207  17.322  0.00  0.00    +0.000 C 
ATOM     22  O   UNL     1       7.621   6.442  16.550  0.00  0.00    +0.000 OA
BRANCH  21  23
ATOM     23  C   UNL     1       7.505   8.585  17.657  0.00  0.00    +0.000 C 
ATOM     24  C   UNL     1       8.533   8.822  18.489  0.00  0.00    +0.000 C 
BRANCH  24  25
ATOM     25  C   UNL     1       9.044  10.166  18.843  0.00  0.00    +0.000 A 
ATOM     26  C   UNL     1       9.513  10.475  20.134  0.00  0.00    +0.000 A 
ATOM     27  C   UNL     1      10.029  11.743  20.439  0.00  0.00    +0.000 A 
ATOM     28  C   UNL     1      10.089  12.709  19.446  0.00  0.00    +0.000 A 
ATOM     29  C   UNL     1       9.644  12.413  18.161  0.00  0.00    +0.000 A 
ATOM     30  C   UNL     1       9.132  11.156  17.850  0.00  0.00    +0.000 A 
BRANCH  28  31
ATOM     31  O   UNL     1      10.581  13.962  19.683  0.00  0.00    +0.000 OA
ATOM     32  H   UNL     1       9.831  14.554  19.868  0.00  0.00    +0.000 HD
ENDBRANCH  28  31
BRANCH  29  33
ATOM     33  O   UNL     1       9.721  13.368  17.186  0.00  0.00    +0.000 OA
ATOM     34  H   UNL     1       9.494  14.205  17.640  0.00  0.00    +0.000 HD
ENDBRANCH  29  33
ENDBRANCH  24  25
ENDBRANCH  21  23
ENDBRANCH  20  21
ENDBRANCH   1  20
TORSDOF 13
ENDMDL
MODEL 3
REMARK VINA RESULT:      -8.6      6.631     10.705
REMARK  Name = 
REMARK  13 active torsions:
REMARK  status: ('A' for Active; 'I' for Inactive)
REMARK    1  A    between atoms: C_2  and  C_3
REMARK    2  A    between atoms: C_3  and  N_4
REMARK    3  A    between atoms: C_5  and  C_7
REMARK    4  A    between atoms: C_7  and  C_8
REMARK    5  A    between atoms: C_7  and  O_17
REMARK    6  A    between atoms: C_8  and  C_9
REMARK    7  A    between atoms: C_12  and  O_13
REMARK    8  A    between atoms: C_14  and  O_15
REMARK    9  A    between atoms: O_17  and  C_18
REMARK   10  A    between atoms: C_18  and  C_20
REMARK   11  A    between atoms: C_21  and  C_22
REMARK   12  A    between atoms: C_25  and  O_26
REMARK   13  A    between atoms: C_27  and  O_28
REMARK                            x       y       z     vdW  Elec       q    Type
REMARK                         _______ _______ _______ _____ _____    ______ ____
ROOT
ATOM      1  C   UNL     1       0.247   9.536  19.776  0.00  0.00    +0.000 C 
ENDROOT
BRANCH   1   3
ATOM      2  N   UNL     1      -0.553  10.755  21.803  0.00  0.00    +0.000 N 
ATOM      3  C   UNL     1      -0.310   9.522  21.229  0.00  0.00    +0.000 C 
ATOM      4  O   UNL     1      -0.456   8.481  21.866  0.00  0.00    +0.000 OA
ATOM      5  H   UNL     1      -0.316  11.598  21.300  0.00  0.00    +0.000 HD
BRANCH   2   6
ATOM      6  C   UNL     1      -1.110  10.833  23.143  0.00  0.00    +0.000 C 
BRANCH   6   8
ATOM      7  C   UNL     1      -3.323  12.583  23.271  0.00  0.00    +0.000 C 
ATOM      8  C   UNL     1      -2.301  11.775  23.212  0.00  0.00    +0.000 C 
ENDBRANCH   6   8
ENDBRANCH   2   6
ENDBRANCH   1   3
BRANCH   1   9
ATOM      9  C   UNL     1      -0.133  10.845  19.042  0.00  0.00    +0.000 C 
BRANCH   9  10
ATOM     10  C   UNL     1      -1.507  10.865  18.397  0.00  0.00    +0.000 A 
ATOM     11  C   UNL     1      -1.767  10.068  17.267  0.00  0.00    +0.000 A 
ATOM     12  C   UNL     1      -3.003  10.109  16.617  0.00  0.00    +0.000 A 
ATOM     13  C   UNL     1      -3.983  10.970  17.086  0.00  0.00    +0.000 A 
ATOM     14  C   UNL     1      -3.743  11.759  18.209  0.00  0.00    +0.000 A 
ATOM     15  C   UNL     1      -2.526  11.702  18.878  0.00  0.00    +0.000 A 
BRANCH  13  16
ATOM     16  O   UNL     1      -5.194  11.089  16.464  0.00  0.00    +0.000 OA
ATOM     17  H   UNL     1      -5.524  10.191  16.282  0.00  0.00    +0.000 HD
ENDBRANCH  13  16
BRANCH  14  18
ATOM     18  O   UNL     1      -4.707  12.623  18.647  0.00  0.00    +0.000 OA
ATOM     19  H   UNL     1      -5.535  12.102  18.601  0.00  0.00    +0.000 HD
ENDBRANCH  14  18
ENDBRANCH   9  10
ENDBRANCH   1   9
BRANCH   1  20
ATOM     20  O   UNL     1       1.664   9.374  19.585  0.00  0.00    +0.000 OA
BRANCH  20  21
ATOM     21  C   UNL     1       2.037   8.810  18.411  0.00  0.00    +0.000 C 
ATOM     22  O   UNL     1       2.084   9.380  17.333  0.00  0.00    +0.000 OA
BRANCH  21  23
ATOM     23  C   UNL     1       2.469   7.417  18.686  0.00  0.00    +0.000 C 
ATOM     24  C   UNL     1       2.201   6.409  17.840  0.00  0.00    +0.000 C 
BRANCH  24  25
ATOM     25  C   UNL     1       2.626   5.004  18.033  0.00  0.00    +0.000 A 
ATOM     26  C   UNL     1       1.829   3.915  17.627  0.00  0.00    +0.000 A 
ATOM     27  C   UNL     1       2.267   2.593  17.784  0.00  0.00    +0.000 A 
ATOM     28  C   UNL     1       3.514   2.350  18.340  0.00  0.00    +0.000 A 
ATOM     29  C   UNL     1       4.320   3.416  18.731  0.00  0.00    +0.000 A 
ATOM     30  C   UNL     1       3.892   4.733  18.577  0.00  0.00    +0.000 A 
BRANCH  28  31
ATOM     31  O   UNL     1       3.995   1.083  18.518  0.00  0.00    +0.000 OA
ATOM     32  H   UNL     1       3.678   0.532  17.782  0.00  0.00    +0.000 HD
ENDBRANCH  28  31
BRANCH  29  33
ATOM     33  O   UNL     1       5.553   3.168  19.264  0.00  0.00    +0.000 OA
ATOM     34  H   UNL     1       6.182   3.377  18.544  0.00  0.00    +0.000 HD
ENDBRANCH  29  33
ENDBRANCH  24  25
ENDBRANCH  21  23
ENDBRANCH  20  21
ENDBRANCH   1  20
TORSDOF 13
ENDMDL
MODEL 4
REMARK VINA RESULT:      -8.6      2.530      3.932
REMARK  Name = 
REMARK  13 active torsions:
REMARK  status: ('A' for Active; 'I' for Inactive)
REMARK    1  A    between atoms: C_2  and  C_3
REMARK    2  A    between atoms: C_3  and  N_4
REMARK    3  A    between atoms: C_5  and  C_7
REMARK    4  A    between atoms: C_7  and  C_8
REMARK    5  A    between atoms: C_7  and  O_17
REMARK    6  A    between atoms: C_8  and  C_9
REMARK    7  A    between atoms: C_12  and  O_13
REMARK    8  A    between atoms: C_14  and  O_15
REMARK    9  A    between atoms: O_17  and  C_18
REMARK   10  A    between atoms: C_18  and  C_20
REMARK   11  A    between atoms: C_21  and  C_22
REMARK   12  A    between atoms: C_25  and  O_26
REMARK   13  A    between atoms: C_27  and  O_28
REMARK                            x       y       z     vdW  Elec       q    Type
REMARK                         _______ _______ _______ _____ _____    ______ ____
ROOT
ATOM      1  C   UNL     1       5.638   5.155  17.641  0.00  0.00    +0.000 C 
ENDROOT
BRANCH   1   3
ATOM      2  N   UNL     1       4.277   3.129  18.167  0.00  0.00    +0.000 N 
ATOM      3  C   UNL     1       5.220   4.027  18.628  0.00  0.00    +0.000 C 
ATOM      4  O   UNL     1       5.641   3.975  19.782  0.00  0.00    +0.000 OA
ATOM      5  H   UNL     1       3.860   3.262  17.258  0.00  0.00    +0.000 HD
BRANCH   2   6
ATOM      6  C   UNL     1       3.857   2.023  19.011  0.00  0.00    +0.000 C 
BRANCH   6   8
ATOM      7  C   UNL     1       1.531   2.639  20.490  0.00  0.00    +0.000 C 
ATOM      8  C   UNL     1       2.605   2.355  19.807  0.00  0.00    +0.000 C 
ENDBRANCH   6   8
ENDBRANCH   2   6
ENDBRANCH   1   3
BRANCH   1   9
ATOM      9  C   UNL     1       4.406   5.751  16.917  0.00  0.00    +0.000 C 
BRANCH   9  10
ATOM     10  C   UNL     1       3.489   6.608  17.771  0.00  0.00    +0.000 A 
ATOM     11  C   UNL     1       3.132   7.900  17.344  0.00  0.00    +0.000 A 
ATOM     12  C   UNL     1       2.337   8.733  18.134  0.00  0.00    +0.000 A 
ATOM     13  C   UNL     1       1.912   8.281  19.374  0.00  0.00    +0.000 A 
ATOM     14  C   UNL     1       2.250   7.001  19.807  0.00  0.00    +0.000 A 
ATOM     15  C   UNL     1       3.017   6.155  19.013  0.00  0.00    +0.000 A 
BRANCH  13  16
ATOM     16  O   UNL     1       1.171   9.068  20.212  0.00  0.00    +0.000 OA
ATOM     17  H   UNL     1       0.232   8.910  20.015  0.00  0.00    +0.000 HD
ENDBRANCH  13  16
BRANCH  14  18
ATOM     18  O   UNL     1       1.847   6.575  21.042  0.00  0.00    +0.000 OA
ATOM     19  H   UNL     1       2.138   7.287  21.648  0.00  0.00    +0.000 HD
ENDBRANCH  14  18
ENDBRANCH   9  10
ENDBRANCH   1   9
BRANCH   1  20
ATOM     20  O   UNL     1       6.374   6.278  18.156  0.00  0.00    +0.000 OA
BRANCH  20  21
ATOM     21  C   UNL     1       7.366   6.745  17.360  0.00  0.00    +0.000 C 
ATOM     22  O   UNL     1       7.596   6.373  16.220  0.00  0.00    +0.000 OA
BRANCH  21  23
ATOM     23  C   UNL     1       8.053   7.847  18.078  0.00  0.00    +0.000 C 
ATOM     24  C   UNL     1       8.023   9.115  17.632  0.00  0.00    +0.000 C 
BRANCH  24  25
ATOM     25  C   UNL     1       8.656  10.267  18.311  0.00  0.00    +0.000 A 
ATOM     26  C   UNL     1       9.309  10.141  19.553  0.00  0.00    +0.000 A 
ATOM     27  C   UNL     1       9.936  11.238  20.162  0.00  0.00    +0.000 A 
ATOM     28  C   UNL     1       9.924  12.469  19.524  0.00  0.00    +0.000 A 
ATOM     29  C   UNL     1       9.298  12.605  18.289  0.00  0.00    +0.000 A 
ATOM     30  C   UNL     1       8.673  11.520  17.677  0.00  0.00    +0.000 A 
BRANCH  28  31
ATOM     31  O   UNL     1      10.519  13.573  20.068  0.00  0.00    +0.000 OA
ATOM     32  H   UNL     1      10.243  13.639  20.999  0.00  0.00    +0.000 HD
ENDBRANCH  28  31
BRANCH  29  33
ATOM     33  O   UNL     1       9.304  13.818  17.661  0.00  0.00    +0.000 OA
ATOM     34  H   UNL     1       9.341  13.604  16.706  0.00  0.00    +0.000 HD
ENDBRANCH  29  33
ENDBRANCH  24  25
ENDBRANCH  21  23
ENDBRANCH  20  21
ENDBRANCH   1  20
TORSDOF 13
ENDMDL
MODEL 5
REMARK VINA RESULT:      -8.6      1.506      2.118
REMARK  Name = 
REMARK  13 active torsions:
REMARK  status: ('A' for Active; 'I' for Inactive)
REMARK    1  A    between atoms: C_2  and  C_3
REMARK    2  A    between atoms: C_3  and  N_4
REMARK    3  A    between atoms: C_5  and  C_7
REMARK    4  A    between atoms: C_7  and  C_8
REMARK    5  A    between atoms: C_7  and  O_17
REMARK    6  A    between atoms: C_8  and  C_9
REMARK    7  A    between atoms: C_12  and  O_13
REMARK    8  A    between atoms: C_14  and  O_15
REMARK    9  A    between atoms: O_17  and  C_18
REMARK   10  A    between atoms: C_18  and  C_20
REMARK   11  A    between atoms: C_21  and  C_22
REMARK   12  A    between atoms: C_25  and  O_26
REMARK   13  A    between atoms: C_27  and  O_28
REMARK                            x       y       z     vdW  Elec       q    Type
REMARK                         _______ _______ _______ _____ _____    ______ ____
ROOT
ATOM      1  C   UNL     1       6.667   5.387  15.750  0.00  0.00    +0.000 C 
ENDROOT
BRANCH   1   3
ATOM      2  N   UNL     1       6.461   4.144  13.595  0.00  0.00    +0.000 N 
ATOM      3  C   UNL     1       7.143   5.122  14.292  0.00  0.00    +0.000 C 
ATOM      4  O   UNL     1       8.119   5.690  13.807  0.00  0.00    +0.000 OA
ATOM      5  H   UNL     1       5.738   3.611  14.055  0.00  0.00    +0.000 HD
BRANCH   2   6
ATOM      6  C   UNL     1       6.816   3.858  12.215  0.00  0.00    +0.000 C 
BRANCH   6   8
ATOM      7  C   UNL     1       5.846   1.344  11.370  0.00  0.00    +0.000 C 
ATOM      8  C   UNL     1       6.294   2.505  11.760  0.00  0.00    +0.000 C 
ENDBRANCH   6   8
ENDBRANCH   2   6
ENDBRANCH   1   3
BRANCH   1   9
ATOM      9  C   UNL     1       6.323   4.065  16.477  0.00  0.00    +0.000 C 
BRANCH   9  10
ATOM     10  C   UNL     1       5.088   4.098  17.360  0.00  0.00    +0.000 A 
ATOM     11  C   UNL     1       5.224   4.185  18.758  0.00  0.00    +0.000 A 
ATOM     12  C   UNL     1       4.109   4.159  19.600  0.00  0.00    +0.000 A 
ATOM     13  C   UNL     1       2.847   4.023  19.043  0.00  0.00    +0.000 A 
ATOM     14  C   UNL     1       2.696   3.945  17.660  0.00  0.00    +0.000 A 
ATOM     15  C   UNL     1       3.799   3.999  16.814  0.00  0.00    +0.000 A 
BRANCH  13  16
ATOM     16  O   UNL     1       1.723   3.945  19.817  0.00  0.00    +0.000 OA
ATOM     17  H   UNL     1       1.271   3.110  19.601  0.00  0.00    +0.000 HD
ENDBRANCH  13  16
BRANCH  14  18
ATOM     18  O   UNL     1       1.449   3.786  17.123  0.00  0.00    +0.000 OA
ATOM     19  H   UNL     1       1.476   4.309  16.296  0.00  0.00    +0.000 HD
ENDBRANCH  14  18
ENDBRANCH   9  10
ENDBRANCH   1   9
BRANCH   1  20
ATOM     20  O   UNL     1       7.542   6.108  16.635  0.00  0.00    +0.000 OA
BRANCH  20  21
ATOM     21  C   UNL     1       7.028   7.239  17.177  0.00  0.00    +0.000 C 
ATOM     22  O   UNL     1       5.849   7.433  17.427  0.00  0.00    +0.000 OA
BRANCH  21  23
ATOM     23  C   UNL     1       8.155   8.148  17.500  0.00  0.00    +0.000 C 
ATOM     24  C   UNL     1       7.980   9.270  18.219  0.00  0.00    +0.000 C 
BRANCH  24  25
ATOM     25  C   UNL     1       9.060  10.206  18.605  0.00  0.00    +0.000 A 
ATOM     26  C   UNL     1       9.953  10.753  17.663  0.00  0.00    +0.000 A 
ATOM     27  C   UNL     1      10.945  11.668  18.044  0.00  0.00    +0.000 A 
ATOM     28  C   UNL     1      11.044  12.050  19.373  0.00  0.00    +0.000 A 
ATOM     29  C   UNL     1      10.159  11.531  20.313  0.00  0.00    +0.000 A 
ATOM     30  C   UNL     1       9.170  10.622  19.943  0.00  0.00    +0.000 A 
BRANCH  28  31
ATOM     31  O   UNL     1      11.990  12.938  19.803  0.00  0.00    +0.000 OA
ATOM     32  H   UNL     1      11.668  13.837  19.621  0.00  0.00    +0.000 HD
ENDBRANCH  28  31
BRANCH  29  33
ATOM     33  O   UNL     1      10.255  11.925  21.617  0.00  0.00    +0.000 OA
ATOM     34  H   UNL     1      11.180  11.727  21.869  0.00  0.00    +0.000 HD
ENDBRANCH  29  33
ENDBRANCH  24  25
ENDBRANCH  21  23
ENDBRANCH  20  21
ENDBRANCH   1  20
TORSDOF 13
ENDMDL
MODEL 6
REMARK VINA RESULT:      -8.5      4.141      5.422
REMARK  Name = 
REMARK  13 active torsions:
REMARK  status: ('A' for Active; 'I' for Inactive)
REMARK    1  A    between atoms: C_2  and  C_3
REMARK    2  A    between atoms: C_3  and  N_4
REMARK    3  A    between atoms: C_5  and  C_7
REMARK    4  A    between atoms: C_7  and  C_8
REMARK    5  A    between atoms: C_7  and  O_17
REMARK    6  A    between atoms: C_8  and  C_9
REMARK    7  A    between atoms: C_12  and  O_13
REMARK    8  A    between atoms: C_14  and  O_15
REMARK    9  A    between atoms: O_17  and  C_18
REMARK   10  A    between atoms: C_18  and  C_20
REMARK   11  A    between atoms: C_21  and  C_22
REMARK   12  A    between atoms: C_25  and  O_26
REMARK   13  A    between atoms: C_27  and  O_28
REMARK                            x       y       z     vdW  Elec       q    Type
REMARK                         _______ _______ _______ _____ _____    ______ ____
ROOT
ATOM      1  C   UNL     1       5.247   4.622  16.154  0.00  0.00    +0.000 C 
ENDROOT
BRANCH   1   3
ATOM      2  N   UNL     1       6.061   3.474  14.092  0.00  0.00    +0.000 N 
ATOM      3  C   UNL     1       5.581   4.650  14.634  0.00  0.00    +0.000 C 
ATOM      4  O   UNL     1       5.500   5.677  13.963  0.00  0.00    +0.000 OA
ATOM      5  H   UNL     1       6.228   2.677  14.689  0.00  0.00    +0.000 HD
BRANCH   2   6
ATOM      6  C   UNL     1       6.363   3.401  12.672  0.00  0.00    +0.000 C 
BRANCH   6   8
ATOM      7  C   UNL     1       4.028   3.153  11.103  0.00  0.00    +0.000 C 
ATOM      8  C   UNL     1       5.106   3.267  11.828  0.00  0.00    +0.000 C 
ENDBRANCH   6   8
ENDBRANCH   2   6
ENDBRANCH   1   3
BRANCH   1   9
ATOM      9  C   UNL     1       4.709   3.236  16.584  0.00  0.00    +0.000 C 
BRANCH   9  10
ATOM     10  C   UNL     1       3.610   3.250  17.632  0.00  0.00    +0.000 A 
ATOM     11  C   UNL     1       2.339   3.762  17.314  0.00  0.00    +0.000 A 
ATOM     12  C   UNL     1       1.326   3.842  18.272  0.00  0.00    +0.000 A 
ATOM     13  C   UNL     1       1.591   3.428  19.569  0.00  0.00    +0.000 A 
ATOM     14  C   UNL     1       2.842   2.911  19.897  0.00  0.00    +0.000 A 
ATOM     15  C   UNL     1       3.846   2.801  18.941  0.00  0.00    +0.000 A 
BRANCH  13  16
ATOM     16  O   UNL     1       0.655   3.526  20.561  0.00  0.00    +0.000 OA
ATOM     17  H   UNL     1      -0.083   2.934  20.332  0.00  0.00    +0.000 HD
ENDBRANCH  13  16
BRANCH  14  18
ATOM     18  O   UNL     1       3.100   2.528  21.184  0.00  0.00    +0.000 OA
ATOM     19  H   UNL     1       2.231   2.593  21.632  0.00  0.00    +0.000 HD
ENDBRANCH  14  18
ENDBRANCH   9  10
ENDBRANCH   1   9
BRANCH   1  20
ATOM     20  O   UNL     1       6.290   4.947  17.090  0.00  0.00    +0.000 OA
BRANCH  20  21
ATOM     21  C   UNL     1       6.591   6.264  17.199  0.00  0.00    +0.000 C 
ATOM     22  O   UNL     1       7.544   6.819  16.675  0.00  0.00    +0.000 OA
BRANCH  21  23
ATOM     23  C   UNL     1       5.513   6.921  17.979  0.00  0.00    +0.000 C 
ATOM     24  C   UNL     1       4.247   6.982  17.532  0.00  0.00    +0.000 C 
BRANCH  24  25
ATOM     25  C   UNL     1       3.118   7.591  18.269  0.00  0.00    +0.000 A 
ATOM     26  C   UNL     1       2.701   7.121  19.530  0.00  0.00    +0.000 A 
ATOM     27  C   UNL     1       1.653   7.737  20.228  0.00  0.00    +0.000 A 
ATOM     28  C   UNL     1       1.020   8.838  19.672  0.00  0.00    +0.000 A 
ATOM     29  C   UNL     1       1.430   9.325  18.435  0.00  0.00    +0.000 A 
ATOM     30  C   UNL     1       2.471   8.719  17.735  0.00  0.00    +0.000 A 
BRANCH  28  31
ATOM     31  O   UNL     1      -0.007   9.480  20.306  0.00  0.00    +0.000 OA
ATOM     32  H   UNL     1      -0.281   8.939  21.067  0.00  0.00    +0.000 HD
ENDBRANCH  28  31
BRANCH  29  33
ATOM     33  O   UNL     1       0.810  10.419  17.902  0.00  0.00    +0.000 OA
ATOM     34  H   UNL     1       1.527  10.925  17.469  0.00  0.00    +0.000 HD
ENDBRANCH  29  33
ENDBRANCH  24  25
ENDBRANCH  21  23
ENDBRANCH  20  21
ENDBRANCH   1  20
TORSDOF 13
ENDMDL
MODEL 7
REMARK VINA RESULT:      -8.4      1.085      1.201
REMARK  Name = 
REMARK  13 active torsions:
REMARK  status: ('A' for Active; 'I' for Inactive)
REMARK    1  A    between atoms: C_2  and  C_3
REMARK    2  A    between atoms: C_3  and  N_4
REMARK    3  A    between atoms: C_5  and  C_7
REMARK    4  A    between atoms: C_7  and  C_8
REMARK    5  A    between atoms: C_7  and  O_17
REMARK    6  A    between atoms: C_8  and  C_9
REMARK    7  A    between atoms: C_12  and  O_13
REMARK    8  A    between atoms: C_14  and  O_15
REMARK    9  A    between atoms: O_17  and  C_18
REMARK   10  A    between atoms: C_18  and  C_20
REMARK   11  A    between atoms: C_21  and  C_22
REMARK   12  A    between atoms: C_25  and  O_26
REMARK   13  A    between atoms: C_27  and  O_28
REMARK                            x       y       z     vdW  Elec       q    Type
REMARK                         _______ _______ _______ _____ _____    ______ ____
ROOT
ATOM      1  C   UNL     1       6.492   5.458  16.328  0.00  0.00    +0.000 C 
ENDROOT
BRANCH   1   3
ATOM      2  N   UNL     1       7.053   5.348  13.898  0.00  0.00    +0.000 N 
ATOM      3  C   UNL     1       6.851   4.630  15.061  0.00  0.00    +0.000 C 
ATOM      4  O   UNL     1       6.879   3.401  15.066  0.00  0.00    +0.000 OA
ATOM      5  H   UNL     1       6.910   6.347  13.894  0.00  0.00    +0.000 HD
BRANCH   2   6
ATOM      6  C   UNL     1       7.429   4.656  12.676  0.00  0.00    +0.000 C 
BRANCH   6   8
ATOM      7  C   UNL     1       5.389   2.929  11.765  0.00  0.00    +0.000 C 
ATOM      8  C   UNL     1       6.331   3.726  12.186  0.00  0.00    +0.000 C 
ENDBRANCH   6   8
ENDBRANCH   2   6
ENDBRANCH   1   3
BRANCH   1   9
ATOM      9  C   UNL     1       6.140   4.535  17.520  0.00  0.00    +0.000 C 
BRANCH   9  10
ATOM     10  C   UNL     1       4.678   4.145  17.645  0.00  0.00    +0.000 A 
ATOM     11  C   UNL     1       3.676   5.129  17.553  0.00  0.00    +0.000 A 
ATOM     12  C   UNL     1       2.326   4.810  17.721  0.00  0.00    +0.000 A 
ATOM     13  C   UNL     1       1.974   3.500  18.006  0.00  0.00    +0.000 A 
ATOM     14  C   UNL     1       2.954   2.513  18.091  0.00  0.00    +0.000 A 
ATOM     15  C   UNL     1       4.297   2.818  17.896  0.00  0.00    +0.000 A 
BRANCH  13  16
ATOM     16  O   UNL     1       0.675   3.136  18.227  0.00  0.00    +0.000 OA
ATOM     17  H   UNL     1       0.226   3.883  18.659  0.00  0.00    +0.000 HD
ENDBRANCH  13  16
BRANCH  14  18
ATOM     18  O   UNL     1       2.597   1.230  18.397  0.00  0.00    +0.000 OA
ATOM     19  H   UNL     1       1.689   1.142  18.043  0.00  0.00    +0.000 HD
ENDBRANCH  14  18
ENDBRANCH   9  10
ENDBRANCH   1   9
BRANCH   1  20
ATOM     20  O   UNL     1       7.459   6.397  16.829  0.00  0.00    +0.000 OA
BRANCH  20  21
ATOM     21  C   UNL     1       6.952   7.534  17.365  0.00  0.00    +0.000 C 
ATOM     22  O   UNL     1       5.767   7.819  17.432  0.00  0.00    +0.000 OA
BRANCH  21  23
ATOM     23  C   UNL     1       8.076   8.316  17.937  0.00  0.00    +0.000 C 
ATOM     24  C   UNL     1       8.114   9.657  17.873  0.00  0.00    +0.000 C 
BRANCH  24  25
ATOM     25  C   UNL     1       9.185  10.502  18.448  0.00  0.00    +0.000 A 
ATOM     26  C   UNL     1       9.294  10.739  19.833  0.00  0.00    +0.000 A 
ATOM     27  C   UNL     1      10.338  11.511  20.361  0.00  0.00    +0.000 A 
ATOM     28  C   UNL     1      11.289  12.045  19.505  0.00  0.00    +0.000 A 
ATOM     29  C   UNL     1      11.205  11.807  18.137  0.00  0.00    +0.000 A 
ATOM     30  C   UNL     1      10.171  11.040  17.604  0.00  0.00    +0.000 A 
BRANCH  28  31
ATOM     31  O   UNL     1      12.329  12.805  19.962  0.00  0.00    +0.000 OA
ATOM     32  H   UNL     1      12.402  13.593  19.395  0.00  0.00    +0.000 HD
ENDBRANCH  28  31
BRANCH  29  33
ATOM     33  O   UNL     1      12.155  12.325  17.303  0.00  0.00    +0.000 OA
ATOM     34  H   UNL     1      12.768  12.807  17.895  0.00  0.00    +0.000 HD
ENDBRANCH  29  33
ENDBRANCH  24  25
ENDBRANCH  21  23
ENDBRANCH  20  21
ENDBRANCH   1  20
TORSDOF 13
ENDMDL
MODEL 8
REMARK VINA RESULT:      -8.4      4.769      5.903
REMARK  Name = 
REMARK  13 active torsions:
REMARK  status: ('A' for Active; 'I' for Inactive)
REMARK    1  A    between atoms: C_2  and  C_3
REMARK    2  A    between atoms: C_3  and  N_4
REMARK    3  A    between atoms: C_5  and  C_7
REMARK    4  A    between atoms: C_7  and  C_8
REMARK    5  A    between atoms: C_7  and  O_17
REMARK    6  A    between atoms: C_8  and  C_9
REMARK    7  A    between atoms: C_12  and  O_13
REMARK    8  A    between atoms: C_14  and  O_15
REMARK    9  A    between atoms: O_17  and  C_18
REMARK   10  A    between atoms: C_18  and  C_20
REMARK   11  A    between atoms: C_21  and  C_22
REMARK   12  A    between atoms: C_25  and  O_26
REMARK   13  A    between atoms: C_27  and  O_28
REMARK                            x       y       z     vdW  Elec       q    Type
REMARK                         _______ _______ _______ _____ _____    ______ ____
ROOT
ATOM      1  C   UNL     1       5.080   4.539  16.165  0.00  0.00    +0.000 C 
ENDROOT
BRANCH   1   3
ATOM      2  N   UNL     1       5.625   3.925  13.807  0.00  0.00    +0.000 N 
ATOM      3  C   UNL     1       6.125   4.326  15.032  0.00  0.00    +0.000 C 
ATOM      4  O   UNL     1       7.334   4.429  15.225  0.00  0.00    +0.000 OA
ATOM      5  H   UNL     1       4.639   3.734  13.706  0.00  0.00    +0.000 HD
BRANCH   2   6
ATOM      6  C   UNL     1       6.527   3.738  12.683  0.00  0.00    +0.000 C 
BRANCH   6   8
ATOM      7  C   UNL     1       5.923   1.402  11.216  0.00  0.00    +0.000 C 
ATOM      8  C   UNL     1       6.202   2.481  11.894  0.00  0.00    +0.000 C 
ENDBRANCH   6   8
ENDBRANCH   2   6
ENDBRANCH   1   3
BRANCH   1   9
ATOM      9  C   UNL     1       4.947   3.276  17.050  0.00  0.00    +0.000 C 
BRANCH   9  10
ATOM     10  C   UNL     1       3.750   3.248  17.985  0.00  0.00    +0.000 A 
ATOM     11  C   UNL     1       2.590   2.540  17.624  0.00  0.00    +0.000 A 
ATOM     12  C   UNL     1       1.454   2.543  18.436  0.00  0.00    +0.000 A 
ATOM     13  C   UNL     1       1.467   3.280  19.610  0.00  0.00    +0.000 A 
ATOM     14  C   UNL     1       2.611   3.980  19.986  0.00  0.00    +0.000 A 
ATOM     15  C   UNL     1       3.757   3.957  19.197  0.00  0.00    +0.000 A 
BRANCH  13  16
ATOM     16  O   UNL     1       0.370   3.360  20.422  0.00  0.00    +0.000 OA
ATOM     17  H   UNL     1       0.682   3.365  21.344  0.00  0.00    +0.000 HD
ENDBRANCH  13  16
BRANCH  14  18
ATOM     18  O   UNL     1       2.605   4.723  21.133  0.00  0.00    +0.000 OA
ATOM     19  H   UNL     1       2.300   5.607  20.844  0.00  0.00    +0.000 HD
ENDBRANCH  14  18
ENDBRANCH   9  10
ENDBRANCH   1   9
BRANCH   1  20
ATOM     20  O   UNL     1       5.271   5.638  17.073  0.00  0.00    +0.000 OA
BRANCH  20  21
ATOM     21  C   UNL     1       4.754   6.826  16.674  0.00  0.00    +0.000 C 
ATOM     22  O   UNL     1       4.873   7.314  15.562  0.00  0.00    +0.000 OA
BRANCH  21  23
ATOM     23  C   UNL     1       3.943   7.374  17.789  0.00  0.00    +0.000 C 
ATOM     24  C   UNL     1       2.751   7.959  17.582  0.00  0.00    +0.000 C 
BRANCH  24  25
ATOM     25  C   UNL     1       1.875   8.498  18.647  0.00  0.00    +0.000 A 
ATOM     26  C   UNL     1       1.862   7.965  19.950  0.00  0.00    +0.000 A 
ATOM     27  C   UNL     1       1.053   8.515  20.954  0.00  0.00    +0.000 A 
ATOM     28  C   UNL     1       0.257   9.612  20.663  0.00  0.00    +0.000 A 
ATOM     29  C   UNL     1       0.271  10.160  19.384  0.00  0.00    +0.000 A 
ATOM     30  C   UNL     1       1.073   9.621  18.380  0.00  0.00    +0.000 A 
BRANCH  28  31
ATOM     31  O   UNL     1      -0.552  10.191  21.600  0.00  0.00    +0.000 OA
ATOM     32  H   UNL     1       0.008  10.693  22.217  0.00  0.00    +0.000 HD
ENDBRANCH  28  31
BRANCH  29  33
ATOM     33  O   UNL     1      -0.506  11.250  19.110  0.00  0.00    +0.000 OA
ATOM     34  H   UNL     1      -0.719  11.170  18.158  0.00  0.00    +0.000 HD
ENDBRANCH  29  33
ENDBRANCH  24  25
ENDBRANCH  21  23
ENDBRANCH  20  21
ENDBRANCH   1  20
TORSDOF 13
ENDMDL
MODEL 9
REMARK VINA RESULT:      -8.3      1.982      2.411
REMARK  Name = 
REMARK  13 active torsions:
REMARK  status: ('A' for Active; 'I' for Inactive)
REMARK    1  A    between atoms: C_2  and  C_3
REMARK    2  A    between atoms: C_3  and  N_4
REMARK    3  A    between atoms: C_5  and  C_7
REMARK    4  A    between atoms: C_7  and  C_8
REMARK    5  A    between atoms: C_7  and  O_17
REMARK    6  A    between atoms: C_8  and  C_9
REMARK    7  A    between atoms: C_12  and  O_13
REMARK    8  A    between atoms: C_14  and  O_15
REMARK    9  A    between atoms: O_17  and  C_18
REMARK   10  A    between atoms: C_18  and  C_20
REMARK   11  A    between atoms: C_21  and  C_22
REMARK   12  A    between atoms: C_25  and  O_26
REMARK   13  A    between atoms: C_27  and  O_28
REMARK                            x       y       z     vdW  Elec       q    Type
REMARK                         _______ _______ _______ _____ _____    ______ ____
ROOT
ATOM      1  C   UNL     1       5.664   5.990  15.957  0.00  0.00    +0.000 C 
ENDROOT
BRANCH   1   3
ATOM      2  N   UNL     1       5.538   4.235  14.186  0.00  0.00    +0.000 N 
ATOM      3  C   UNL     1       6.299   5.240  14.751  0.00  0.00    +0.000 C 
ATOM      4  O   UNL     1       7.444   5.467  14.366  0.00  0.00    +0.000 OA
ATOM      5  H   UNL     1       4.648   3.989  14.595  0.00  0.00    +0.000 HD
BRANCH   2   6
ATOM      6  C   UNL     1       6.040   3.508  13.032  0.00  0.00    +0.000 C 
BRANCH   6   8
ATOM      7  C   UNL     1       4.064   3.190  11.039  0.00  0.00    +0.000 C 
ATOM      8  C   UNL     1       4.977   3.337  11.959  0.00  0.00    +0.000 C 
ENDBRANCH   6   8
ENDBRANCH   2   6
ENDBRANCH   1   3
BRANCH   1   9
ATOM      9  C   UNL     1       5.227   5.002  17.066  0.00  0.00    +0.000 C 
BRANCH   9  10
ATOM     10  C   UNL     1       4.231   5.541  18.077  0.00  0.00    +0.000 A 
ATOM     11  C   UNL     1       3.910   4.787  19.220  0.00  0.00    +0.000 A 
ATOM     12  C   UNL     1       2.954   5.230  20.138  0.00  0.00    +0.000 A 
ATOM     13  C   UNL     1       2.295   6.427  19.901  0.00  0.00    +0.000 A 
ATOM     14  C   UNL     1       2.609   7.188  18.777  0.00  0.00    +0.000 A 
ATOM     15  C   UNL     1       3.580   6.768  17.874  0.00  0.00    +0.000 A 
BRANCH  13  16
ATOM     16  O   UNL     1       1.318   6.889  20.737  0.00  0.00    +0.000 OA
ATOM     17  H   UNL     1       0.553   6.292  20.659  0.00  0.00    +0.000 HD
ENDBRANCH  13  16
BRANCH  14  18
ATOM     18  O   UNL     1       1.936   8.354  18.540  0.00  0.00    +0.000 OA
ATOM     19  H   UNL     1       1.050   8.203  18.929  0.00  0.00    +0.000 HD
ENDBRANCH  14  18
ENDBRANCH   9  10
ENDBRANCH   1   9
BRANCH   1  20
ATOM     20  O   UNL     1       6.440   7.005  16.617  0.00  0.00    +0.000 OA
BRANCH  20  21
ATOM     21  C   UNL     1       7.419   6.554  17.438  0.00  0.00    +0.000 C 
ATOM     22  O   UNL     1       7.818   5.402  17.501  0.00  0.00    +0.000 OA
BRANCH  21  23
ATOM     23  C   UNL     1       7.981   7.718  18.168  0.00  0.00    +0.000 C 
ATOM     24  C   UNL     1       8.109   8.925  17.592  0.00  0.00    +0.000 C 
BRANCH  24  25
ATOM     25  C   UNL     1       8.630  10.135  18.266  0.00  0.00    +0.000 A 
ATOM     26  C   UNL     1       9.306  10.075  19.501  0.00  0.00    +0.000 A 
ATOM     27  C   UNL     1       9.825  11.229  20.105  0.00  0.00    +0.000 A 
ATOM     28  C   UNL     1       9.681  12.453  19.470  0.00  0.00    +0.000 A 
ATOM     29  C   UNL     1       9.030  12.526  18.242  0.00  0.00    +0.000 A 
ATOM     30  C   UNL     1       8.512  11.385  17.635  0.00  0.00    +0.000 A 
BRANCH  28  31
ATOM     31  O   UNL     1      10.167  13.611  20.009  0.00  0.00    +0.000 OA
ATOM     32  H   UNL     1       9.645  13.819  20.804  0.00  0.00    +0.000 HD
ENDBRANCH  28  31
BRANCH  29  33
ATOM     33  O   UNL     1       8.906  13.735  17.617  0.00  0.00    +0.000 OA
ATOM     34  H   UNL     1       7.947  13.828  17.445  0.00  0.00    +0.000 HD
ENDBRANCH  29  33
ENDBRANCH  24  25
ENDBRANCH  21  23
ENDBRANCH  20  21
ENDBRANCH   1  20
TORSDOF 13
ENDMDL
