MODEL 1
REMARK VINA RESULT:      -8.4      0.000      0.000
REMARK  Name = 
REMARK  4 active torsions:
REMARK  status: ('A' for Active; 'I' for Inactive)
REMARK    1  A    between atoms: C_2  and  C_4
REMARK    2  A    between atoms: C_9  and  C_10
REMARK    3  A    between atoms: C_13  and  C_14
REMARK    4  A    between atoms: C_19  and  C_20
REMARK                            x       y       z     vdW  Elec       q    Type
REMARK                         _______ _______ _______ _____ _____    ______ ____
ROOT
ATOM      1  C   UNL     1       0.340  10.658  19.669  0.00  0.00    +0.000 A 
ATOM      2  C   UNL     1       1.169  11.141  18.673  0.00  0.00    +0.000 A 
ATOM      3  C   UNL     1       1.977  10.059  18.243  0.00  0.00    +0.000 A 
ATOM      4  C   UNL     1       1.616   8.952  18.993  0.00  0.00    +0.000 A 
ATOM      5  O   UNL     1       0.622   9.329  19.859  0.00  0.00    +0.000 OA
ENDROOT
BRANCH   1  11
ATOM      6  C   UNL     1      -4.126  13.416  22.894  0.00  0.00    +0.000 A 
ATOM      7  C   UNL     1      -4.446  13.771  21.582  0.00  0.00    +0.000 A 
ATOM      8  C   UNL     1      -3.625  13.368  20.521  0.00  0.00    +0.000 A 
ATOM      9  C   UNL     1      -2.482  12.582  20.777  0.00  0.00    +0.000 A 
ATOM     10  N   UNL     1      -1.609  12.083  19.823  0.00  0.00    +0.000 NA
ATOM     11  C   UNL     1      -0.676  11.361  20.408  0.00  0.00    +0.000 A 
ATOM     12  S   UNL     1      -0.755  11.285  22.119  0.00  0.00    +0.000 S 
ATOM     13  C   UNL     1      -2.179  12.249  22.098  0.00  0.00    +0.000 A 
ATOM     14  C   UNL     1      -2.975  12.668  23.176  0.00  0.00    +0.000 A 
BRANCH   6  16
ATOM     15  N   UNL     1      -5.734  12.926  24.611  0.00  0.00    +0.000 NA
ATOM     16  C   UNL     1      -5.015  13.820  24.018  0.00  0.00    +0.000 C 
ATOM     17  N   UNL     1      -5.085  15.130  24.398  0.00  0.00    +0.000 N 
ATOM     18  H   UNL     1      -6.259  13.352  25.376  0.00  0.00    +0.000 HD
ATOM     19  H   UNL     1      -5.913  15.390  24.920  0.00  0.00    +0.000 HD
ATOM     20  H   UNL     1      -4.881  15.806  23.668  0.00  0.00    +0.000 HD
ENDBRANCH   6  16
ENDBRANCH   1  11
BRANCH   4  21
ATOM     21  C   UNL     1       2.154   7.618  18.929  0.00  0.00    +0.000 A 
ATOM     22  N   UNL     1       2.900   7.207  17.926  0.00  0.00    +0.000 NA
ATOM     23  C   UNL     1       3.313   5.906  18.149  0.00  0.00    +0.000 A 
ATOM     24  C   UNL     1       4.147   5.151  17.300  0.00  0.00    +0.000 A 
ATOM     25  C   UNL     1       4.513   3.846  17.658  0.00  0.00    +0.000 A 
ATOM     26  C   UNL     1       4.044   3.274  18.843  0.00  0.00    +0.000 A 
ATOM     27  C   UNL     1       3.207   4.006  19.700  0.00  0.00    +0.000 A 
ATOM     28  C   UNL     1       2.859   5.321  19.333  0.00  0.00    +0.000 A 
ATOM     29  S   UNL     1       1.873   6.461  20.167  0.00  0.00    +0.000 S 
BRANCH  26  30
ATOM     30  C   UNL     1       4.448   1.884  19.212  0.00  0.00    +0.000 C 
ATOM     31  N   UNL     1       5.181   1.607  20.244  0.00  0.00    +0.000 NA
ATOM     32  N   UNL     1       4.049   0.816  18.462  0.00  0.00    +0.000 N 
ATOM     33  H   UNL     1       5.488   2.453  20.730  0.00  0.00    +0.000 HD
ATOM     34  H   UNL     1       3.133   0.868  18.034  0.00  0.00    +0.000 HD
ATOM     35  H   UNL     1       4.201  -0.056  18.961  0.00  0.00    +0.000 HD
ENDBRANCH  26  30
ENDBRANCH   4  21
TORSDOF 4
ENDMDL
MODEL 2
REMARK VINA RESULT:      -8.3      1.382      1.726
REMARK  Name = 
REMARK  4 active torsions:
REMARK  status: ('A' for Active; 'I' for Inactive)
REMARK    1  A    between atoms: C_2  and  C_4
REMARK    2  A    between atoms: C_9  and  C_10
REMARK    3  A    between atoms: C_13  and  C_14
REMARK    4  A    between atoms: C_19  and  C_20
REMARK                            x       y       z     vdW  Elec       q    Type
REMARK                         _______ _______ _______ _____ _____    ______ ____
ROOT
ATOM      1  C   UNL     1       0.679  10.840  19.957  0.00  0.00    +0.000 A 
ATOM      2  C   UNL     1       1.148  11.197  18.706  0.00  0.00    +0.000 A 
ATOM      3  C   UNL     1       1.789  10.055  18.161  0.00  0.00    +0.000 A 
ATOM      4  C   UNL     1       1.692   9.041  19.099  0.00  0.00    +0.000 A 
ATOM      5  O   UNL     1       1.018   9.531  20.189  0.00  0.00    +0.000 OA
ENDROOT
BRANCH   1  11
ATOM      6  C   UNL     1      -2.264  14.231  24.175  0.00  0.00    +0.000 A 
ATOM      7  C   UNL     1      -3.052  13.080  24.118  0.00  0.00    +0.000 A 
ATOM      8  C   UNL     1      -2.738  12.052  23.220  0.00  0.00    +0.000 A 
ATOM      9  C   UNL     1      -1.607  12.171  22.384  0.00  0.00    +0.000 A 
ATOM     10  N   UNL     1      -1.159  11.218  21.484  0.00  0.00    +0.000 NA
ATOM     11  C   UNL     1      -0.059  11.641  20.898  0.00  0.00    +0.000 A 
ATOM     12  S   UNL     1       0.468  13.210  21.347  0.00  0.00    +0.000 S 
ATOM     13  C   UNL     1      -0.842  13.335  22.454  0.00  0.00    +0.000 A 
ATOM     14  C   UNL     1      -1.159  14.388  23.328  0.00  0.00    +0.000 A 
BRANCH   6  16
ATOM     15  N   UNL     1      -1.683  15.686  25.996  0.00  0.00    +0.000 NA
ATOM     16  C   UNL     1      -2.582  15.310  25.150  0.00  0.00    +0.000 C 
ATOM     17  N   UNL     1      -3.825  15.877  25.161  0.00  0.00    +0.000 N 
ATOM     18  H   UNL     1      -2.041  16.452  26.569  0.00  0.00    +0.000 HD
ATOM     19  H   UNL     1      -4.082  16.349  26.019  0.00  0.00    +0.000 HD
ATOM     20  H   UNL     1      -4.577  15.283  24.826  0.00  0.00    +0.000 HD
ENDBRANCH   6  16
ENDBRANCH   1  11
BRANCH   4  21
ATOM     21  C   UNL     1       2.194   7.695  19.011  0.00  0.00    +0.000 A 
ATOM     22  N   UNL     1       2.863   7.261  17.965  0.00  0.00    +0.000 NA
ATOM     23  C   UNL     1       3.261   5.951  18.171  0.00  0.00    +0.000 A 
ATOM     24  C   UNL     1       4.019   5.172  17.275  0.00  0.00    +0.000 A 
ATOM     25  C   UNL     1       4.378   3.861  17.619  0.00  0.00    +0.000 A 
ATOM     26  C   UNL     1       3.975   3.307  18.837  0.00  0.00    +0.000 A 
ATOM     27  C   UNL     1       3.213   4.065  19.741  0.00  0.00    +0.000 A 
ATOM     28  C   UNL     1       2.872   5.385  19.386  0.00  0.00    +0.000 A 
ATOM     29  S   UNL     1       1.969   6.554  20.275  0.00  0.00    +0.000 S 
BRANCH  26  30
ATOM     30  C   UNL     1       4.371   1.911  19.190  0.00  0.00    +0.000 C 
ATOM     31  N   UNL     1       5.110   1.619  20.214  0.00  0.00    +0.000 NA
ATOM     32  N   UNL     1       3.957   0.854  18.434  0.00  0.00    +0.000 N 
ATOM     33  H   UNL     1       5.427   2.458  20.705  0.00  0.00    +0.000 HD
ATOM     34  H   UNL     1       3.039   0.916  18.013  0.00  0.00    +0.000 HD
ATOM     35  H   UNL     1       4.107  -0.024  18.923  0.00  0.00    +0.000 HD
ENDBRANCH  26  30
ENDBRANCH   4  21
TORSDOF 4
ENDMDL
MODEL 3
REMARK VINA RESULT:      -8.3      1.373     11.076
REMARK  Name = 
REMARK  4 active torsions:
REMARK  status: ('A' for Active; 'I' for Inactive)
REMARK    1  A    between atoms: C_2  and  C_4
REMARK    2  A    between atoms: C_9  and  C_10
REMARK    3  A    between atoms: C_13  and  C_14
REMARK    4  A    between atoms: C_19  and  C_20
REMARK                            x       y       z     vdW  Elec       q    Type
REMARK                         _______ _______ _______ _____ _____    ______ ____
ROOT
ATOM      1  C   UNL     1       1.724   9.000  19.037  0.00  0.00    +0.000 A 
ATOM      2  C   UNL     1       1.894  10.044  18.146  0.00  0.00    +0.000 A 
ATOM      3  C   UNL     1       1.266  11.181  18.714  0.00  0.00    +0.000 A 
ATOM      4  C   UNL     1       0.732  10.792  19.931  0.00  0.00    +0.000 A 
ATOM      5  O   UNL     1       1.013   9.462  20.115  0.00  0.00    +0.000 OA
ENDROOT
BRANCH   1  11
ATOM      6  C   UNL     1       3.945   3.259  18.769  0.00  0.00    +0.000 A 
ATOM      7  C   UNL     1       4.344   3.789  17.540  0.00  0.00    +0.000 A 
ATOM      8  C   UNL     1       3.986   5.095  17.184  0.00  0.00    +0.000 A 
ATOM      9  C   UNL     1       3.237   5.887  18.079  0.00  0.00    +0.000 A 
ATOM     10  N   UNL     1       2.851   7.202  17.874  0.00  0.00    +0.000 NA
ATOM     11  C   UNL     1       2.197   7.644  18.927  0.00  0.00    +0.000 A 
ATOM     12  S   UNL     1       1.961   6.507  20.190  0.00  0.00    +0.000 S 
ATOM     13  C   UNL     1       2.842   5.331  19.297  0.00  0.00    +0.000 A 
ATOM     14  C   UNL     1       3.168   4.014  19.658  0.00  0.00    +0.000 A 
BRANCH   6  16
ATOM     15  N   UNL     1       3.946   0.878  18.455  0.00  0.00    +0.000 NA
ATOM     16  C   UNL     1       4.351   1.881  19.158  0.00  0.00    +0.000 C 
ATOM     17  N   UNL     1       5.127   1.685  20.265  0.00  0.00    +0.000 N 
ATOM     18  H   UNL     1       4.335   0.010  18.828  0.00  0.00    +0.000 HD
ATOM     19  H   UNL     1       5.100   0.751  20.658  0.00  0.00    +0.000 HD
ATOM     20  H   UNL     1       5.039   2.392  20.989  0.00  0.00    +0.000 HD
ENDBRANCH   6  16
ENDBRANCH   1  11
BRANCH   4  21
ATOM     21  C   UNL     1      -0.005  11.588  20.877  0.00  0.00    +0.000 A 
ATOM     22  N   UNL     1      -1.084  11.142  21.483  0.00  0.00    +0.000 NA
ATOM     23  C   UNL     1      -1.557  12.097  22.366  0.00  0.00    +0.000 A 
ATOM     24  C   UNL     1      -2.679  11.955  23.206  0.00  0.00    +0.000 A 
ATOM     25  C   UNL     1      -3.036  12.994  24.078  0.00  0.00    +0.000 A 
ATOM     26  C   UNL     1      -2.303  14.182  24.109  0.00  0.00    +0.000 A 
ATOM     27  C   UNL     1      -1.185  14.346  23.275  0.00  0.00    +0.000 A 
ATOM     28  C   UNL     1      -0.830  13.287  22.416  0.00  0.00    +0.000 A 
ATOM     29  S   UNL     1       0.477  13.182  21.298  0.00  0.00    +0.000 S 
BRANCH  26  30
ATOM     30  C   UNL     1      -2.694  15.277  25.047  0.00  0.00    +0.000 C 
ATOM     31  N   UNL     1      -1.867  15.835  25.872  0.00  0.00    +0.000 NA
ATOM     32  N   UNL     1      -3.973  15.753  25.072  0.00  0.00    +0.000 N 
ATOM     33  H   UNL     1      -0.943  15.398  25.839  0.00  0.00    +0.000 HD
ATOM     34  H   UNL     1      -4.475  15.778  24.194  0.00  0.00    +0.000 HD
ATOM     35  H   UNL     1      -4.023  16.632  25.579  0.00  0.00    +0.000 HD
ENDBRANCH  26  30
ENDBRANCH   4  21
TORSDOF 4
ENDMDL
MODEL 4
REMARK VINA RESULT:      -8.3      0.249     11.060
REMARK  Name = 
REMARK  4 active torsions:
REMARK  status: ('A' for Active; 'I' for Inactive)
REMARK    1  A    between atoms: C_2  and  C_4
REMARK    2  A    between atoms: C_9  and  C_10
REMARK    3  A    between atoms: C_13  and  C_14
REMARK    4  A    between atoms: C_19  and  C_20
REMARK                            x       y       z     vdW  Elec       q    Type
REMARK                         _______ _______ _______ _____ _____    ______ ____
ROOT
ATOM      1  C   UNL     1       1.628   8.908  18.917  0.00  0.00    +0.000 A 
ATOM      2  C   UNL     1       2.039  10.022  18.208  0.00  0.00    +0.000 A 
ATOM      3  C   UNL     1       1.244  11.111  18.648  0.00  0.00    +0.000 A 
ATOM      4  C   UNL     1       0.374  10.624  19.609  0.00  0.00    +0.000 A 
ATOM      5  O   UNL     1       0.614   9.282  19.761  0.00  0.00    +0.000 OA
ENDROOT
BRANCH   1  11
ATOM      6  C   UNL     1       4.001   3.223  18.829  0.00  0.00    +0.000 A 
ATOM      7  C   UNL     1       4.457   3.753  17.620  0.00  0.00    +0.000 A 
ATOM      8  C   UNL     1       4.087   5.047  17.232  0.00  0.00    +0.000 A 
ATOM      9  C   UNL     1       3.269   5.827  18.076  0.00  0.00    +0.000 A 
ATOM     10  N   UNL     1       2.863   7.130  17.837  0.00  0.00    +0.000 NA
ATOM     11  C   UNL     1       2.140   7.564  18.847  0.00  0.00    +0.000 A 
ATOM     12  S   UNL     1       1.860   6.431  20.105  0.00  0.00    +0.000 S 
ATOM     13  C   UNL     1       2.820   5.271  19.274  0.00  0.00    +0.000 A 
ATOM     14  C   UNL     1       3.157   3.965  19.666  0.00  0.00    +0.000 A 
BRANCH   6  16
ATOM     15  N   UNL     1       5.168   1.720  20.297  0.00  0.00    +0.000 NA
ATOM     16  C   UNL     1       4.419   1.859  19.254  0.00  0.00    +0.000 C 
ATOM     17  N   UNL     1       4.030   0.768  18.530  0.00  0.00    +0.000 N 
ATOM     18  H   UNL     1       5.337   0.729  20.475  0.00  0.00    +0.000 HD
ATOM     19  H   UNL     1       4.588  -0.066  18.663  0.00  0.00    +0.000 HD
ATOM     20  H   UNL     1       3.852   0.941  17.545  0.00  0.00    +0.000 HD
ENDBRANCH   6  16
ENDBRANCH   1  11
BRANCH   4  21
ATOM     21  C   UNL     1      -0.631  11.342  20.347  0.00  0.00    +0.000 A 
ATOM     22  N   UNL     1      -1.672  11.896  19.762  0.00  0.00    +0.000 NA
ATOM     23  C   UNL     1      -2.492  12.478  20.713  0.00  0.00    +0.000 A 
ATOM     24  C   UNL     1      -3.710  13.139  20.455  0.00  0.00    +0.000 A 
ATOM     25  C   UNL     1      -4.461  13.661  21.517  0.00  0.00    +0.000 A 
ATOM     26  C   UNL     1      -4.005  13.554  22.833  0.00  0.00    +0.000 A 
ATOM     27  C   UNL     1      -2.792  12.905  23.111  0.00  0.00    +0.000 A 
ATOM     28  C   UNL     1      -2.055  12.372  22.034  0.00  0.00    +0.000 A 
ATOM     29  S   UNL     1      -0.557  11.521  22.053  0.00  0.00    +0.000 S 
BRANCH  26  30
ATOM     30  C   UNL     1      -4.820  14.112  23.954  0.00  0.00    +0.000 C 
ATOM     31  N   UNL     1      -5.945  13.598  24.339  0.00  0.00    +0.000 NA
ATOM     32  N   UNL     1      -4.402  15.214  24.641  0.00  0.00    +0.000 N 
ATOM     33  H   UNL     1      -6.224  12.810  23.752  0.00  0.00    +0.000 HD
ATOM     34  H   UNL     1      -3.405  15.327  24.774  0.00  0.00    +0.000 HD
ATOM     35  H   UNL     1      -4.930  15.328  25.501  0.00  0.00    +0.000 HD
ENDBRANCH  26  30
ENDBRANCH   4  21
TORSDOF 4
ENDMDL
MODEL 5
REMARK VINA RESULT:      -8.2      0.975      1.573
REMARK  Name = 
REMARK  4 active torsions:
REMARK  status: ('A' for Active; 'I' for Inactive)
REMARK    1  A    between atoms: C_2  and  C_4
REMARK    2  A    between atoms: C_9  and  C_10
REMARK    3  A    between atoms: C_13  and  C_14
REMARK    4  A    between atoms: C_19  and  C_20
REMARK                            x       y       z     vdW  Elec       q    Type
REMARK                         _______ _______ _______ _____ _____    ______ ____
ROOT
ATOM      1  C   UNL     1       0.173  10.425  19.939  0.00  0.00    +0.000 A 
ATOM      2  C   UNL     1       0.927  10.734  18.823  0.00  0.00    +0.000 A 
ATOM      3  C   UNL     1       1.725   9.599  18.532  0.00  0.00    +0.000 A 
ATOM      4  C   UNL     1       1.432   8.636  19.483  0.00  0.00    +0.000 A 
ATOM      5  O   UNL     1       0.490   9.150  20.336  0.00  0.00    +0.000 OA
ENDROOT
BRANCH   1  11
ATOM      6  C   UNL     1      -4.159  13.668  22.884  0.00  0.00    +0.000 A 
ATOM      7  C   UNL     1      -4.395  14.003  21.549  0.00  0.00    +0.000 A 
ATOM      8  C   UNL     1      -3.571  13.494  20.537  0.00  0.00    +0.000 A 
ATOM      9  C   UNL     1      -2.512  12.622  20.866  0.00  0.00    +0.000 A 
ATOM     10  N   UNL     1      -1.649  12.016  19.966  0.00  0.00    +0.000 NA
ATOM     11  C   UNL     1      -0.806  11.238  20.612  0.00  0.00    +0.000 A 
ATOM     12  S   UNL     1      -0.959  11.229  22.320  0.00  0.00    +0.000 S 
ATOM     13  C   UNL     1      -2.292  12.311  22.208  0.00  0.00    +0.000 A 
ATOM     14  C   UNL     1      -3.090  12.834  23.238  0.00  0.00    +0.000 A 
BRANCH   6  16
ATOM     15  N   UNL     1      -4.863  15.375  24.421  0.00  0.00    +0.000 NA
ATOM     16  C   UNL     1      -5.053  14.186  23.956  0.00  0.00    +0.000 C 
ATOM     17  N   UNL     1      -6.049  13.397  24.456  0.00  0.00    +0.000 N 
ATOM     18  H   UNL     1      -5.574  15.594  25.121  0.00  0.00    +0.000 HD
ATOM     19  H   UNL     1      -6.400  13.661  25.369  0.00  0.00    +0.000 HD
ATOM     20  H   UNL     1      -5.882  12.396  24.400  0.00  0.00    +0.000 HD
ENDBRANCH   6  16
ENDBRANCH   1  11
BRANCH   4  21
ATOM     21  C   UNL     1       1.989   7.315  19.614  0.00  0.00    +0.000 A 
ATOM     22  N   UNL     1       1.622   6.488  20.570  0.00  0.00    +0.000 NA
ATOM     23  C   UNL     1       2.282   5.280  20.427  0.00  0.00    +0.000 A 
ATOM     24  C   UNL     1       2.118   4.151  21.253  0.00  0.00    +0.000 A 
ATOM     25  C   UNL     1       2.830   2.975  20.980  0.00  0.00    +0.000 A 
ATOM     26  C   UNL     1       3.721   2.914  19.906  0.00  0.00    +0.000 A 
ATOM     27  C   UNL     1       3.904   4.030  19.074  0.00  0.00    +0.000 A 
ATOM     28  C   UNL     1       3.170   5.200  19.353  0.00  0.00    +0.000 A 
ATOM     29  S   UNL     1       3.166   6.709  18.521  0.00  0.00    +0.000 S 
BRANCH  26  30
ATOM     30  C   UNL     1       4.469   1.651  19.626  0.00  0.00    +0.000 C 
ATOM     31  N   UNL     1       5.383   1.177  20.412  0.00  0.00    +0.000 NA
ATOM     32  N   UNL     1       4.211   0.919  18.504  0.00  0.00    +0.000 N 
ATOM     33  H   UNL     1       5.563   1.798  21.204  0.00  0.00    +0.000 HD
ATOM     34  H   UNL     1       3.255   0.903  18.171  0.00  0.00    +0.000 HD
ATOM     35  H   UNL     1       4.620  -0.008  18.572  0.00  0.00    +0.000 HD
ENDBRANCH  26  30
ENDBRANCH   4  21
TORSDOF 4
ENDMDL
MODEL 6
REMARK VINA RESULT:      -8.2      1.633      2.302
REMARK  Name = 
REMARK  4 active torsions:
REMARK  status: ('A' for Active; 'I' for Inactive)
REMARK    1  A    between atoms: C_2  and  C_4
REMARK    2  A    between atoms: C_9  and  C_10
REMARK    3  A    between atoms: C_13  and  C_14
REMARK    4  A    between atoms: C_19  and  C_20
REMARK                            x       y       z     vdW  Elec       q    Type
REMARK                         _______ _______ _______ _____ _____    ______ ____
ROOT
ATOM      1  C   UNL     1       0.349  10.856  20.332  0.00  0.00    +0.000 A 
ATOM      2  C   UNL     1       0.835  11.107  19.062  0.00  0.00    +0.000 A 
ATOM      3  C   UNL     1       1.485   9.926  18.624  0.00  0.00    +0.000 A 
ATOM      4  C   UNL     1       1.376   8.994  19.642  0.00  0.00    +0.000 A 
ATOM      5  O   UNL     1       0.687   9.572  20.677  0.00  0.00    +0.000 OA
ENDROOT
BRANCH   1  11
ATOM      6  C   UNL     1      -2.655  14.586  24.207  0.00  0.00    +0.000 A 
ATOM      7  C   UNL     1      -3.433  13.427  24.248  0.00  0.00    +0.000 A 
ATOM      8  C   UNL     1      -3.104  12.326  23.448  0.00  0.00    +0.000 A 
ATOM      9  C   UNL     1      -1.967  12.379  22.613  0.00  0.00    +0.000 A 
ATOM     10  N   UNL     1      -1.504  11.353  21.805  0.00  0.00    +0.000 NA
ATOM     11  C   UNL     1      -0.402  11.732  21.192  0.00  0.00    +0.000 A 
ATOM     12  S   UNL     1       0.109  13.339  21.503  0.00  0.00    +0.000 S 
ATOM     13  C   UNL     1      -1.212  13.552  22.584  0.00  0.00    +0.000 A 
ATOM     14  C   UNL     1      -1.544  14.675  23.358  0.00  0.00    +0.000 A 
BRANCH   6  16
ATOM     15  N   UNL     1      -2.064  16.285  25.799  0.00  0.00    +0.000 NA
ATOM     16  C   UNL     1      -2.989  15.744  25.080  0.00  0.00    +0.000 C 
ATOM     17  N   UNL     1      -4.272  16.211  25.134  0.00  0.00    +0.000 N 
ATOM     18  H   UNL     1      -2.442  17.084  26.312  0.00  0.00    +0.000 HD
ATOM     19  H   UNL     1      -4.503  16.760  25.953  0.00  0.00    +0.000 HD
ATOM     20  H   UNL     1      -4.994  15.526  24.933  0.00  0.00    +0.000 HD
ENDBRANCH   6  16
ENDBRANCH   1  11
BRANCH   4  21
ATOM     21  C   UNL     1       1.881   7.647  19.675  0.00  0.00    +0.000 A 
ATOM     22  N   UNL     1       1.588   6.809  20.647  0.00  0.00    +0.000 NA
ATOM     23  C   UNL     1       2.169   5.577  20.398  0.00  0.00    +0.000 A 
ATOM     24  C   UNL     1       2.048   4.432  21.210  0.00  0.00    +0.000 A 
ATOM     25  C   UNL     1       2.668   3.235  20.827  0.00  0.00    +0.000 A 
ATOM     26  C   UNL     1       3.426   3.167  19.656  0.00  0.00    +0.000 A 
ATOM     27  C   UNL     1       3.564   4.298  18.836  0.00  0.00    +0.000 A 
ATOM     28  C   UNL     1       2.923   5.490  19.227  0.00  0.00    +0.000 A 
ATOM     29  S   UNL     1       2.895   7.022  18.438  0.00  0.00    +0.000 S 
BRANCH  26  30
ATOM     30  C   UNL     1       4.076   1.881  19.260  0.00  0.00    +0.000 C 
ATOM     31  N   UNL     1       3.684   1.168  18.253  0.00  0.00    +0.000 NA
ATOM     32  N   UNL     1       5.142   1.392  19.958  0.00  0.00    +0.000 N 
ATOM     33  H   UNL     1       2.853   1.562  17.807  0.00  0.00    +0.000 HD
ATOM     34  H   UNL     1       5.788   2.066  20.348  0.00  0.00    +0.000 HD
ATOM     35  H   UNL     1       5.608   0.654  19.439  0.00  0.00    +0.000 HD
ENDBRANCH  26  30
ENDBRANCH   4  21
TORSDOF 4
ENDMDL
MODEL 7
REMARK VINA RESULT:      -8.2      1.642     11.194
REMARK  Name = 
REMARK  4 active torsions:
REMARK  status: ('A' for Active; 'I' for Inactive)
REMARK    1  A    between atoms: C_2  and  C_4
REMARK    2  A    between atoms: C_9  and  C_10
REMARK    3  A    between atoms: C_13  and  C_14
REMARK    4  A    between atoms: C_19  and  C_20
REMARK                            x       y       z     vdW  Elec       q    Type
REMARK                         _______ _______ _______ _____ _____    ______ ____
ROOT
ATOM      1  C   UNL     1       1.348   9.018  19.659  0.00  0.00    +0.000 A 
ATOM      2  C   UNL     1       1.445   9.941  18.634  0.00  0.00    +0.000 A 
ATOM      3  C   UNL     1       0.794  11.121  19.073  0.00  0.00    +0.000 A 
ATOM      4  C   UNL     1       0.319  10.877  20.351  0.00  0.00    +0.000 A 
ATOM      5  O   UNL     1       0.658   9.594  20.696  0.00  0.00    +0.000 OA
ENDROOT
BRANCH   1  11
ATOM      6  C   UNL     1       3.414   3.214  19.645  0.00  0.00    +0.000 A 
ATOM      7  C   UNL     1       2.632   3.247  20.801  0.00  0.00    +0.000 A 
ATOM      8  C   UNL     1       2.006   4.435  21.197  0.00  0.00    +0.000 A 
ATOM      9  C   UNL     1       2.147   5.599  20.412  0.00  0.00    +0.000 A 
ATOM     10  N   UNL     1       1.553   6.825  20.662  0.00  0.00    +0.000 NA
ATOM     11  C   UNL     1       1.869   7.677  19.709  0.00  0.00    +0.000 A 
ATOM     12  S   UNL     1       2.930   7.081  18.500  0.00  0.00    +0.000 S 
ATOM     13  C   UNL     1       2.942   5.542  19.266  0.00  0.00    +0.000 A 
ATOM     14  C   UNL     1       3.600   4.366  18.870  0.00  0.00    +0.000 A 
BRANCH   6  16
ATOM     15  N   UNL     1       5.075   1.492  19.860  0.00  0.00    +0.000 NA
ATOM     16  C   UNL     1       4.055   1.942  19.210  0.00  0.00    +0.000 C 
ATOM     17  N   UNL     1       3.579   1.276  18.117  0.00  0.00    +0.000 N 
ATOM     18  H   UNL     1       5.377   0.601  19.462  0.00  0.00    +0.000 HD
ATOM     19  H   UNL     1       4.226   0.626  17.686  0.00  0.00    +0.000 HD
ATOM     20  H   UNL     1       3.119   1.854  17.421  0.00  0.00    +0.000 HD
ENDBRANCH   6  16
ENDBRANCH   1  11
BRANCH   4  21
ATOM     21  C   UNL     1      -0.414  11.766  21.214  0.00  0.00    +0.000 A 
ATOM     22  N   UNL     1      -1.506  11.392  21.846  0.00  0.00    +0.000 NA
ATOM     23  C   UNL     1      -1.973  12.429  22.635  0.00  0.00    +0.000 A 
ATOM     24  C   UNL     1      -3.106  12.379  23.471  0.00  0.00    +0.000 A 
ATOM     25  C   UNL     1      -3.455  13.497  24.242  0.00  0.00    +0.000 A 
ATOM     26  C   UNL     1      -2.703  14.672  24.176  0.00  0.00    +0.000 A 
ATOM     27  C   UNL     1      -1.574  14.744  23.344  0.00  0.00    +0.000 A 
ATOM     28  C   UNL     1      -1.228  13.608  22.586  0.00  0.00    +0.000 A 
ATOM     29  S   UNL     1       0.088  13.384  21.497  0.00  0.00    +0.000 S 
BRANCH  26  30
ATOM     30  C   UNL     1      -3.085  15.852  25.008  0.00  0.00    +0.000 C 
ATOM     31  N   UNL     1      -2.232  16.548  25.690  0.00  0.00    +0.000 NA
ATOM     32  N   UNL     1      -4.385  16.263  25.084  0.00  0.00    +0.000 N 
ATOM     33  H   UNL     1      -1.289  16.157  25.631  0.00  0.00    +0.000 HD
ATOM     34  H   UNL     1      -4.954  16.155  24.254  0.00  0.00    +0.000 HD
ATOM     35  H   UNL     1      -4.449  17.193  25.487  0.00  0.00    +0.000 HD
ENDBRANCH  26  30
ENDBRANCH   4  21
TORSDOF 4
ENDMDL
MODEL 8
REMARK VINA RESULT:      -8.1      1.159     11.111
REMARK  Name = 
REMARK  4 active torsions:
REMARK  status: ('A' for Active; 'I' for Inactive)
REMARK    1  A    between atoms: C_2  and  C_4
REMARK    2  A    between atoms: C_9  and  C_10
REMARK    3  A    between atoms: C_13  and  C_14
REMARK    4  A    between atoms: C_19  and  C_20
REMARK                            x       y       z     vdW  Elec       q    Type
REMARK                         _______ _______ _______ _____ _____    ______ ____
ROOT
ATOM      1  C   UNL     1       1.509   8.755  19.426  0.00  0.00    +0.000 A 
ATOM      2  C   UNL     1       1.741   9.670  18.415  0.00  0.00    +0.000 A 
ATOM      3  C   UNL     1       1.022  10.846  18.747  0.00  0.00    +0.000 A 
ATOM      4  C   UNL     1       0.375  10.609  19.948  0.00  0.00    +0.000 A 
ATOM      5  O   UNL     1       0.675   9.333  20.349  0.00  0.00    +0.000 OA
ENDROOT
BRANCH   1  11
ATOM      6  C   UNL     1       3.592   2.968  19.776  0.00  0.00    +0.000 A 
ATOM      7  C   UNL     1       2.749   3.047  20.887  0.00  0.00    +0.000 A 
ATOM      8  C   UNL     1       2.098   4.247  21.195  0.00  0.00    +0.000 A 
ATOM      9  C   UNL     1       2.278   5.377  20.369  0.00  0.00    +0.000 A 
ATOM     10  N   UNL     1       1.666   6.609  20.533  0.00  0.00    +0.000 NA
ATOM     11  C   UNL     1       2.031   7.421  19.562  0.00  0.00    +0.000 A 
ATOM     12  S   UNL     1       3.158   6.779  18.439  0.00  0.00    +0.000 S 
ATOM     13  C   UNL     1       3.133   5.274  19.271  0.00  0.00    +0.000 A 
ATOM     14  C   UNL     1       3.816   4.087  18.963  0.00  0.00    +0.000 A 
BRANCH   6  16
ATOM     15  N   UNL     1       5.248   1.269  20.153  0.00  0.00    +0.000 NA
ATOM     16  C   UNL     1       4.260   1.683  19.433  0.00  0.00    +0.000 C 
ATOM     17  N   UNL     1       3.843   0.964  18.349  0.00  0.00    +0.000 N 
ATOM     18  H   UNL     1       5.574   0.363  19.812  0.00  0.00    +0.000 HD
ATOM     19  H   UNL     1       4.514   0.299  17.981  0.00  0.00    +0.000 HD
ATOM     20  H   UNL     1       3.416   1.507  17.605  0.00  0.00    +0.000 HD
ENDBRANCH   6  16
ENDBRANCH   1  11
BRANCH   4  21
ATOM     21  C   UNL     1      -0.481  11.497  20.689  0.00  0.00    +0.000 A 
ATOM     22  N   UNL     1      -0.957  12.610  20.173  0.00  0.00    +0.000 NA
ATOM     23  C   UNL     1      -1.782  13.239  21.089  0.00  0.00    +0.000 A 
ATOM     24  C   UNL     1      -2.485  14.441  20.872  0.00  0.00    +0.000 A 
ATOM     25  C   UNL     1      -3.312  14.959  21.879  0.00  0.00    +0.000 A 
ATOM     26  C   UNL     1      -3.433  14.306  23.108  0.00  0.00    +0.000 A 
ATOM     27  C   UNL     1      -2.736  13.111  23.347  0.00  0.00    +0.000 A 
ATOM     28  C   UNL     1      -1.919  12.596  22.320  0.00  0.00    +0.000 A 
ATOM     29  S   UNL     1      -0.961  11.164  22.304  0.00  0.00    +0.000 S 
BRANCH  26  30
ATOM     30  C   UNL     1      -4.322  14.869  24.168  0.00  0.00    +0.000 C 
ATOM     31  N   UNL     1      -3.927  15.744  25.038  0.00  0.00    +0.000 NA
ATOM     32  N   UNL     1      -5.626  14.479  24.267  0.00  0.00    +0.000 N 
ATOM     33  H   UNL     1      -2.931  15.952  24.941  0.00  0.00    +0.000 HD
ATOM     34  H   UNL     1      -6.113  14.267  23.405  0.00  0.00    +0.000 HD
ATOM     35  H   UNL     1      -6.149  15.108  24.869  0.00  0.00    +0.000 HD
ENDBRANCH  26  30
ENDBRANCH   4  21
TORSDOF 4
ENDMDL
MODEL 9
REMARK VINA RESULT:      -8.1      1.612     11.048
REMARK  Name = 
REMARK  4 active torsions:
REMARK  status: ('A' for Active; 'I' for Inactive)
REMARK    1  A    between atoms: C_2  and  C_4
REMARK    2  A    between atoms: C_9  and  C_10
REMARK    3  A    between atoms: C_13  and  C_14
REMARK    4  A    between atoms: C_19  and  C_20
REMARK                            x       y       z     vdW  Elec       q    Type
REMARK                         _______ _______ _______ _____ _____    ______ ____
ROOT
ATOM      1  C   UNL     1       1.829   8.841  18.910  0.00  0.00    +0.000 A 
ATOM      2  C   UNL     1       1.822   9.796  17.910  0.00  0.00    +0.000 A 
ATOM      3  C   UNL     1       1.289  10.983  18.472  0.00  0.00    +0.000 A 
ATOM      4  C   UNL     1       0.986  10.712  19.796  0.00  0.00    +0.000 A 
ATOM      5  O   UNL     1       1.316   9.405  20.050  0.00  0.00    +0.000 OA
ENDROOT
BRANCH   1  11
ATOM      6  C   UNL     1       4.022   3.085  18.826  0.00  0.00    +0.000 A 
ATOM      7  C   UNL     1       4.403   3.565  17.572  0.00  0.00    +0.000 A 
ATOM      8  C   UNL     1       4.044   4.858  17.172  0.00  0.00    +0.000 A 
ATOM      9  C   UNL     1       3.313   5.687  18.048  0.00  0.00    +0.000 A 
ATOM     10  N   UNL     1       2.929   6.995  17.799  0.00  0.00    +0.000 NA
ATOM     11  C   UNL     1       2.295   7.481  18.845  0.00  0.00    +0.000 A 
ATOM     12  S   UNL     1       2.075   6.394  20.154  0.00  0.00    +0.000 S 
ATOM     13  C   UNL     1       2.937   5.180  19.292  0.00  0.00    +0.000 A 
ATOM     14  C   UNL     1       3.264   3.876  19.699  0.00  0.00    +0.000 A 
BRANCH   6  16
ATOM     15  N   UNL     1       4.025   0.694  18.592  0.00  0.00    +0.000 NA
ATOM     16  C   UNL     1       4.430   1.720  19.262  0.00  0.00    +0.000 C 
ATOM     17  N   UNL     1       5.204   1.561  20.375  0.00  0.00    +0.000 N 
ATOM     18  H   UNL     1       4.415  -0.161  18.994  0.00  0.00    +0.000 HD
ATOM     19  H   UNL     1       5.178   0.641  20.798  0.00  0.00    +0.000 HD
ATOM     20  H   UNL     1       5.116   2.292  21.075  0.00  0.00    +0.000 HD
ENDBRANCH   6  16
ENDBRANCH   1  11
BRANCH   4  21
ATOM     21  C   UNL     1       0.419  11.596  20.779  0.00  0.00    +0.000 A 
ATOM     22  N   UNL     1       0.807  12.847  20.908  0.00  0.00    +0.000 NA
ATOM     23  C   UNL     1       0.063  13.471  21.895  0.00  0.00    +0.000 A 
ATOM     24  C   UNL     1       0.186  14.819  22.288  0.00  0.00    +0.000 A 
ATOM     25  C   UNL     1      -0.651  15.335  23.287  0.00  0.00    +0.000 A 
ATOM     26  C   UNL     1      -1.596  14.521  23.917  0.00  0.00    +0.000 A 
ATOM     27  C   UNL     1      -1.729  13.174  23.545  0.00  0.00    +0.000 A 
ATOM     28  C   UNL     1      -0.890  12.674  22.529  0.00  0.00    +0.000 A 
ATOM     29  S   UNL     1      -0.822  11.090  21.854  0.00  0.00    +0.000 S 
BRANCH  26  30
ATOM     30  C   UNL     1      -2.483  15.089  24.976  0.00  0.00    +0.000 C 
ATOM     31  N   UNL     1      -2.297  16.253  25.511  0.00  0.00    +0.000 NA
ATOM     32  N   UNL     1      -3.561  14.388  25.435  0.00  0.00    +0.000 N 
ATOM     33  H   UNL     1      -1.447  16.701  25.161  0.00  0.00    +0.000 HD
ATOM     34  H   UNL     1      -4.052  13.805  24.770  0.00  0.00    +0.000 HD
ATOM     35  H   UNL     1      -4.184  14.988  25.968  0.00  0.00    +0.000 HD
ENDBRANCH  26  30
ENDBRANCH   4  21
TORSDOF 4
ENDMDL
