MODEL 1
REMARK VINA RESULT:      -7.2      0.000      0.000
REMARK  Name = 
REMARK  4 active torsions:
REMARK  status: ('A' for Active; 'I' for Inactive)
REMARK    1  A    between atoms: C_1  and  C_2
REMARK    2  A    between atoms: C_2  and  C_3
REMARK    3  A    between atoms: C_2  and  C_6
REMARK    4  A    between atoms: C_3  and  O_5
REMARK                            x       y       z     vdW  Elec       q    Type
REMARK                         _______ _______ _______ _____ _____    ______ ____
ROOT
ATOM      1  C   UNL     1       5.106   4.475  17.177  0.00  0.00    +0.000 A 
ATOM      2  C   UNL     1       6.177   4.338  18.042  0.00  0.00    +0.000 A 
ATOM      3  N   UNL     1       5.746   3.686  19.166  0.00  0.00    +0.000 N 
ATOM      4  C   UNL     1       4.405   3.403  19.058  0.00  0.00    +0.000 A 
ATOM      5  C   UNL     1       3.545   2.767  19.958  0.00  0.00    +0.000 A 
ATOM      6  F   UNL     1       3.996   2.342  21.144  0.00  0.00    +0.000 F 
ATOM      7  C   UNL     1       2.213   2.589  19.611  0.00  0.00    +0.000 A 
ATOM      8  C   UNL     1       1.768   3.035  18.379  0.00  0.00    +0.000 A 
ATOM      9  F   UNL     1       0.482   2.854  18.046  0.00  0.00    +0.000 F 
ATOM     10  C   UNL     1       2.619   3.673  17.471  0.00  0.00    +0.000 A 
ATOM     11  C   UNL     1       3.972   3.870  17.818  0.00  0.00    +0.000 A 
ATOM     12  H   UNL     1       6.315   3.439  19.963  0.00  0.00    +0.000 HD
ENDROOT
BRANCH   1  14
ATOM     13  C   UNL     1       5.028   6.651  15.926  0.00  0.00    +0.000 C 
ATOM     14  C   UNL     1       5.146   5.130  15.819  0.00  0.00    +0.000 C 
BRANCH  14  15
ATOM     15  C   UNL     1       6.391   4.716  15.037  0.00  0.00    +0.000 C 
ATOM     16  O   UNL     1       7.392   5.407  14.906  0.00  0.00    +0.000 OA
BRANCH  15  17
ATOM     17  O   UNL     1       6.283   3.508  14.430  0.00  0.00    +0.000 OA
ATOM     18  H   UNL     1       5.667   3.506  13.672  0.00  0.00    +0.000 HD
ENDBRANCH  15  17
ENDBRANCH  14  15
ENDBRANCH   1  14
TORSDOF 3
ENDMDL
MODEL 2
REMARK VINA RESULT:      -7.1      3.784      5.208
REMARK  Name = 
REMARK  4 active torsions:
REMARK  status: ('A' for Active; 'I' for Inactive)
REMARK    1  A    between atoms: C_1  and  C_2
REMARK    2  A    between atoms: C_2  and  C_3
REMARK    3  A    between atoms: C_2  and  C_6
REMARK    4  A    between atoms: C_3  and  O_5
REMARK                            x       y       z     vdW  Elec       q    Type
REMARK                         _______ _______ _______ _____ _____    ______ ____
ROOT
ATOM      1  C   UNL     1       3.332   3.798  18.865  0.00  0.00    +0.000 A 
ATOM      2  C   UNL     1       4.150   2.987  19.631  0.00  0.00    +0.000 A 
ATOM      3  N   UNL     1       5.451   3.233  19.283  0.00  0.00    +0.000 N 
ATOM      4  C   UNL     1       5.501   4.184  18.293  0.00  0.00    +0.000 A 
ATOM      5  C   UNL     1       6.600   4.733  17.627  0.00  0.00    +0.000 A 
ATOM      6  F   UNL     1       7.842   4.326  17.915  0.00  0.00    +0.000 F 
ATOM      7  C   UNL     1       6.389   5.700  16.654  0.00  0.00    +0.000 A 
ATOM      8  C   UNL     1       5.097   6.107  16.372  0.00  0.00    +0.000 A 
ATOM      9  F   UNL     1       4.899   7.047  15.437  0.00  0.00    +0.000 F 
ATOM     10  C   UNL     1       3.989   5.564  17.031  0.00  0.00    +0.000 A 
ATOM     11  C   UNL     1       4.191   4.573  18.014  0.00  0.00    +0.000 A 
ATOM     12  H   UNL     1       6.267   2.792  19.688  0.00  0.00    +0.000 HD
ENDROOT
BRANCH   1  14
ATOM     13  C   UNL     1       1.198   2.536  18.466  0.00  0.00    +0.000 C 
ATOM     14  C   UNL     1       1.826   3.849  18.933  0.00  0.00    +0.000 C 
BRANCH  14  15
ATOM     15  C   UNL     1       1.345   4.236  20.330  0.00  0.00    +0.000 C 
ATOM     16  O   UNL     1       1.491   5.340  20.836  0.00  0.00    +0.000 OA
BRANCH  15  17
ATOM     17  O   UNL     1       0.772   3.215  21.016  0.00  0.00    +0.000 OA
ATOM     18  H   UNL     1       0.863   3.298  21.986  0.00  0.00    +0.000 HD
ENDBRANCH  15  17
ENDBRANCH  14  15
ENDBRANCH   1  14
TORSDOF 3
ENDMDL
MODEL 3
REMARK VINA RESULT:      -7.0      1.842      2.045
REMARK  Name = 
REMARK  4 active torsions:
REMARK  status: ('A' for Active; 'I' for Inactive)
REMARK    1  A    between atoms: C_1  and  C_2
REMARK    2  A    between atoms: C_2  and  C_3
REMARK    3  A    between atoms: C_2  and  C_6
REMARK    4  A    between atoms: C_3  and  O_5
REMARK                            x       y       z     vdW  Elec       q    Type
REMARK                         _______ _______ _______ _____ _____    ______ ____
ROOT
ATOM      1  C   UNL     1       4.920   4.627  17.920  0.00  0.00    +0.000 A 
ATOM      2  C   UNL     1       5.233   5.694  18.743  0.00  0.00    +0.000 A 
ATOM      3  N   UNL     1       4.227   5.844  19.659  0.00  0.00    +0.000 N 
ATOM      4  C   UNL     1       3.251   4.900  19.444  0.00  0.00    +0.000 A 
ATOM      5  C   UNL     1       2.046   4.682  20.117  0.00  0.00    +0.000 A 
ATOM      6  F   UNL     1       1.685   5.469  21.137  0.00  0.00    +0.000 F 
ATOM      7  C   UNL     1       1.221   3.643  19.709  0.00  0.00    +0.000 A 
ATOM      8  C   UNL     1       1.614   2.840  18.653  0.00  0.00    +0.000 A 
ATOM      9  F   UNL     1       0.817   1.833  18.267  0.00  0.00    +0.000 F 
ATOM     10  C   UNL     1       2.817   3.049  17.971  0.00  0.00    +0.000 A 
ATOM     11  C   UNL     1       3.658   4.109  18.370  0.00  0.00    +0.000 A 
ATOM     12  H   UNL     1       4.192   6.538  20.394  0.00  0.00    +0.000 HD
ENDROOT
BRANCH   1  14
ATOM     13  C   UNL     1       5.070   4.321  15.433  0.00  0.00    +0.000 C 
ATOM     14  C   UNL     1       5.764   4.115  16.779  0.00  0.00    +0.000 C 
BRANCH  14  15
ATOM     15  C   UNL     1       7.158   4.737  16.794  0.00  0.00    +0.000 C 
ATOM     16  O   UNL     1       7.484   5.730  16.159  0.00  0.00    +0.000 OA
BRANCH  15  17
ATOM     17  O   UNL     1       8.057   4.053  17.546  0.00  0.00    +0.000 OA
ATOM     18  H   UNL     1       8.814   3.710  17.032  0.00  0.00    +0.000 HD
ENDBRANCH  15  17
ENDBRANCH  14  15
ENDBRANCH   1  14
TORSDOF 3
ENDMDL
MODEL 4
REMARK VINA RESULT:      -7.0      2.177      2.427
REMARK  Name = 
REMARK  4 active torsions:
REMARK  status: ('A' for Active; 'I' for Inactive)
REMARK    1  A    between atoms: C_1  and  C_2
REMARK    2  A    between atoms: C_2  and  C_3
REMARK    3  A    between atoms: C_2  and  C_6
REMARK    4  A    between atoms: C_3  and  O_5
REMARK                            x       y       z     vdW  Elec       q    Type
REMARK                         _______ _______ _______ _____ _____    ______ ____
ROOT
ATOM      1  C   UNL     1       4.414   5.155  17.466  0.00  0.00    +0.000 A 
ATOM      2  C   UNL     1       4.283   6.480  17.843  0.00  0.00    +0.000 A 
ATOM      3  N   UNL     1       3.311   6.563  18.804  0.00  0.00    +0.000 N 
ATOM      4  C   UNL     1       2.792   5.316  19.056  0.00  0.00    +0.000 A 
ATOM      5  C   UNL     1       1.782   4.923  19.938  0.00  0.00    +0.000 A 
ATOM      6  F   UNL     1       1.148   5.828  20.692  0.00  0.00    +0.000 F 
ATOM      7  C   UNL     1       1.437   3.581  20.018  0.00  0.00    +0.000 A 
ATOM      8  C   UNL     1       2.106   2.660  19.230  0.00  0.00    +0.000 A 
ATOM      9  F   UNL     1       1.773   1.365  19.316  0.00  0.00    +0.000 F 
ATOM     10  C   UNL     1       3.117   3.042  18.342  0.00  0.00    +0.000 A 
ATOM     11  C   UNL     1       3.469   4.405  18.245  0.00  0.00    +0.000 A 
ATOM     12  H   UNL     1       3.010   7.407  19.272  0.00  0.00    +0.000 HD
ENDROOT
BRANCH   1  14
ATOM     13  C   UNL     1       5.404   5.498  15.184  0.00  0.00    +0.000 C 
ATOM     14  C   UNL     1       5.378   4.621  16.437  0.00  0.00    +0.000 C 
BRANCH  14  15
ATOM     15  C   UNL     1       6.776   4.440  17.024  0.00  0.00    +0.000 C 
ATOM     16  O   UNL     1       7.817   4.543  16.390  0.00  0.00    +0.000 OA
BRANCH  15  17
ATOM     17  O   UNL     1       6.780   4.088  18.335  0.00  0.00    +0.000 OA
ATOM     18  H   UNL     1       7.645   4.219  18.770  0.00  0.00    +0.000 HD
ENDBRANCH  15  17
ENDBRANCH  14  15
ENDBRANCH   1  14
TORSDOF 3
ENDMDL
MODEL 5
REMARK VINA RESULT:      -6.9      1.878      2.348
REMARK  Name = 
REMARK  4 active torsions:
REMARK  status: ('A' for Active; 'I' for Inactive)
REMARK    1  A    between atoms: C_1  and  C_2
REMARK    2  A    between atoms: C_2  and  C_3
REMARK    3  A    between atoms: C_2  and  C_6
REMARK    4  A    between atoms: C_3  and  O_5
REMARK                            x       y       z     vdW  Elec       q    Type
REMARK                         _______ _______ _______ _____ _____    ______ ____
ROOT
ATOM      1  C   UNL     1       4.928   4.915  16.541  0.00  0.00    +0.000 A 
ATOM      2  C   UNL     1       4.862   6.284  16.723  0.00  0.00    +0.000 A 
ATOM      3  N   UNL     1       3.913   6.549  17.674  0.00  0.00    +0.000 N 
ATOM      4  C   UNL     1       3.346   5.376  18.111  0.00  0.00    +0.000 A 
ATOM      5  C   UNL     1       2.337   5.161  19.055  0.00  0.00    +0.000 A 
ATOM      6  F   UNL     1       1.757   6.194  19.677  0.00  0.00    +0.000 F 
ATOM      7  C   UNL     1       1.936   3.862  19.333  0.00  0.00    +0.000 A 
ATOM      8  C   UNL     1       2.549   2.808  18.678  0.00  0.00    +0.000 A 
ATOM      9  F   UNL     1       2.163   1.555  18.956  0.00  0.00    +0.000 F 
ATOM     10  C   UNL     1       3.558   3.011  17.732  0.00  0.00    +0.000 A 
ATOM     11  C   UNL     1       3.967   4.328  17.433  0.00  0.00    +0.000 A 
ATOM     12  H   UNL     1       3.658   7.465  18.018  0.00  0.00    +0.000 HD
ENDROOT
BRANCH   1  14
ATOM     13  C   UNL     1       5.307   4.222  14.158  0.00  0.00    +0.000 C 
ATOM     14  C   UNL     1       5.848   4.194  15.588  0.00  0.00    +0.000 C 
BRANCH  14  15
ATOM     15  C   UNL     1       7.270   4.746  15.661  0.00  0.00    +0.000 C 
ATOM     16  O   UNL     1       7.807   5.405  14.782  0.00  0.00    +0.000 OA
BRANCH  15  17
ATOM     17  O   UNL     1       7.938   4.396  16.789  0.00  0.00    +0.000 OA
ATOM     18  H   UNL     1       8.738   3.863  16.618  0.00  0.00    +0.000 HD
ENDBRANCH  15  17
ENDBRANCH  14  15
ENDBRANCH   1  14
TORSDOF 3
ENDMDL
MODEL 6
REMARK VINA RESULT:      -6.9      3.989      5.652
REMARK  Name = 
REMARK  4 active torsions:
REMARK  status: ('A' for Active; 'I' for Inactive)
REMARK    1  A    between atoms: C_1  and  C_2
REMARK    2  A    between atoms: C_2  and  C_3
REMARK    3  A    between atoms: C_2  and  C_6
REMARK    4  A    between atoms: C_3  and  O_5
REMARK                            x       y       z     vdW  Elec       q    Type
REMARK                         _______ _______ _______ _____ _____    ______ ____
ROOT
ATOM      1  C   UNL     1       3.361   4.197  19.266  0.00  0.00    +0.000 A 
ATOM      2  C   UNL     1       2.730   3.494  18.256  0.00  0.00    +0.000 A 
ATOM      3  N   UNL     1       3.597   3.378  17.202  0.00  0.00    +0.000 N 
ATOM      4  C   UNL     1       4.783   4.004  17.499  0.00  0.00    +0.000 A 
ATOM      5  C   UNL     1       5.940   4.152  16.729  0.00  0.00    +0.000 A 
ATOM      6  F   UNL     1       5.999   3.654  15.488  0.00  0.00    +0.000 F 
ATOM      7  C   UNL     1       7.026   4.831  17.262  0.00  0.00    +0.000 A 
ATOM      8  C   UNL     1       6.945   5.338  18.548  0.00  0.00    +0.000 A 
ATOM      9  F   UNL     1       8.000   5.987  19.061  0.00  0.00    +0.000 F 
ATOM     10  C   UNL     1       5.792   5.198  19.327  0.00  0.00    +0.000 A 
ATOM     11  C   UNL     1       4.678   4.518  18.791  0.00  0.00    +0.000 A 
ATOM     12  H   UNL     1       3.409   2.902  16.330  0.00  0.00    +0.000 HD
ENDROOT
BRANCH   1  14
ATOM     13  C   UNL     1       1.751   5.683  20.494  0.00  0.00    +0.000 C 
ATOM     14  C   UNL     1       2.764   4.543  20.607  0.00  0.00    +0.000 C 
BRANCH  14  15
ATOM     15  C   UNL     1       2.154   3.314  21.278  0.00  0.00    +0.000 C 
ATOM     16  O   UNL     1       2.774   2.519  21.971  0.00  0.00    +0.000 OA
BRANCH  15  17
ATOM     17  O   UNL     1       0.839   3.130  20.997  0.00  0.00    +0.000 OA
ATOM     18  H   UNL     1       0.240   3.577  21.626  0.00  0.00    +0.000 HD
ENDBRANCH  15  17
ENDBRANCH  14  15
ENDBRANCH   1  14
TORSDOF 3
ENDMDL
MODEL 7
REMARK VINA RESULT:      -6.8      3.888      5.398
REMARK  Name = 
REMARK  4 active torsions:
REMARK  status: ('A' for Active; 'I' for Inactive)
REMARK    1  A    between atoms: C_1  and  C_2
REMARK    2  A    between atoms: C_2  and  C_3
REMARK    3  A    between atoms: C_2  and  C_6
REMARK    4  A    between atoms: C_3  and  O_5
REMARK                            x       y       z     vdW  Elec       q    Type
REMARK                         _______ _______ _______ _____ _____    ______ ____
ROOT
ATOM      1  C   UNL     1       2.690   3.399  18.811  0.00  0.00    +0.000 A 
ATOM      2  C   UNL     1       3.148   2.118  18.559  0.00  0.00    +0.000 A 
ATOM      3  N   UNL     1       4.156   2.193  17.636  0.00  0.00    +0.000 N 
ATOM      4  C   UNL     1       4.360   3.501  17.268  0.00  0.00    +0.000 A 
ATOM      5  C   UNL     1       5.265   4.049  16.355  0.00  0.00    +0.000 A 
ATOM      6  F   UNL     1       6.099   3.259  15.667  0.00  0.00    +0.000 F 
ATOM      7  C   UNL     1       5.284   5.423  16.160  0.00  0.00    +0.000 A 
ATOM      8  C   UNL     1       4.414   6.222  16.882  0.00  0.00    +0.000 A 
ATOM      9  F   UNL     1       4.441   7.549  16.696  0.00  0.00    +0.000 F 
ATOM     10  C   UNL     1       3.503   5.685  17.798  0.00  0.00    +0.000 A 
ATOM     11  C   UNL     1       3.468   4.289  17.996  0.00  0.00    +0.000 A 
ATOM     12  H   UNL     1       4.685   1.413  17.271  0.00  0.00    +0.000 HD
ENDROOT
BRANCH   1  14
ATOM     13  C   UNL     1       0.515   2.682  19.841  0.00  0.00    +0.000 C 
ATOM     14  C   UNL     1       1.588   3.769  19.772  0.00  0.00    +0.000 C 
BRANCH  14  15
ATOM     15  C   UNL     1       2.142   4.099  21.156  0.00  0.00    +0.000 C 
ATOM     16  O   UNL     1       2.226   3.303  22.081  0.00  0.00    +0.000 OA
BRANCH  15  17
ATOM     17  O   UNL     1       2.498   5.400  21.310  0.00  0.00    +0.000 OA
ATOM     18  H   UNL     1       2.877   5.599  22.188  0.00  0.00    +0.000 HD
ENDBRANCH  15  17
ENDBRANCH  14  15
ENDBRANCH   1  14
TORSDOF 3
ENDMDL
MODEL 8
REMARK VINA RESULT:      -6.8      2.235      2.820
REMARK  Name = 
REMARK  4 active torsions:
REMARK  status: ('A' for Active; 'I' for Inactive)
REMARK    1  A    between atoms: C_1  and  C_2
REMARK    2  A    between atoms: C_2  and  C_3
REMARK    3  A    between atoms: C_2  and  C_6
REMARK    4  A    between atoms: C_3  and  O_5
REMARK                            x       y       z     vdW  Elec       q    Type
REMARK                         _______ _______ _______ _____ _____    ______ ____
ROOT
ATOM      1  C   UNL     1       4.915   5.268  16.813  0.00  0.00    +0.000 A 
ATOM      2  C   UNL     1       4.712   6.618  16.593  0.00  0.00    +0.000 A 
ATOM      3  N   UNL     1       3.878   7.095  17.569  0.00  0.00    +0.000 N 
ATOM      4  C   UNL     1       3.520   6.077  18.420  0.00  0.00    +0.000 A 
ATOM      5  C   UNL     1       2.683   6.093  19.539  0.00  0.00    +0.000 A 
ATOM      6  F   UNL     1       2.076   7.223  19.918  0.00  0.00    +0.000 F 
ATOM      7  C   UNL     1       2.481   4.918  20.250  0.00  0.00    +0.000 A 
ATOM      8  C   UNL     1       3.120   3.760  19.841  0.00  0.00    +0.000 A 
ATOM      9  F   UNL     1       2.927   2.629  20.535  0.00  0.00    +0.000 F 
ATOM     10  C   UNL     1       3.958   3.732  18.722  0.00  0.00    +0.000 A 
ATOM     11  C   UNL     1       4.162   4.918  17.986  0.00  0.00    +0.000 A 
ATOM     12  H   UNL     1       3.565   8.052  17.666  0.00  0.00    +0.000 HD
ENDROOT
BRANCH   1  14
ATOM     13  C   UNL     1       5.327   4.352  14.512  0.00  0.00    +0.000 C 
ATOM     14  C   UNL     1       5.774   4.356  15.974  0.00  0.00    +0.000 C 
BRANCH  14  15
ATOM     15  C   UNL     1       7.254   4.707  16.108  0.00  0.00    +0.000 C 
ATOM     16  O   UNL     1       7.977   4.342  17.025  0.00  0.00    +0.000 OA
BRANCH  15  17
ATOM     17  O   UNL     1       7.715   5.528  15.131  0.00  0.00    +0.000 OA
ATOM     18  H   UNL     1       7.046   5.737  14.450  0.00  0.00    +0.000 HD
ENDBRANCH  15  17
ENDBRANCH  14  15
ENDBRANCH   1  14
TORSDOF 3
ENDMDL
MODEL 9
REMARK VINA RESULT:      -6.8      3.370      4.916
REMARK  Name = 
REMARK  4 active torsions:
REMARK  status: ('A' for Active; 'I' for Inactive)
REMARK    1  A    between atoms: C_1  and  C_2
REMARK    2  A    between atoms: C_2  and  C_3
REMARK    3  A    between atoms: C_2  and  C_6
REMARK    4  A    between atoms: C_3  and  O_5
REMARK                            x       y       z     vdW  Elec       q    Type
REMARK                         _______ _______ _______ _____ _____    ______ ____
ROOT
ATOM      1  C   UNL     1       3.387   3.253  19.481  0.00  0.00    +0.000 A 
ATOM      2  C   UNL     1       4.693   2.804  19.565  0.00  0.00    +0.000 A 
ATOM      3  N   UNL     1       5.516   3.769  19.050  0.00  0.00    +0.000 N 
ATOM      4  C   UNL     1       4.772   4.840  18.619  0.00  0.00    +0.000 A 
ATOM      5  C   UNL     1       5.178   6.035  18.018  0.00  0.00    +0.000 A 
ATOM      6  F   UNL     1       6.473   6.264  17.768  0.00  0.00    +0.000 F 
ATOM      7  C   UNL     1       4.222   6.980  17.675  0.00  0.00    +0.000 A 
ATOM      8  C   UNL     1       2.888   6.724  17.943  0.00  0.00    +0.000 A 
ATOM      9  F   UNL     1       1.969   7.643  17.616  0.00  0.00    +0.000 F 
ATOM     10  C   UNL     1       2.470   5.532  18.542  0.00  0.00    +0.000 A 
ATOM     11  C   UNL     1       3.432   4.559  18.886  0.00  0.00    +0.000 A 
ATOM     12  H   UNL     1       6.525   3.719  18.992  0.00  0.00    +0.000 HD
ENDROOT
BRANCH   1  14
ATOM     13  C   UNL     1       1.442   3.243  21.069  0.00  0.00    +0.000 C 
ATOM     14  C   UNL     1       2.164   2.502  19.943  0.00  0.00    +0.000 C 
BRANCH  14  15
ATOM     15  C   UNL     1       1.224   2.197  18.779  0.00  0.00    +0.000 C 
ATOM     16  O   UNL     1       0.005   2.296  18.823  0.00  0.00    +0.000 OA
BRANCH  15  17
ATOM     17  O   UNL     1       1.855   1.741  17.668  0.00  0.00    +0.000 OA
ATOM     18  H   UNL     1       1.418   0.968  17.261  0.00  0.00    +0.000 HD
ENDBRANCH  15  17
ENDBRANCH  14  15
ENDBRANCH   1  14
TORSDOF 3
ENDMDL
