MODEL 1
REMARK VINA RESULT:      -8.8      0.000      0.000
REMARK  Name = 
REMARK  3 active torsions:
REMARK  status: ('A' for Active; 'I' for Inactive)
REMARK    1  A    between atoms: C_4  and  C_5
REMARK    2  A    between atoms: C_8  and  C_9
REMARK    3  A    between atoms: C_25  and  O_26
REMARK                            x       y       z     vdW  Elec       q    Type
REMARK                         _______ _______ _______ _____ _____    ______ ____
ROOT
ATOM      1  O   UNL     1       0.666   9.648  23.376  0.00  0.00    +0.000 OA
ATOM      2  C   UNL     1       0.596   9.507  22.165  0.00  0.00    +0.000 C 
ATOM      3  C   UNL     1       0.662   8.141  21.545  0.00  0.00    +0.000 C 
ATOM      4  C   UNL     1       1.700   8.164  20.424  0.00  0.00    +0.000 C 
ATOM      5  C   UNL     1       1.251   9.141  19.328  0.00  0.00    +0.000 C 
ATOM      6  C   UNL     1       0.812  10.477  19.885  0.00  0.00    +0.000 A 
ATOM      7  N   UNL     1       0.729  11.488  18.981  0.00  0.00    +0.000 NA
ATOM      8  C   UNL     1       0.303  12.698  19.385  0.00  0.00    +0.000 A 
ATOM      9  C   UNL     1       0.223  13.717  18.442  0.00  0.00    +0.000 A 
ATOM     10  C   UNL     1      -0.215  15.002  18.775  0.00  0.00    +0.000 A 
ATOM     11  C   UNL     1      -0.585  15.275  20.081  0.00  0.00    +0.000 A 
ATOM     12 BR   UNL     1      -1.169  17.008  20.560  0.00  0.00    +0.000 Br
ATOM     13  C   UNL     1      -0.529  14.275  21.047  0.00  0.00    +0.000 A 
ATOM     14  C   UNL     1      -0.080  12.972  20.715  0.00  0.00    +0.000 A 
ATOM     15  C   UNL     1      -0.003  11.900  21.630  0.00  0.00    +0.000 A 
ATOM     16  C   UNL     1       0.458  10.648  21.223  0.00  0.00    +0.000 A 
ENDROOT
BRANCH   4  17
ATOM     17  C   UNL     1       1.943   6.748  19.935  0.00  0.00    +0.000 A 
ATOM     18  C   UNL     1       2.418   6.499  18.639  0.00  0.00    +0.000 A 
ATOM     19  C   UNL     1       2.459   5.199  18.135  0.00  0.00    +0.000 A 
ATOM     20  C   UNL     1       2.033   4.117  18.915  0.00  0.00    +0.000 A 
ATOM     21  C   UNL     1       1.617   4.355  20.233  0.00  0.00    +0.000 A 
ATOM     22  C   UNL     1       1.571   5.659  20.736  0.00  0.00    +0.000 A 
BRANCH  20  23
ATOM     23  C   UNL     1       1.983   2.724  18.339  0.00  0.00    +0.000 C 
ATOM     24  F   UNL     1       2.338   2.668  17.024  0.00  0.00    +0.000 F 
ATOM     25  F   UNL     1       2.807   1.855  18.986  0.00  0.00    +0.000 F 
ATOM     26  F   UNL     1       0.735   2.179  18.406  0.00  0.00    +0.000 F 
ENDBRANCH  20  23
ENDBRANCH   4  17
BRANCH  15  27
ATOM     27  O   UNL     1      -0.444  12.040  22.921  0.00  0.00    +0.000 OA
ATOM     28  H   UNL     1      -1.292  12.503  22.961  0.00  0.00    +0.000 HD
ENDBRANCH  15  27
TORSDOF 3
ENDMDL
MODEL 2
REMARK VINA RESULT:      -8.3      0.603      1.386
REMARK  Name = 
REMARK  3 active torsions:
REMARK  status: ('A' for Active; 'I' for Inactive)
REMARK    1  A    between atoms: C_4  and  C_5
REMARK    2  A    between atoms: C_8  and  C_9
REMARK    3  A    between atoms: C_25  and  O_26
REMARK                            x       y       z     vdW  Elec       q    Type
REMARK                         _______ _______ _______ _____ _____    ______ ____
ROOT
ATOM      1  O   UNL     1       0.562   9.631  23.449  0.00  0.00    +0.000 OA
ATOM      2  C   UNL     1       0.504   9.507  22.235  0.00  0.00    +0.000 C 
ATOM      3  C   UNL     1       0.608   8.152  21.595  0.00  0.00    +0.000 C 
ATOM      4  C   UNL     1       1.653   8.218  20.482  0.00  0.00    +0.000 C 
ATOM      5  C   UNL     1       1.187   9.201  19.398  0.00  0.00    +0.000 C 
ATOM      6  C   UNL     1       0.712  10.517  19.972  0.00  0.00    +0.000 A 
ATOM      7  N   UNL     1       0.611  11.540  19.083  0.00  0.00    +0.000 NA
ATOM      8  C   UNL     1       0.153  12.733  19.502  0.00  0.00    +0.000 A 
ATOM      9  C   UNL     1       0.054  13.764  18.575  0.00  0.00    +0.000 A 
ATOM     10  C   UNL     1      -0.417  15.033  18.924  0.00  0.00    +0.000 A 
ATOM     11  C   UNL     1      -0.802  15.276  20.231  0.00  0.00    +0.000 A 
ATOM     12 BR   UNL     1      -1.431  16.987  20.733  0.00  0.00    +0.000 Br
ATOM     13  C   UNL     1      -0.729  14.263  21.182  0.00  0.00    +0.000 A 
ATOM     14  C   UNL     1      -0.246  12.977  20.834  0.00  0.00    +0.000 A 
ATOM     15  C   UNL     1      -0.150  11.893  21.733  0.00  0.00    +0.000 A 
ATOM     16  C   UNL     1       0.345  10.658  21.310  0.00  0.00    +0.000 A 
ENDROOT
BRANCH   4  17
ATOM     17  C   UNL     1       1.933   6.816  19.973  0.00  0.00    +0.000 A 
ATOM     18  C   UNL     1       1.669   5.690  20.766  0.00  0.00    +0.000 A 
ATOM     19  C   UNL     1       2.102   4.425  20.370  0.00  0.00    +0.000 A 
ATOM     20  C   UNL     1       2.802   4.254  19.169  0.00  0.00    +0.000 A 
ATOM     21  C   UNL     1       3.011   5.367  18.343  0.00  0.00    +0.000 A 
ATOM     22  C   UNL     1       2.583   6.636  18.743  0.00  0.00    +0.000 A 
BRANCH  20  23
ATOM     23  C   UNL     1       3.357   2.904  18.786  0.00  0.00    +0.000 C 
ATOM     24  F   UNL     1       2.527   1.868  19.098  0.00  0.00    +0.000 F 
ATOM     25  F   UNL     1       3.606   2.795  17.453  0.00  0.00    +0.000 F 
ATOM     26  F   UNL     1       4.537   2.632  19.412  0.00  0.00    +0.000 F 
ENDBRANCH  20  23
ENDBRANCH   4  17
BRANCH  15  27
ATOM     27  O   UNL     1      -0.602  12.002  23.022  0.00  0.00    +0.000 OA
ATOM     28  H   UNL     1      -0.147  11.384  23.613  0.00  0.00    +0.000 HD
ENDBRANCH  15  27
TORSDOF 3
ENDMDL
MODEL 3
REMARK VINA RESULT:      -8.2      4.469      6.231
REMARK  Name = 
REMARK  3 active torsions:
REMARK  status: ('A' for Active; 'I' for Inactive)
REMARK    1  A    between atoms: C_4  and  C_5
REMARK    2  A    between atoms: C_8  and  C_9
REMARK    3  A    between atoms: C_25  and  O_26
REMARK                            x       y       z     vdW  Elec       q    Type
REMARK                         _______ _______ _______ _____ _____    ______ ____
ROOT
ATOM      1  O   UNL     1       3.775   4.235  20.218  0.00  0.00    +0.000 OA
ATOM      2  C   UNL     1       3.581   4.904  19.215  0.00  0.00    +0.000 C 
ATOM      3  C   UNL     1       4.006   4.405  17.864  0.00  0.00    +0.000 C 
ATOM      4  C   UNL     1       4.804   5.505  17.166  0.00  0.00    +0.000 C 
ATOM      5  C   UNL     1       3.905   6.728  16.939  0.00  0.00    +0.000 C 
ATOM      6  C   UNL     1       3.134   7.121  18.180  0.00  0.00    +0.000 A 
ATOM      7  N   UNL     1       2.593   8.367  18.161  0.00  0.00    +0.000 NA
ATOM      8  C   UNL     1       1.853   8.779  19.206  0.00  0.00    +0.000 A 
ATOM      9  C   UNL     1       1.306  10.057  19.165  0.00  0.00    +0.000 A 
ATOM     10  C   UNL     1       0.521  10.562  20.205  0.00  0.00    +0.000 A 
ATOM     11  C   UNL     1       0.274   9.769  21.313  0.00  0.00    +0.000 A 
ATOM     12 BR   UNL     1      -0.774  10.433  22.740  0.00  0.00    +0.000 Br
ATOM     13  C   UNL     1       0.796   8.481  21.382  0.00  0.00    +0.000 A 
ATOM     14  C   UNL     1       1.597   7.968  20.332  0.00  0.00    +0.000 A 
ATOM     15  C   UNL     1       2.155   6.671  20.318  0.00  0.00    +0.000 A 
ATOM     16  C   UNL     1       2.940   6.245  19.246  0.00  0.00    +0.000 A 
ENDROOT
BRANCH   4  17
ATOM     17  C   UNL     1       5.428   4.947  15.900  0.00  0.00    +0.000 A 
ATOM     18  C   UNL     1       6.682   5.388  15.453  0.00  0.00    +0.000 A 
ATOM     19  C   UNL     1       7.161   5.014  14.198  0.00  0.00    +0.000 A 
ATOM     20  C   UNL     1       6.403   4.183  13.363  0.00  0.00    +0.000 A 
ATOM     21  C   UNL     1       5.178   3.688  13.834  0.00  0.00    +0.000 A 
ATOM     22  C   UNL     1       4.695   4.069  15.089  0.00  0.00    +0.000 A 
BRANCH  20  23
ATOM     23  C   UNL     1       6.874   3.856  11.968  0.00  0.00    +0.000 C 
ATOM     24  F   UNL     1       7.629   4.841  11.406  0.00  0.00    +0.000 F 
ATOM     25  F   UNL     1       7.633   2.728  11.918  0.00  0.00    +0.000 F 
ATOM     26  F   UNL     1       5.838   3.650  11.106  0.00  0.00    +0.000 F 
ENDBRANCH  20  23
ENDBRANCH   4  17
BRANCH  15  27
ATOM     27  O   UNL     1       1.884   5.774  21.320  0.00  0.00    +0.000 OA
ATOM     28  H   UNL     1       1.673   6.221  22.152  0.00  0.00    +0.000 HD
ENDBRANCH  15  27
TORSDOF 3
ENDMDL
MODEL 4
REMARK VINA RESULT:      -8.0      2.206      2.719
REMARK  Name = 
REMARK  3 active torsions:
REMARK  status: ('A' for Active; 'I' for Inactive)
REMARK    1  A    between atoms: C_4  and  C_5
REMARK    2  A    between atoms: C_8  and  C_9
REMARK    3  A    between atoms: C_25  and  O_26
REMARK                            x       y       z     vdW  Elec       q    Type
REMARK                         _______ _______ _______ _____ _____    ______ ____
ROOT
ATOM      1  O   UNL     1       1.711   9.227  22.981  0.00  0.00    +0.000 OA
ATOM      2  C   UNL     1       1.189   9.081  21.886  0.00  0.00    +0.000 C 
ATOM      3  C   UNL     1       1.583   7.940  20.993  0.00  0.00    +0.000 C 
ATOM      4  C   UNL     1       1.889   8.493  19.601  0.00  0.00    +0.000 C 
ATOM      5  C   UNL     1       0.621   9.121  19.007  0.00  0.00    +0.000 C 
ATOM      6  C   UNL     1      -0.077  10.050  19.977  0.00  0.00    +0.000 A 
ATOM      7  N   UNL     1      -0.992  10.890  19.426  0.00  0.00    +0.000 NA
ATOM      8  C   UNL     1      -1.691  11.717  20.223  0.00  0.00    +0.000 A 
ATOM      9  C   UNL     1      -2.623  12.566  19.638  0.00  0.00    +0.000 A 
ATOM     10  C   UNL     1      -3.396  13.452  20.394  0.00  0.00    +0.000 A 
ATOM     11  C   UNL     1      -3.234  13.489  21.769  0.00  0.00    +0.000 A 
ATOM     12 BR   UNL     1      -4.257  14.688  22.813  0.00  0.00    +0.000 Br
ATOM     13  C   UNL     1      -2.319  12.644  22.388  0.00  0.00    +0.000 A 
ATOM     14  C   UNL     1      -1.529  11.748  21.625  0.00  0.00    +0.000 A 
ATOM     15  C   UNL     1      -0.587  10.852  22.174  0.00  0.00    +0.000 A 
ATOM     16  C   UNL     1       0.157  10.006  21.350  0.00  0.00    +0.000 A 
ENDROOT
BRANCH   4  17
ATOM     17  C   UNL     1       2.500   7.397  18.748  0.00  0.00    +0.000 A 
ATOM     18  C   UNL     1       2.277   6.043  19.037  0.00  0.00    +0.000 A 
ATOM     19  C   UNL     1       2.989   5.047  18.370  0.00  0.00    +0.000 A 
ATOM     20  C   UNL     1       3.936   5.379  17.392  0.00  0.00    +0.000 A 
ATOM     21  C   UNL     1       4.115   6.728  17.056  0.00  0.00    +0.000 A 
ATOM     22  C   UNL     1       3.405   7.727  17.730  0.00  0.00    +0.000 A 
BRANCH  20  23
ATOM     23  C   UNL     1       4.777   4.311  16.739  0.00  0.00    +0.000 C 
ATOM     24  F   UNL     1       4.851   4.433  15.383  0.00  0.00    +0.000 F 
ATOM     25  F   UNL     1       6.062   4.305  17.185  0.00  0.00    +0.000 F 
ATOM     26  F   UNL     1       4.294   3.058  16.969  0.00  0.00    +0.000 F 
ENDBRANCH  20  23
ENDBRANCH   4  17
BRANCH  15  27
ATOM     27  O   UNL     1      -0.427  10.739  23.531  0.00  0.00    +0.000 OA
ATOM     28  H   UNL     1      -0.592  11.579  23.982  0.00  0.00    +0.000 HD
ENDBRANCH  15  27
TORSDOF 3
ENDMDL
MODEL 5
REMARK VINA RESULT:      -8.0      6.106      9.190
REMARK  Name = 
REMARK  3 active torsions:
REMARK  status: ('A' for Active; 'I' for Inactive)
REMARK    1  A    between atoms: C_4  and  C_5
REMARK    2  A    between atoms: C_8  and  C_9
REMARK    3  A    between atoms: C_25  and  O_26
REMARK                            x       y       z     vdW  Elec       q    Type
REMARK                         _______ _______ _______ _____ _____    ______ ____
ROOT
ATOM      1  O   UNL     1       1.762  11.270  18.235  0.00  0.00    +0.000 OA
ATOM      2  C   UNL     1       1.172  10.630  19.092  0.00  0.00    +0.000 C 
ATOM      3  C   UNL     1       0.093  11.266  19.920  0.00  0.00    +0.000 C 
ATOM      4  C   UNL     1       0.373  10.977  21.394  0.00  0.00    +0.000 C 
ATOM      5  C   UNL     1       0.309   9.464  21.642  0.00  0.00    +0.000 C 
ATOM      6  C   UNL     1       1.101   8.672  20.625  0.00  0.00    +0.000 A 
ATOM      7  N   UNL     1       1.370   7.386  20.967  0.00  0.00    +0.000 NA
ATOM      8  C   UNL     1       2.031   6.598  20.099  0.00  0.00    +0.000 A 
ATOM      9  C   UNL     1       2.294   5.284  20.468  0.00  0.00    +0.000 A 
ATOM     10  C   UNL     1       2.969   4.398  19.625  0.00  0.00    +0.000 A 
ATOM     11  C   UNL     1       3.391   4.835  18.380  0.00  0.00    +0.000 A 
ATOM     12 BR   UNL     1       4.318   3.660  17.225  0.00  0.00    +0.000 Br
ATOM     13  C   UNL     1       3.133   6.140  17.973  0.00  0.00    +0.000 A 
ATOM     14  C   UNL     1       2.454   7.044  18.828  0.00  0.00    +0.000 A 
ATOM     15  C   UNL     1       2.144   8.379  18.489  0.00  0.00    +0.000 A 
ATOM     16  C   UNL     1       1.477   9.207  19.394  0.00  0.00    +0.000 A 
ENDROOT
BRANCH   4  17
ATOM     17  C   UNL     1      -0.575  11.791  22.255  0.00  0.00    +0.000 A 
ATOM     18  C   UNL     1      -1.658  11.189  22.910  0.00  0.00    +0.000 A 
ATOM     19  C   UNL     1      -2.628  11.967  23.541  0.00  0.00    +0.000 A 
ATOM     20  C   UNL     1      -2.535  13.365  23.538  0.00  0.00    +0.000 A 
ATOM     21  C   UNL     1      -1.420  13.967  22.939  0.00  0.00    +0.000 A 
ATOM     22  C   UNL     1      -0.451  13.187  22.301  0.00  0.00    +0.000 A 
BRANCH  20  23
ATOM     23  C   UNL     1      -3.633  14.212  24.134  0.00  0.00    +0.000 C 
ATOM     24  F   UNL     1      -4.719  13.490  24.531  0.00  0.00    +0.000 F 
ATOM     25  F   UNL     1      -3.226  14.909  25.229  0.00  0.00    +0.000 F 
ATOM     26  F   UNL     1      -4.108  15.138  23.254  0.00  0.00    +0.000 F 
ENDBRANCH  20  23
ENDBRANCH   4  17
BRANCH  15  27
ATOM     27  O   UNL     1       2.426   8.876  17.243  0.00  0.00    +0.000 OA
ATOM     28  H   UNL     1       1.830   8.515  16.571  0.00  0.00    +0.000 HD
ENDBRANCH  15  27
TORSDOF 3
ENDMDL
MODEL 6
REMARK VINA RESULT:      -7.9      2.854      3.722
REMARK  Name = 
REMARK  3 active torsions:
REMARK  status: ('A' for Active; 'I' for Inactive)
REMARK    1  A    between atoms: C_4  and  C_5
REMARK    2  A    between atoms: C_8  and  C_9
REMARK    3  A    between atoms: C_25  and  O_26
REMARK                            x       y       z     vdW  Elec       q    Type
REMARK                         _______ _______ _______ _____ _____    ______ ____
ROOT
ATOM      1  O   UNL     1       1.588   6.867  21.375  0.00  0.00    +0.000 OA
ATOM      2  C   UNL     1       1.649   7.317  20.241  0.00  0.00    +0.000 C 
ATOM      3  C   UNL     1       2.278   6.524  19.132  0.00  0.00    +0.000 C 
ATOM      4  C   UNL     1       3.288   7.414  18.408  0.00  0.00    +0.000 C 
ATOM      5  C   UNL     1       2.557   8.600  17.763  0.00  0.00    +0.000 C 
ATOM      6  C   UNL     1       1.600   9.281  18.717  0.00  0.00    +0.000 A 
ATOM      7  N   UNL     1       1.182  10.518  18.340  0.00  0.00    +0.000 NA
ATOM      8  C   UNL     1       0.294  11.175  19.108  0.00  0.00    +0.000 A 
ATOM      9  C   UNL     1      -0.123  12.438  18.702  0.00  0.00    +0.000 A 
ATOM     10  C   UNL     1      -1.045  13.186  19.437  0.00  0.00    +0.000 A 
ATOM     11  C   UNL     1      -1.566  12.659  20.607  0.00  0.00    +0.000 A 
ATOM     12 BR   UNL     1      -2.807  13.656  21.627  0.00  0.00    +0.000 Br
ATOM     13  C   UNL     1      -1.181  11.393  21.036  0.00  0.00    +0.000 A 
ATOM     14  C   UNL     1      -0.241  10.633  20.296  0.00  0.00    +0.000 A 
ATOM     15  C   UNL     1       0.195   9.339  20.655  0.00  0.00    +0.000 A 
ATOM     16  C   UNL     1       1.131   8.661  19.873  0.00  0.00    +0.000 A 
ENDROOT
BRANCH   4  17
ATOM     17  C   UNL     1       4.091   6.572  17.434  0.00  0.00    +0.000 A 
ATOM     18  C   UNL     1       4.884   7.169  16.442  0.00  0.00    +0.000 A 
ATOM     19  C   UNL     1       5.465   6.395  15.438  0.00  0.00    +0.000 A 
ATOM     20  C   UNL     1       5.276   5.008  15.405  0.00  0.00    +0.000 A 
ATOM     21  C   UNL     1       4.538   4.402  16.431  0.00  0.00    +0.000 A 
ATOM     22  C   UNL     1       3.949   5.177  17.434  0.00  0.00    +0.000 A 
BRANCH  20  23
ATOM     23  C   UNL     1       5.822   4.182  14.266  0.00  0.00    +0.000 C 
ATOM     24  F   UNL     1       6.869   4.772  13.623  0.00  0.00    +0.000 F 
ATOM     25  F   UNL     1       6.268   2.961  14.666  0.00  0.00    +0.000 F 
ATOM     26  F   UNL     1       4.887   3.944  13.304  0.00  0.00    +0.000 F 
ENDBRANCH  20  23
ENDBRANCH   4  17
BRANCH  15  27
ATOM     27  O   UNL     1      -0.338   8.688  21.737  0.00  0.00    +0.000 OA
ATOM     28  H   UNL     1       0.350   8.389  22.348  0.00  0.00    +0.000 HD
ENDBRANCH  15  27
TORSDOF 3
ENDMDL
MODEL 7
REMARK VINA RESULT:      -7.8      2.905      3.539
REMARK  Name = 
REMARK  3 active torsions:
REMARK  status: ('A' for Active; 'I' for Inactive)
REMARK    1  A    between atoms: C_4  and  C_5
REMARK    2  A    between atoms: C_8  and  C_9
REMARK    3  A    between atoms: C_25  and  O_26
REMARK                            x       y       z     vdW  Elec       q    Type
REMARK                         _______ _______ _______ _____ _____    ______ ____
ROOT
ATOM      1  O   UNL     1      -1.485  10.113  17.215  0.00  0.00    +0.000 OA
ATOM      2  C   UNL     1      -0.641  10.156  18.098  0.00  0.00    +0.000 C 
ATOM      3  C   UNL     1       0.690   9.484  17.923  0.00  0.00    +0.000 C 
ATOM      4  C   UNL     1       0.966   8.621  19.154  0.00  0.00    +0.000 C 
ATOM      5  C   UNL     1       1.067   9.517  20.397  0.00  0.00    +0.000 C 
ATOM      6  C   UNL     1      -0.073  10.507  20.494  0.00  0.00    +0.000 A 
ATOM      7  N   UNL     1      -0.241  11.088  21.711  0.00  0.00    +0.000 NA
ATOM      8  C   UNL     1      -1.203  12.014  21.871  0.00  0.00    +0.000 A 
ATOM      9  C   UNL     1      -1.354  12.597  23.124  0.00  0.00    +0.000 A 
ATOM     10  C   UNL     1      -2.325  13.571  23.376  0.00  0.00    +0.000 A 
ATOM     11  C   UNL     1      -3.162  13.974  22.350  0.00  0.00    +0.000 A 
ATOM     12 BR   UNL     1      -4.491  15.281  22.668  0.00  0.00    +0.000 Br
ATOM     13  C   UNL     1      -3.029  13.421  21.081  0.00  0.00    +0.000 A 
ATOM     14  C   UNL     1      -2.051  12.428  20.822  0.00  0.00    +0.000 A 
ATOM     15  C   UNL     1      -1.843  11.824  19.564  0.00  0.00    +0.000 A 
ATOM     16  C   UNL     1      -0.861  10.847  19.395  0.00  0.00    +0.000 A 
ENDROOT
BRANCH   4  17
ATOM     17  C   UNL     1       2.193   7.765  18.902  0.00  0.00    +0.000 A 
ATOM     18  C   UNL     1       3.006   7.975  17.779  0.00  0.00    +0.000 A 
ATOM     19  C   UNL     1       4.016   7.069  17.455  0.00  0.00    +0.000 A 
ATOM     20  C   UNL     1       4.243   5.937  18.248  0.00  0.00    +0.000 A 
ATOM     21  C   UNL     1       3.474   5.759  19.406  0.00  0.00    +0.000 A 
ATOM     22  C   UNL     1       2.457   6.663  19.729  0.00  0.00    +0.000 A 
BRANCH  20  23
ATOM     23  C   UNL     1       5.268   4.906  17.845  0.00  0.00    +0.000 C 
ATOM     24  F   UNL     1       6.472   5.445  17.501  0.00  0.00    +0.000 F 
ATOM     25  F   UNL     1       5.529   4.008  18.834  0.00  0.00    +0.000 F 
ATOM     26  F   UNL     1       4.870   4.173  16.767  0.00  0.00    +0.000 F 
ENDBRANCH  20  23
ENDBRANCH   4  17
BRANCH  15  27
ATOM     27  O   UNL     1      -2.550  12.228  18.460  0.00  0.00    +0.000 OA
ATOM     28  H   UNL     1      -2.100  12.944  17.991  0.00  0.00    +0.000 HD
ENDBRANCH  15  27
TORSDOF 3
ENDMDL
MODEL 8
REMARK VINA RESULT:      -7.8      6.176      9.262
REMARK  Name = 
REMARK  3 active torsions:
REMARK  status: ('A' for Active; 'I' for Inactive)
REMARK    1  A    between atoms: C_4  and  C_5
REMARK    2  A    between atoms: C_8  and  C_9
REMARK    3  A    between atoms: C_25  and  O_26
REMARK                            x       y       z     vdW  Elec       q    Type
REMARK                         _______ _______ _______ _____ _____    ______ ____
ROOT
ATOM      1  O   UNL     1       2.084  11.027  17.947  0.00  0.00    +0.000 OA
ATOM      2  C   UNL     1       1.417  10.511  18.831  0.00  0.00    +0.000 C 
ATOM      3  C   UNL     1       0.371  11.299  19.565  0.00  0.00    +0.000 C 
ATOM      4  C   UNL     1       0.582  11.112  21.066  0.00  0.00    +0.000 C 
ATOM      5  C   UNL     1       0.383   9.635  21.434  0.00  0.00    +0.000 C 
ATOM      6  C   UNL     1       1.135   8.700  20.512  0.00  0.00    +0.000 A 
ATOM      7  N   UNL     1       1.284   7.428  20.966  0.00  0.00    +0.000 NA
ATOM      8  C   UNL     1       1.901   6.520  20.189  0.00  0.00    +0.000 A 
ATOM      9  C   UNL     1       2.041   5.224  20.672  0.00  0.00    +0.000 A 
ATOM     10  C   UNL     1       2.664   4.218  19.929  0.00  0.00    +0.000 A 
ATOM     11  C   UNL     1       3.157   4.514  18.669  0.00  0.00    +0.000 A 
ATOM     12 BR   UNL     1       4.015   3.175  17.647  0.00  0.00    +0.000 Br
ATOM     13  C   UNL     1       3.023   5.798  18.149  0.00  0.00    +0.000 A 
ATOM     14  C   UNL     1       2.397   6.822  18.903  0.00  0.00    +0.000 A 
ATOM     15  C   UNL     1       2.212   8.145  18.447  0.00  0.00    +0.000 A 
ATOM     16  C   UNL     1       1.591   9.097  19.257  0.00  0.00    +0.000 A 
ENDROOT
BRANCH   4  17
ATOM     17  C   UNL     1      -0.318  12.070  21.824  0.00  0.00    +0.000 A 
ATOM     18  C   UNL     1      -0.005  13.433  21.925  0.00  0.00    +0.000 A 
ATOM     19  C   UNL     1      -0.731  14.267  22.776  0.00  0.00    +0.000 A 
ATOM     20  C   UNL     1      -1.791  13.761  23.539  0.00  0.00    +0.000 A 
ATOM     21  C   UNL     1      -2.147  12.413  23.391  0.00  0.00    +0.000 A 
ATOM     22  C   UNL     1      -1.415  11.576  22.543  0.00  0.00    +0.000 A 
BRANCH  20  23
ATOM     23  C   UNL     1      -2.514  14.638  24.531  0.00  0.00    +0.000 C 
ATOM     24  F   UNL     1      -3.597  14.036  25.098  0.00  0.00    +0.000 F 
ATOM     25  F   UNL     1      -1.720  15.029  25.565  0.00  0.00    +0.000 F 
ATOM     26  F   UNL     1      -2.984  15.784  23.964  0.00  0.00    +0.000 F 
ENDBRANCH  20  23
ENDBRANCH   4  17
BRANCH  15  27
ATOM     27  O   UNL     1       2.572   8.512  17.176  0.00  0.00    +0.000 OA
ATOM     28  H   UNL     1       3.357   8.033  16.875  0.00  0.00    +0.000 HD
ENDBRANCH  15  27
TORSDOF 3
ENDMDL
MODEL 9
REMARK VINA RESULT:      -7.7      1.017      1.112
REMARK  Name = 
REMARK  3 active torsions:
REMARK  status: ('A' for Active; 'I' for Inactive)
REMARK    1  A    between atoms: C_4  and  C_5
REMARK    2  A    between atoms: C_8  and  C_9
REMARK    3  A    between atoms: C_25  and  O_26
REMARK                            x       y       z     vdW  Elec       q    Type
REMARK                         _______ _______ _______ _____ _____    ______ ____
ROOT
ATOM      1  O   UNL     1       1.216   8.978  22.903  0.00  0.00    +0.000 OA
ATOM      2  C   UNL     1       1.086   8.903  21.691  0.00  0.00    +0.000 C 
ATOM      3  C   UNL     1       1.248   7.590  20.980  0.00  0.00    +0.000 C 
ATOM      4  C   UNL     1       2.207   7.786  19.807  0.00  0.00    +0.000 C 
ATOM      5  C   UNL     1       1.598   8.777  18.805  0.00  0.00    +0.000 C 
ATOM      6  C   UNL     1       1.065  10.026  19.472  0.00  0.00    +0.000 A 
ATOM      7  N   UNL     1       0.828  11.075  18.642  0.00  0.00    +0.000 NA
ATOM      8  C   UNL     1       0.310  12.210  19.148  0.00  0.00    +0.000 A 
ATOM      9  C   UNL     1       0.073  13.270  18.280  0.00  0.00    +0.000 A 
ATOM     10  C   UNL     1      -0.467  14.481  18.721  0.00  0.00    +0.000 A 
ATOM     11  C   UNL     1      -0.781  14.636  20.061  0.00  0.00    +0.000 A 
ATOM     12 BR   UNL     1      -1.501  16.269  20.684  0.00  0.00    +0.000 Br
ATOM     13  C   UNL     1      -0.568  13.591  20.954  0.00  0.00    +0.000 A 
ATOM     14  C   UNL     1      -0.015  12.363  20.513  0.00  0.00    +0.000 A 
ATOM     15  C   UNL     1       0.223  11.251  21.349  0.00  0.00    +0.000 A 
ATOM     16  C   UNL     1       0.779  10.079  20.835  0.00  0.00    +0.000 A 
ENDROOT
BRANCH   4  17
ATOM     17  C   UNL     1       2.557   6.434  19.213  0.00  0.00    +0.000 A 
ATOM     18  C   UNL     1       1.817   5.895  18.151  0.00  0.00    +0.000 A 
ATOM     19  C   UNL     1       2.023   4.579  17.738  0.00  0.00    +0.000 A 
ATOM     20  C   UNL     1       2.978   3.773  18.371  0.00  0.00    +0.000 A 
ATOM     21  C   UNL     1       3.764   4.330  19.389  0.00  0.00    +0.000 A 
ATOM     22  C   UNL     1       3.553   5.647  19.808  0.00  0.00    +0.000 A 
BRANCH  20  23
ATOM     23  C   UNL     1       3.134   2.321  17.992  0.00  0.00    +0.000 C 
ATOM     24  F   UNL     1       4.296   2.056  17.329  0.00  0.00    +0.000 F 
ATOM     25  F   UNL     1       3.121   1.491  19.070  0.00  0.00    +0.000 F 
ATOM     26  F   UNL     1       2.135   1.889  17.172  0.00  0.00    +0.000 F 
ENDBRANCH  20  23
ENDBRANCH   4  17
BRANCH  15  27
ATOM     27  O   UNL     1      -0.148  11.267  22.669  0.00  0.00    +0.000 OA
ATOM     28  H   UNL     1      -1.047  11.608  22.783  0.00  0.00    +0.000 HD
ENDBRANCH  15  27
TORSDOF 3
ENDMDL
