MODEL 1
REMARK VINA RESULT:      -8.0      0.000      0.000
REMARK  Name = 
REMARK  3 active torsions:
REMARK  status: ('A' for Active; 'I' for Inactive)
REMARK    1  A    between atoms: C_4  and  C_5
REMARK    2  A    between atoms: C_8  and  C_9
REMARK    3  A    between atoms: C_12  and  C_13
REMARK                            x       y       z     vdW  Elec       q    Type
REMARK                         _______ _______ _______ _____ _____    ______ ____
ROOT
ATOM      1  C   UNL     1       3.686   5.961  17.814  0.00  0.00    +0.000 A 
ATOM      2  C   UNL     1       3.880   4.610  17.470  0.00  0.00    +0.000 A 
ATOM      3  C   UNL     1       4.692   4.259  16.394  0.00  0.00    +0.000 A 
ATOM      4  C   UNL     1       5.342   5.243  15.633  0.00  0.00    +0.000 A 
ATOM      5  C   UNL     1       5.166   6.595  15.986  0.00  0.00    +0.000 A 
ATOM      6  C   UNL     1       4.343   6.948  17.062  0.00  0.00    +0.000 A 
ENDROOT
BRANCH   4   7
ATOM      7  C   UNL     1       6.184   4.841  14.474  0.00  0.00    +0.000 C 
ATOM      8  N   UNL     1       5.823   3.941  13.639  0.00  0.00    +0.000 NA
ATOM      9  C   UNL     1       6.803   3.780  12.594  0.00  0.00    +0.000 C 
ATOM     10  C   UNL     1       7.882   4.827  12.912  0.00  0.00    +0.000 C 
ATOM     11  N   UNL     1       7.414   5.421  14.133  0.00  0.00    +0.000 N 
ATOM     12  H   UNL     1       7.901   6.172  14.638  0.00  0.00    +0.000 HD
ENDBRANCH   4   7
BRANCH   1  16
ATOM     13  C   UNL     1       1.655   7.531  20.292  0.00  0.00    +0.000 A 
ATOM     14  C   UNL     1       1.665   6.260  20.831  0.00  0.00    +0.000 A 
ATOM     15  C   UNL     1       2.398   5.488  19.969  0.00  0.00    +0.000 A 
ATOM     16  C   UNL     1       2.818   6.334  18.955  0.00  0.00    +0.000 A 
ATOM     17  O   UNL     1       2.342   7.545  19.167  0.00  0.00    +0.000 OA
BRANCH  13  21
ATOM     18  C   UNL     1      -0.339  10.919  21.992  0.00  0.00    +0.000 A 
ATOM     19  C   UNL     1       0.024   9.845  22.805  0.00  0.00    +0.000 A 
ATOM     20  C   UNL     1       0.664   8.734  22.251  0.00  0.00    +0.000 A 
ATOM     21  C   UNL     1       0.974   8.702  20.878  0.00  0.00    +0.000 A 
ATOM     22  C   UNL     1       0.624   9.796  20.070  0.00  0.00    +0.000 A 
ATOM     23  C   UNL     1      -0.048  10.889  20.625  0.00  0.00    +0.000 A 
ENDBRANCH  13  21
ENDBRANCH   1  16
TORSDOF 3
ENDMDL
MODEL 2
REMARK VINA RESULT:      -7.9      0.096      1.031
REMARK  Name = 
REMARK  3 active torsions:
REMARK  status: ('A' for Active; 'I' for Inactive)
REMARK    1  A    between atoms: C_4  and  C_5
REMARK    2  A    between atoms: C_8  and  C_9
REMARK    3  A    between atoms: C_12  and  C_13
REMARK                            x       y       z     vdW  Elec       q    Type
REMARK                         _______ _______ _______ _____ _____    ______ ____
ROOT
ATOM      1  C   UNL     1       3.717   5.938  17.820  0.00  0.00    +0.000 A 
ATOM      2  C   UNL     1       3.924   4.591  17.472  0.00  0.00    +0.000 A 
ATOM      3  C   UNL     1       4.733   4.251  16.390  0.00  0.00    +0.000 A 
ATOM      4  C   UNL     1       5.366   5.243  15.626  0.00  0.00    +0.000 A 
ATOM      5  C   UNL     1       5.179   6.593  15.983  0.00  0.00    +0.000 A 
ATOM      6  C   UNL     1       4.359   6.935  17.066  0.00  0.00    +0.000 A 
ENDROOT
BRANCH   4   7
ATOM      7  C   UNL     1       6.205   4.853  14.461  0.00  0.00    +0.000 C 
ATOM      8  N   UNL     1       5.849   3.949  13.627  0.00  0.00    +0.000 NA
ATOM      9  C   UNL     1       6.823   3.801  12.575  0.00  0.00    +0.000 C 
ATOM     10  C   UNL     1       7.891   4.861  12.886  0.00  0.00    +0.000 C 
ATOM     11  N   UNL     1       7.425   5.449  14.111  0.00  0.00    +0.000 N 
ATOM     12  H   UNL     1       7.906   6.206  14.613  0.00  0.00    +0.000 HD
ENDBRANCH   4   7
BRANCH   1  16
ATOM     13  C   UNL     1       1.686   7.481  20.315  0.00  0.00    +0.000 A 
ATOM     14  C   UNL     1       1.714   6.209  20.852  0.00  0.00    +0.000 A 
ATOM     15  C   UNL     1       2.450   5.447  19.983  0.00  0.00    +0.000 A 
ATOM     16  C   UNL     1       2.854   6.299  18.968  0.00  0.00    +0.000 A 
ATOM     17  O   UNL     1       2.365   7.505  19.185  0.00  0.00    +0.000 OA
BRANCH  13  21
ATOM     18  C   UNL     1      -0.298  10.863  22.037  0.00  0.00    +0.000 A 
ATOM     19  C   UNL     1       0.144  10.915  20.715  0.00  0.00    +0.000 A 
ATOM     20  C   UNL     1       0.802   9.817  20.155  0.00  0.00    +0.000 A 
ATOM     21  C   UNL     1       0.996   8.643  20.907  0.00  0.00    +0.000 A 
ATOM     22  C   UNL     1       0.529   8.591  22.230  0.00  0.00    +0.000 A 
ATOM     23  C   UNL     1      -0.097   9.706  22.796  0.00  0.00    +0.000 A 
ENDBRANCH  13  21
ENDBRANCH   1  16
TORSDOF 3
ENDMDL
MODEL 3
REMARK VINA RESULT:      -7.9      0.114      1.037
REMARK  Name = 
REMARK  3 active torsions:
REMARK  status: ('A' for Active; 'I' for Inactive)
REMARK    1  A    between atoms: C_4  and  C_5
REMARK    2  A    between atoms: C_8  and  C_9
REMARK    3  A    between atoms: C_12  and  C_13
REMARK                            x       y       z     vdW  Elec       q    Type
REMARK                         _______ _______ _______ _____ _____    ______ ____
ROOT
ATOM      1  C   UNL     1       3.735   5.881  17.790  0.00  0.00    +0.000 A 
ATOM      2  C   UNL     1       4.389   6.870  17.031  0.00  0.00    +0.000 A 
ATOM      3  C   UNL     1       5.187   6.521  15.944  0.00  0.00    +0.000 A 
ATOM      4  C   UNL     1       5.352   5.177  15.575  0.00  0.00    +0.000 A 
ATOM      5  C   UNL     1       4.684   4.185  16.319  0.00  0.00    +0.000 A 
ATOM      6  C   UNL     1       3.888   4.536  17.417  0.00  0.00    +0.000 A 
ENDROOT
BRANCH   4   7
ATOM      7  C   UNL     1       6.230   4.831  14.425  0.00  0.00    +0.000 C 
ATOM      8  N   UNL     1       5.918   3.937  13.564  0.00  0.00    +0.000 NA
ATOM      9  C   UNL     1       6.923   3.834  12.535  0.00  0.00    +0.000 C 
ATOM     10  C   UNL     1       7.956   4.913  12.896  0.00  0.00    +0.000 C 
ATOM     11  N   UNL     1       7.444   5.464  14.120  0.00  0.00    +0.000 N 
ATOM     12  H   UNL     1       7.893   6.221  14.651  0.00  0.00    +0.000 HD
ENDBRANCH   4   7
BRANCH   1  16
ATOM     13  C   UNL     1       1.735   7.442  20.298  0.00  0.00    +0.000 A 
ATOM     14  C   UNL     1       1.790   6.181  20.856  0.00  0.00    +0.000 A 
ATOM     15  C   UNL     1       2.518   5.413  19.986  0.00  0.00    +0.000 A 
ATOM     16  C   UNL     1       2.890   6.252  18.949  0.00  0.00    +0.000 A 
ATOM     17  O   UNL     1       2.390   7.455  19.155  0.00  0.00    +0.000 OA
BRANCH  13  21
ATOM     18  C   UNL     1      -0.295  10.809  21.998  0.00  0.00    +0.000 A 
ATOM     19  C   UNL     1       0.025   9.712  22.799  0.00  0.00    +0.000 A 
ATOM     20  C   UNL     1       0.676   8.608  22.244  0.00  0.00    +0.000 A 
ATOM     21  C   UNL     1       1.041   8.606  20.884  0.00  0.00    +0.000 A 
ATOM     22  C   UNL     1       0.735   9.722  20.090  0.00  0.00    +0.000 A 
ATOM     23  C   UNL     1       0.051  10.809  20.643  0.00  0.00    +0.000 A 
ENDBRANCH  13  21
ENDBRANCH   1  16
TORSDOF 3
ENDMDL
MODEL 4
REMARK VINA RESULT:      -7.8      0.384      1.502
REMARK  Name = 
REMARK  3 active torsions:
REMARK  status: ('A' for Active; 'I' for Inactive)
REMARK    1  A    between atoms: C_4  and  C_5
REMARK    2  A    between atoms: C_8  and  C_9
REMARK    3  A    between atoms: C_12  and  C_13
REMARK                            x       y       z     vdW  Elec       q    Type
REMARK                         _______ _______ _______ _____ _____    ______ ____
ROOT
ATOM      1  C   UNL     1       3.453   6.087  18.070  0.00  0.00    +0.000 A 
ATOM      2  C   UNL     1       4.170   7.048  17.333  0.00  0.00    +0.000 A 
ATOM      3  C   UNL     1       4.987   6.667  16.271  0.00  0.00    +0.000 A 
ATOM      4  C   UNL     1       5.109   5.317  15.906  0.00  0.00    +0.000 A 
ATOM      5  C   UNL     1       4.378   4.354  16.628  0.00  0.00    +0.000 A 
ATOM      6  C   UNL     1       3.563   4.736  17.701  0.00  0.00    +0.000 A 
ENDROOT
BRANCH   4   7
ATOM      7  C   UNL     1       6.008   4.937  14.784  0.00  0.00    +0.000 C 
ATOM      8  N   UNL     1       5.683   4.066  13.904  0.00  0.00    +0.000 NA
ATOM      9  C   UNL     1       6.716   3.921  12.910  0.00  0.00    +0.000 C 
ATOM     10  C   UNL     1       7.790   4.942  13.317  0.00  0.00    +0.000 C 
ATOM     11  N   UNL     1       7.263   5.508  14.528  0.00  0.00    +0.000 N 
ATOM     12  H   UNL     1       7.731   6.238  15.081  0.00  0.00    +0.000 HD
ENDBRANCH   4   7
BRANCH   1  16
ATOM     13  C   UNL     1       1.438   7.727  20.514  0.00  0.00    +0.000 A 
ATOM     14  C   UNL     1       1.428   6.466  21.075  0.00  0.00    +0.000 A 
ATOM     15  C   UNL     1       2.152   5.669  20.228  0.00  0.00    +0.000 A 
ATOM     16  C   UNL     1       2.588   6.491  19.202  0.00  0.00    +0.000 A 
ATOM     17  O   UNL     1       2.128   7.713  19.392  0.00  0.00    +0.000 OA
BRANCH  13  21
ATOM     18  C   UNL     1      -0.476  11.190  22.154  0.00  0.00    +0.000 A 
ATOM     19  C   UNL     1       0.013  11.219  20.848  0.00  0.00    +0.000 A 
ATOM     20  C   UNL     1       0.648  10.095  20.315  0.00  0.00    +0.000 A 
ATOM     21  C   UNL     1       0.772   8.918  21.078  0.00  0.00    +0.000 A 
ATOM     22  C   UNL     1       0.258   8.890  22.384  0.00  0.00    +0.000 A 
ATOM     23  C   UNL     1      -0.345  10.031  22.923  0.00  0.00    +0.000 A 
ENDBRANCH  13  21
ENDBRANCH   1  16
TORSDOF 3
ENDMDL
MODEL 5
REMARK VINA RESULT:      -7.7      3.432      8.831
REMARK  Name = 
REMARK  3 active torsions:
REMARK  status: ('A' for Active; 'I' for Inactive)
REMARK    1  A    between atoms: C_4  and  C_5
REMARK    2  A    between atoms: C_8  and  C_9
REMARK    3  A    between atoms: C_12  and  C_13
REMARK                            x       y       z     vdW  Elec       q    Type
REMARK                         _______ _______ _______ _____ _____    ______ ____
ROOT
ATOM      1  C   UNL     1       3.311   6.322  18.198  0.00  0.00    +0.000 A 
ATOM      2  C   UNL     1       2.849   5.971  19.480  0.00  0.00    +0.000 A 
ATOM      3  C   UNL     1       2.096   6.867  20.235  0.00  0.00    +0.000 A 
ATOM      4  C   UNL     1       1.775   8.138  19.733  0.00  0.00    +0.000 A 
ATOM      5  C   UNL     1       2.218   8.486  18.442  0.00  0.00    +0.000 A 
ATOM      6  C   UNL     1       2.981   7.588  17.686  0.00  0.00    +0.000 A 
ENDROOT
BRANCH   4   7
ATOM      7  C   UNL     1       0.990   9.084  20.571  0.00  0.00    +0.000 C 
ATOM      8  N   UNL     1       0.601   8.797  21.756  0.00  0.00    +0.000 NA
ATOM      9  C   UNL     1      -0.099   9.905  22.356  0.00  0.00    +0.000 C 
ATOM     10  C   UNL     1      -0.041  11.017  21.297  0.00  0.00    +0.000 C 
ATOM     11  N   UNL     1       0.639  10.390  20.198  0.00  0.00    +0.000 N 
ATOM     12  H   UNL     1       0.853  10.853  19.305  0.00  0.00    +0.000 HD
ENDBRANCH   4   7
BRANCH   1  16
ATOM     13  C   UNL     1       5.250   4.563  15.774  0.00  0.00    +0.000 A 
ATOM     14  C   UNL     1       5.124   3.542  16.695  0.00  0.00    +0.000 A 
ATOM     15  C   UNL     1       4.410   4.061  17.742  0.00  0.00    +0.000 A 
ATOM     16  C   UNL     1       4.115   5.370  17.397  0.00  0.00    +0.000 A 
ATOM     17  O   UNL     1       4.648   5.646  16.222  0.00  0.00    +0.000 OA
BRANCH  13  21
ATOM     18  C   UNL     1       7.308   4.262  12.030  0.00  0.00    +0.000 A 
ATOM     19  C   UNL     1       6.138   3.532  12.241  0.00  0.00    +0.000 A 
ATOM     20  C   UNL     1       5.472   3.620  13.466  0.00  0.00    +0.000 A 
ATOM     21  C   UNL     1       5.956   4.465  14.482  0.00  0.00    +0.000 A 
ATOM     22  C   UNL     1       7.123   5.212  14.254  0.00  0.00    +0.000 A 
ATOM     23  C   UNL     1       7.805   5.092  13.039  0.00  0.00    +0.000 A 
ENDBRANCH  13  21
ENDBRANCH   1  16
TORSDOF 3
ENDMDL
MODEL 6
REMARK VINA RESULT:      -7.7      3.444      8.832
REMARK  Name = 
REMARK  3 active torsions:
REMARK  status: ('A' for Active; 'I' for Inactive)
REMARK    1  A    between atoms: C_4  and  C_5
REMARK    2  A    between atoms: C_8  and  C_9
REMARK    3  A    between atoms: C_12  and  C_13
REMARK                            x       y       z     vdW  Elec       q    Type
REMARK                         _______ _______ _______ _____ _____    ______ ____
ROOT
ATOM      1  C   UNL     1       3.254   6.264  18.229  0.00  0.00    +0.000 A 
ATOM      2  C   UNL     1       2.815   5.915  19.519  0.00  0.00    +0.000 A 
ATOM      3  C   UNL     1       2.077   6.812  20.288  0.00  0.00    +0.000 A 
ATOM      4  C   UNL     1       1.748   8.083  19.791  0.00  0.00    +0.000 A 
ATOM      5  C   UNL     1       2.168   8.430  18.493  0.00  0.00    +0.000 A 
ATOM      6  C   UNL     1       2.916   7.530  17.723  0.00  0.00    +0.000 A 
ENDROOT
BRANCH   4   7
ATOM      7  C   UNL     1       0.981   9.030  20.643  0.00  0.00    +0.000 C 
ATOM      8  N   UNL     1       0.344  10.031  20.162  0.00  0.00    +0.000 NA
ATOM      9  C   UNL     1      -0.345  10.756  21.199  0.00  0.00    +0.000 C 
ATOM     10  C   UNL     1      -0.050   9.966  22.484  0.00  0.00    +0.000 C 
ATOM     11  N   UNL     1       0.819   8.915  22.032  0.00  0.00    +0.000 N 
ATOM     12  H   UNL     1       1.218   8.188  22.639  0.00  0.00    +0.000 HD
ENDBRANCH   4   7
BRANCH   1  16
ATOM     13  C   UNL     1       5.185   4.518  15.790  0.00  0.00    +0.000 A 
ATOM     14  C   UNL     1       5.000   3.471  16.671  0.00  0.00    +0.000 A 
ATOM     15  C   UNL     1       4.280   3.981  17.719  0.00  0.00    +0.000 A 
ATOM     16  C   UNL     1       4.042   5.311  17.413  0.00  0.00    +0.000 A 
ATOM     17  O   UNL     1       4.613   5.607  16.262  0.00  0.00    +0.000 OA
BRANCH  13  21
ATOM     18  C   UNL     1       7.308   4.307  12.076  0.00  0.00    +0.000 A 
ATOM     19  C   UNL     1       7.796   5.104  13.112  0.00  0.00    +0.000 A 
ATOM     20  C   UNL     1       7.099   5.183  14.320  0.00  0.00    +0.000 A 
ATOM     21  C   UNL     1       5.920   4.439  14.512  0.00  0.00    +0.000 A 
ATOM     22  C   UNL     1       5.446   3.624  13.472  0.00  0.00    +0.000 A 
ATOM     23  C   UNL     1       6.129   3.576  12.253  0.00  0.00    +0.000 A 
ENDBRANCH  13  21
ENDBRANCH   1  16
TORSDOF 3
ENDMDL
MODEL 7
REMARK VINA RESULT:      -7.7      3.435      8.886
REMARK  Name = 
REMARK  3 active torsions:
REMARK  status: ('A' for Active; 'I' for Inactive)
REMARK    1  A    between atoms: C_4  and  C_5
REMARK    2  A    between atoms: C_8  and  C_9
REMARK    3  A    between atoms: C_12  and  C_13
REMARK                            x       y       z     vdW  Elec       q    Type
REMARK                         _______ _______ _______ _____ _____    ______ ____
ROOT
ATOM      1  C   UNL     1       3.305   6.317  18.188  0.00  0.00    +0.000 A 
ATOM      2  C   UNL     1       2.973   7.584  17.676  0.00  0.00    +0.000 A 
ATOM      3  C   UNL     1       2.220   8.481  18.430  0.00  0.00    +0.000 A 
ATOM      4  C   UNL     1       1.782   8.145  19.720  0.00  0.00    +0.000 A 
ATOM      5  C   UNL     1       2.129   6.885  20.244  0.00  0.00    +0.000 A 
ATOM      6  C   UNL     1       2.879   5.980  19.483  0.00  0.00    +0.000 A 
ENDROOT
BRANCH   4   7
ATOM      7  C   UNL     1       0.958   9.113  20.494  0.00  0.00    +0.000 C 
ATOM      8  N   UNL     1       0.619  10.256  20.029  0.00  0.00    +0.000 NA
ATOM      9  C   UNL     1      -0.211  10.972  20.965  0.00  0.00    +0.000 C 
ATOM     10  C   UNL     1      -0.379  10.006  22.149  0.00  0.00    +0.000 C 
ATOM     11  N   UNL     1       0.421   8.876  21.768  0.00  0.00    +0.000 N 
ATOM     12  H   UNL     1       0.539   8.027  22.336  0.00  0.00    +0.000 HD
ENDBRANCH   4   7
BRANCH   1  16
ATOM     13  C   UNL     1       5.235   4.551  15.761  0.00  0.00    +0.000 A 
ATOM     14  C   UNL     1       5.094   3.526  16.675  0.00  0.00    +0.000 A 
ATOM     15  C   UNL     1       4.381   4.047  17.722  0.00  0.00    +0.000 A 
ATOM     16  C   UNL     1       4.102   5.361  17.384  0.00  0.00    +0.000 A 
ATOM     17  O   UNL     1       4.643   5.638  16.213  0.00  0.00    +0.000 OA
BRANCH  13  21
ATOM     18  C   UNL     1       7.307   4.250  12.025  0.00  0.00    +0.000 A 
ATOM     19  C   UNL     1       6.130   3.529  12.227  0.00  0.00    +0.000 A 
ATOM     20  C   UNL     1       5.459   3.617  13.449  0.00  0.00    +0.000 A 
ATOM     21  C   UNL     1       5.946   4.454  14.471  0.00  0.00    +0.000 A 
ATOM     22  C   UNL     1       7.120   5.191  14.252  0.00  0.00    +0.000 A 
ATOM     23  C   UNL     1       7.806   5.072  13.039  0.00  0.00    +0.000 A 
ENDBRANCH  13  21
ENDBRANCH   1  16
TORSDOF 3
ENDMDL
MODEL 8
REMARK VINA RESULT:      -7.6      3.432      8.879
REMARK  Name = 
REMARK  3 active torsions:
REMARK  status: ('A' for Active; 'I' for Inactive)
REMARK    1  A    between atoms: C_4  and  C_5
REMARK    2  A    between atoms: C_8  and  C_9
REMARK    3  A    between atoms: C_12  and  C_13
REMARK                            x       y       z     vdW  Elec       q    Type
REMARK                         _______ _______ _______ _____ _____    ______ ____
ROOT
ATOM      1  C   UNL     1       3.319   6.401  18.143  0.00  0.00    +0.000 A 
ATOM      2  C   UNL     1       2.971   7.650  17.598  0.00  0.00    +0.000 A 
ATOM      3  C   UNL     1       2.192   8.551  18.322  0.00  0.00    +0.000 A 
ATOM      4  C   UNL     1       1.742   8.235  19.613  0.00  0.00    +0.000 A 
ATOM      5  C   UNL     1       2.104   6.994  20.170  0.00  0.00    +0.000 A 
ATOM      6  C   UNL     1       2.880   6.085  19.440  0.00  0.00    +0.000 A 
ENDROOT
BRANCH   4   7
ATOM      7  C   UNL     1       0.891   9.205  20.353  0.00  0.00    +0.000 C 
ATOM      8  N   UNL     1       0.969   9.364  21.621  0.00  0.00    +0.000 NA
ATOM      9  C   UNL     1       0.065  10.393  22.072  0.00  0.00    +0.000 C 
ATOM     10  C   UNL     1      -0.599  10.913  20.787  0.00  0.00    +0.000 C 
ATOM     11  N   UNL     1      -0.035  10.079  19.763  0.00  0.00    +0.000 N 
ATOM     12  H   UNL     1      -0.261  10.151  18.763  0.00  0.00    +0.000 HD
ENDBRANCH   4   7
BRANCH   1  16
ATOM     13  C   UNL     1       5.287   4.604  15.771  0.00  0.00    +0.000 A 
ATOM     14  C   UNL     1       5.199   3.616  16.732  0.00  0.00    +0.000 A 
ATOM     15  C   UNL     1       4.479   4.156  17.765  0.00  0.00    +0.000 A 
ATOM     16  C   UNL     1       4.143   5.442  17.372  0.00  0.00    +0.000 A 
ATOM     17  O   UNL     1       4.658   5.686  16.182  0.00  0.00    +0.000 OA
BRANCH  13  21
ATOM     18  C   UNL     1       7.305   4.251  12.010  0.00  0.00    +0.000 A 
ATOM     19  C   UNL     1       7.820   5.089  13.000  0.00  0.00    +0.000 A 
ATOM     20  C   UNL     1       7.157   5.214  14.223  0.00  0.00    +0.000 A 
ATOM     21  C   UNL     1       5.986   4.476  14.477  0.00  0.00    +0.000 A 
ATOM     22  C   UNL     1       5.486   3.619  13.484  0.00  0.00    +0.000 A 
ATOM     23  C   UNL     1       6.135   3.525  12.249  0.00  0.00    +0.000 A 
ENDBRANCH  13  21
ENDBRANCH   1  16
TORSDOF 3
ENDMDL
MODEL 9
REMARK VINA RESULT:      -7.6      5.462      9.827
REMARK  Name = 
REMARK  3 active torsions:
REMARK  status: ('A' for Active; 'I' for Inactive)
REMARK    1  A    between atoms: C_4  and  C_5
REMARK    2  A    between atoms: C_8  and  C_9
REMARK    3  A    between atoms: C_12  and  C_13
REMARK                            x       y       z     vdW  Elec       q    Type
REMARK                         _______ _______ _______ _____ _____    ______ ____
ROOT
ATOM      1  C   UNL     1       0.509   9.280  20.980  0.00  0.00    +0.000 A 
ATOM      2  C   UNL     1       0.043  10.449  20.351  0.00  0.00    +0.000 A 
ATOM      3  C   UNL     1      -0.714  11.383  21.054  0.00  0.00    +0.000 A 
ATOM      4  C   UNL     1      -1.024  11.183  22.408  0.00  0.00    +0.000 A 
ATOM      5  C   UNL     1      -0.544  10.024  23.048  0.00  0.00    +0.000 A 
ATOM      6  C   UNL     1       0.211   9.082  22.338  0.00  0.00    +0.000 A 
ENDROOT
BRANCH   4   7
ATOM      7  C   UNL     1      -1.856  12.185  23.129  0.00  0.00    +0.000 C 
ATOM      8  N   UNL     1      -1.442  13.369  23.385  0.00  0.00    +0.000 NA
ATOM      9  C   UNL     1      -2.460  14.142  24.051  0.00  0.00    +0.000 C 
ATOM     10  C   UNL     1      -3.670  13.197  24.134  0.00  0.00    +0.000 C 
ATOM     11  N   UNL     1      -3.177  11.979  23.553  0.00  0.00    +0.000 N 
ATOM     12  H   UNL     1      -3.731  11.120  23.445  0.00  0.00    +0.000 HD
ENDBRANCH   4   7
BRANCH   1  16
ATOM     13  C   UNL     1       2.367   6.482  19.777  0.00  0.00    +0.000 A 
ATOM     14  C   UNL     1       2.572   7.324  18.701  0.00  0.00    +0.000 A 
ATOM     15  C   UNL     1       1.883   8.474  18.983  0.00  0.00    +0.000 A 
ATOM     16  C   UNL     1       1.311   8.285  20.231  0.00  0.00    +0.000 A 
ATOM     17  O   UNL     1       1.603   7.076  20.670  0.00  0.00    +0.000 OA
BRANCH  13  21
ATOM     18  C   UNL     1       3.963   2.529  20.182  0.00  0.00    +0.000 A 
ATOM     19  C   UNL     1       2.792   2.878  20.854  0.00  0.00    +0.000 A 
ATOM     20  C   UNL     1       2.276   4.170  20.732  0.00  0.00    +0.000 A 
ATOM     21  C   UNL     1       2.915   5.118  19.910  0.00  0.00    +0.000 A 
ATOM     22  C   UNL     1       4.081   4.752  19.220  0.00  0.00    +0.000 A 
ATOM     23  C   UNL     1       4.612   3.468  19.374  0.00  0.00    +0.000 A 
ENDBRANCH  13  21
ENDBRANCH   1  16
TORSDOF 3
ENDMDL
