MODEL 1
REMARK VINA RESULT:     -10.5      0.000      0.000
REMARK  Name = 
REMARK  8 active torsions:
REMARK  status: ('A' for Active; 'I' for Inactive)
REMARK    1  A    between atoms: C_1  and  C_2
REMARK    2  A    between atoms: C_9  and  S_10
REMARK    3  A    between atoms: S_10  and  N_13
REMARK    4  A    between atoms: N_13  and  C_14
REMARK    5  A    between atoms: C_14  and  C_15
REMARK    6  A    between atoms: C_14  and  C_22
REMARK    7  A    between atoms: C_15  and  C_16
REMARK    8  A    between atoms: C_27  and  C_28
REMARK                            x       y       z     vdW  Elec       q    Type
REMARK                         _______ _______ _______ _____ _____    ______ ____
ROOT
ATOM      1  C   UNL     1       5.370   4.675  19.089  0.00  0.00    +0.000 C 
ENDROOT
BRANCH   1   2
ATOM      2  C   UNL     1       5.984   5.020  17.691  0.00  0.00    +0.000 C 
ATOM      3  O   UNL     1       6.822   5.925  17.638  0.00  0.00    +0.000 OA
ATOM      4  N   UNL     1       5.541   4.267  16.617  0.00  0.00    +0.000 N 
ATOM      5  C   UNL     1       6.035   4.367  15.305  0.00  0.00    +0.000 A 
ATOM      6  C   UNL     1       5.304   3.762  14.280  0.00  0.00    +0.000 A 
ATOM      7  C   UNL     1       5.771   3.832  12.961  0.00  0.00    +0.000 A 
ATOM      8  C   UNL     1       5.022   3.211  11.818  0.00  0.00    +0.000 C 
ATOM      9  C   UNL     1       6.969   4.501  12.720  0.00  0.00    +0.000 A 
ATOM     10  C   UNL     1       7.637   5.064  13.796  0.00  0.00    +0.000 A 
ATOM     11  N   UNL     1       7.194   5.002  15.068  0.00  0.00    +0.000 NA
ATOM     12  H   UNL     1       4.684   3.742  16.709  0.00  0.00    +0.000 HD
ENDBRANCH   1   2
BRANCH   1  13
ATOM     13  N   UNL     1       4.350   5.728  19.353  0.00  0.00    +0.000 NA
ATOM     14  H   UNL     1       3.912   5.670  20.279  0.00  0.00    +0.000 HD
BRANCH  13  15
ATOM     15  S   UNL     1       3.401   6.426  18.174  0.00  0.00    +0.000 S 
ATOM     16  O   UNL     1       2.586   5.402  17.562  0.00  0.00    +0.000 OA
ATOM     17  O   UNL     1       4.272   7.266  17.382  0.00  0.00    +0.000 OA
BRANCH  15  26
ATOM     18  C   UNL     1      -1.360  11.616  22.637  0.00  0.00    +0.000 C 
ATOM     19  C   UNL     1      -0.522  10.389  22.358  0.00  0.00    +0.000 C 
ATOM     20  O   UNL     1      -0.320   9.570  23.254  0.00  0.00    +0.000 OA
ATOM     21  N   UNL     1      -0.045  10.287  21.063  0.00  0.00    +0.000 N 
ATOM     22  C   UNL     1      -0.171  11.330  20.030  0.00  0.00    +0.000 C 
ATOM     23  C   UNL     1       0.444  10.779  18.740  0.00  0.00    +0.000 C 
ATOM     24  C   UNL     1       1.073   9.513  19.216  0.00  0.00    +0.000 A 
ATOM     25  C   UNL     1       1.866   8.655  18.477  0.00  0.00    +0.000 A 
ATOM     26  C   UNL     1       2.335   7.499  19.103  0.00  0.00    +0.000 A 
ATOM     27  C   UNL     1       1.977   7.189  20.425  0.00  0.00    +0.000 A 
ATOM     28  C   UNL     1       1.168   8.070  21.158  0.00  0.00    +0.000 A 
ATOM     29  C   UNL     1       0.737   9.239  20.545  0.00  0.00    +0.000 A 
ENDBRANCH  15  26
ENDBRANCH  13  15
ENDBRANCH   1  13
BRANCH   1  30
ATOM     30  C   UNL     1       4.822   3.253  19.261  0.00  0.00    +0.000 C 
BRANCH  30  31
ATOM     31  C   UNL     1       3.357   3.070  19.596  0.00  0.00    +0.000 A 
ATOM     32  C   UNL     1       2.760   3.548  20.770  0.00  0.00    +0.000 A 
ATOM     33  C   UNL     1       1.373   3.529  20.920  0.00  0.00    +0.000 A 
ATOM     34  C   UNL     1       0.572   2.980  19.927  0.00  0.00    +0.000 A 
ATOM     35  C   UNL     1       1.156   2.410  18.801  0.00  0.00    +0.000 A 
ATOM     36  C   UNL     1       2.541   2.450  18.638  0.00  0.00    +0.000 A 
ENDBRANCH  30  31
ENDBRANCH   1  30
TORSDOF 6
ENDMDL
MODEL 2
REMARK VINA RESULT:     -10.2      0.975      1.539
REMARK  Name = 
REMARK  8 active torsions:
REMARK  status: ('A' for Active; 'I' for Inactive)
REMARK    1  A    between atoms: C_1  and  C_2
REMARK    2  A    between atoms: C_9  and  S_10
REMARK    3  A    between atoms: S_10  and  N_13
REMARK    4  A    between atoms: N_13  and  C_14
REMARK    5  A    between atoms: C_14  and  C_15
REMARK    6  A    between atoms: C_14  and  C_22
REMARK    7  A    between atoms: C_15  and  C_16
REMARK    8  A    between atoms: C_27  and  C_28
REMARK                            x       y       z     vdW  Elec       q    Type
REMARK                         _______ _______ _______ _____ _____    ______ ____
ROOT
ATOM      1  C   UNL     1       5.387   4.960  19.050  0.00  0.00    +0.000 C 
ENDROOT
BRANCH   1   2
ATOM      2  C   UNL     1       6.041   5.208  17.650  0.00  0.00    +0.000 C 
ATOM      3  O   UNL     1       6.929   6.063  17.572  0.00  0.00    +0.000 OA
ATOM      4  N   UNL     1       5.576   4.431  16.601  0.00  0.00    +0.000 N 
ATOM      5  C   UNL     1       6.096   4.445  15.297  0.00  0.00    +0.000 A 
ATOM      6  C   UNL     1       5.350   3.834  14.286  0.00  0.00    +0.000 A 
ATOM      7  C   UNL     1       5.842   3.819  12.973  0.00  0.00    +0.000 A 
ATOM      8  C   UNL     1       5.079   3.187  11.846  0.00  0.00    +0.000 C 
ATOM      9  C   UNL     1       7.079   4.410  12.726  0.00  0.00    +0.000 A 
ATOM     10  C   UNL     1       7.759   4.985  13.788  0.00  0.00    +0.000 A 
ATOM     11  N   UNL     1       7.292   5.005  15.053  0.00  0.00    +0.000 NA
ATOM     12  H   UNL     1       4.690   3.958  16.701  0.00  0.00    +0.000 HD
ENDBRANCH   1   2
BRANCH   1  13
ATOM     13  N   UNL     1       4.303   5.975  19.173  0.00  0.00    +0.000 NA
ATOM     14  H   UNL     1       3.845   5.995  20.091  0.00  0.00    +0.000 HD
BRANCH  13  15
ATOM     15  S   UNL     1       3.348   6.481  17.905  0.00  0.00    +0.000 S 
ATOM     16  O   UNL     1       2.496   5.387  17.495  0.00  0.00    +0.000 OA
ATOM     17  O   UNL     1       4.222   7.145  16.964  0.00  0.00    +0.000 OA
BRANCH  15  26
ATOM     18  C   UNL     1      -1.696  12.168  21.331  0.00  0.00    +0.000 C 
ATOM     19  C   UNL     1      -0.910  11.486  20.235  0.00  0.00    +0.000 C 
ATOM     20  O   UNL     1      -0.964  11.917  19.084  0.00  0.00    +0.000 OA
ATOM     21  N   UNL     1      -0.159  10.397  20.643  0.00  0.00    +0.000 N 
ATOM     22  C   UNL     1      -0.198   9.798  21.988  0.00  0.00    +0.000 C 
ATOM     23  C   UNL     1       0.824   8.657  22.016  0.00  0.00    +0.000 C 
ATOM     24  C   UNL     1       1.221   8.566  20.581  0.00  0.00    +0.000 A 
ATOM     25  C   UNL     1       2.054   7.620  20.013  0.00  0.00    +0.000 A 
ATOM     26  C   UNL     1       2.327   7.728  18.647  0.00  0.00    +0.000 A 
ATOM     27  C   UNL     1       1.813   8.788  17.883  0.00  0.00    +0.000 A 
ATOM     28  C   UNL     1       0.972   9.740  18.478  0.00  0.00    +0.000 A 
ATOM     29  C   UNL     1       0.671   9.606  19.827  0.00  0.00    +0.000 A 
ENDBRANCH  15  26
ENDBRANCH  13  15
ENDBRANCH   1  13
BRANCH   1  30
ATOM     30  C   UNL     1       4.907   3.532  19.335  0.00  0.00    +0.000 C 
BRANCH  30  31
ATOM     31  C   UNL     1       3.449   3.305  19.675  0.00  0.00    +0.000 A 
ATOM     32  C   UNL     1       2.778   3.966  20.713  0.00  0.00    +0.000 A 
ATOM     33  C   UNL     1       1.393   3.868  20.840  0.00  0.00    +0.000 A 
ATOM     34  C   UNL     1       0.668   3.063  19.970  0.00  0.00    +0.000 A 
ATOM     35  C   UNL     1       1.331   2.322  18.997  0.00  0.00    +0.000 A 
ATOM     36  C   UNL     1       2.714   2.438  18.853  0.00  0.00    +0.000 A 
ENDBRANCH  30  31
ENDBRANCH   1  30
TORSDOF 6
ENDMDL
MODEL 3
REMARK VINA RESULT:      -9.5      3.093      6.686
REMARK  Name = 
REMARK  8 active torsions:
REMARK  status: ('A' for Active; 'I' for Inactive)
REMARK    1  A    between atoms: C_1  and  C_2
REMARK    2  A    between atoms: C_9  and  S_10
REMARK    3  A    between atoms: S_10  and  N_13
REMARK    4  A    between atoms: N_13  and  C_14
REMARK    5  A    between atoms: C_14  and  C_15
REMARK    6  A    between atoms: C_14  and  C_22
REMARK    7  A    between atoms: C_15  and  C_16
REMARK    8  A    between atoms: C_27  and  C_28
REMARK                            x       y       z     vdW  Elec       q    Type
REMARK                         _______ _______ _______ _____ _____    ______ ____
ROOT
ATOM      1  C   UNL     1       0.652   9.686  19.158  0.00  0.00    +0.000 C 
ENDROOT
BRANCH   1   2
ATOM      2  C   UNL     1       1.738   8.946  18.308  0.00  0.00    +0.000 C 
ATOM      3  O   UNL     1       2.325   9.591  17.434  0.00  0.00    +0.000 OA
ATOM      4  N   UNL     1       1.964   7.614  18.614  0.00  0.00    +0.000 N 
ATOM      5  C   UNL     1       2.953   6.809  18.026  0.00  0.00    +0.000 A 
ATOM      6  C   UNL     1       2.876   5.427  18.219  0.00  0.00    +0.000 A 
ATOM      7  C   UNL     1       3.851   4.593  17.655  0.00  0.00    +0.000 A 
ATOM      8  C   UNL     1       3.812   3.102  17.819  0.00  0.00    +0.000 C 
ATOM      9  C   UNL     1       4.881   5.182  16.926  0.00  0.00    +0.000 A 
ATOM     10  C   UNL     1       4.889   6.562  16.792  0.00  0.00    +0.000 A 
ATOM     11  N   UNL     1       3.955   7.371  17.330  0.00  0.00    +0.000 NA
ATOM     12  H   UNL     1       1.270   7.112  19.150  0.00  0.00    +0.000 HD
ENDBRANCH   1   2
BRANCH   1  13
ATOM     13  N   UNL     1       1.285   9.944  20.482  0.00  0.00    +0.000 NA
ATOM     14  H   UNL     1       2.305   9.836  20.491  0.00  0.00    +0.000 HD
BRANCH  13  15
ATOM     15  S   UNL     1       0.539   9.661  21.945  0.00  0.00    +0.000 S 
ATOM     16  O   UNL     1       1.550   9.562  22.974  0.00  0.00    +0.000 OA
ATOM     17  O   UNL     1      -0.417   8.598  21.727  0.00  0.00    +0.000 OA
BRANCH  15  26
ATOM     18  C   UNL     1      -3.952  16.610  22.975  0.00  0.00    +0.000 C 
ATOM     19  C   UNL     1      -2.809  15.753  22.481  0.00  0.00    +0.000 C 
ATOM     20  O   UNL     1      -1.936  16.248  21.770  0.00  0.00    +0.000 OA
ATOM     21  N   UNL     1      -2.843  14.434  22.901  0.00  0.00    +0.000 N 
ATOM     22  C   UNL     1      -3.955  13.808  23.637  0.00  0.00    +0.000 C 
ATOM     23  C   UNL     1      -3.551  12.363  23.942  0.00  0.00    +0.000 C 
ATOM     24  C   UNL     1      -2.295  12.221  23.151  0.00  0.00    +0.000 A 
ATOM     25  C   UNL     1      -1.553  11.068  22.977  0.00  0.00    +0.000 A 
ATOM     26  C   UNL     1      -0.383  11.153  22.218  0.00  0.00    +0.000 A 
ATOM     27  C   UNL     1       0.054  12.378  21.689  0.00  0.00    +0.000 A 
ATOM     28  C   UNL     1      -0.710  13.538  21.879  0.00  0.00    +0.000 A 
ATOM     29  C   UNL     1      -1.893  13.441  22.599  0.00  0.00    +0.000 A 
ENDBRANCH  15  26
ENDBRANCH  13  15
ENDBRANCH   1  13
BRANCH   1  30
ATOM     30  C   UNL     1       0.036  10.943  18.532  0.00  0.00    +0.000 C 
BRANCH  30  31
ATOM     31  C   UNL     1      -1.422  10.916  18.124  0.00  0.00    +0.000 A 
ATOM     32  C   UNL     1      -1.948  10.037  17.167  0.00  0.00    +0.000 A 
ATOM     33  C   UNL     1      -3.327   9.922  16.988  0.00  0.00    +0.000 A 
ATOM     34  C   UNL     1      -4.193  10.723  17.722  0.00  0.00    +0.000 A 
ATOM     35  C   UNL     1      -3.683  11.670  18.603  0.00  0.00    +0.000 A 
ATOM     36  C   UNL     1      -2.306  11.770  18.800  0.00  0.00    +0.000 A 
ENDBRANCH  30  31
ENDBRANCH   1  30
TORSDOF 6
ENDMDL
MODEL 4
REMARK VINA RESULT:      -9.5      3.684      7.446
REMARK  Name = 
REMARK  8 active torsions:
REMARK  status: ('A' for Active; 'I' for Inactive)
REMARK    1  A    between atoms: C_1  and  C_2
REMARK    2  A    between atoms: C_9  and  S_10
REMARK    3  A    between atoms: S_10  and  N_13
REMARK    4  A    between atoms: N_13  and  C_14
REMARK    5  A    between atoms: C_14  and  C_15
REMARK    6  A    between atoms: C_14  and  C_22
REMARK    7  A    between atoms: C_15  and  C_16
REMARK    8  A    between atoms: C_27  and  C_28
REMARK                            x       y       z     vdW  Elec       q    Type
REMARK                         _______ _______ _______ _____ _____    ______ ____
ROOT
ATOM      1  C   UNL     1       0.222  10.770  20.099  0.00  0.00    +0.000 C 
ENDROOT
BRANCH   1   2
ATOM      2  C   UNL     1       1.002   9.417  20.199  0.00  0.00    +0.000 C 
ATOM      3  O   UNL     1       0.971   8.812  21.275  0.00  0.00    +0.000 OA
ATOM      4  N   UNL     1       1.661   8.995  19.056  0.00  0.00    +0.000 N 
ATOM      5  C   UNL     1       2.338   7.771  18.922  0.00  0.00    +0.000 A 
ATOM      6  C   UNL     1       3.191   7.609  17.828  0.00  0.00    +0.000 A 
ATOM      7  C   UNL     1       3.876   6.398  17.656  0.00  0.00    +0.000 A 
ATOM      8  C   UNL     1       4.813   6.172  16.506  0.00  0.00    +0.000 C 
ATOM      9  C   UNL     1       3.666   5.384  18.588  0.00  0.00    +0.000 A 
ATOM     10  C   UNL     1       2.794   5.624  19.638  0.00  0.00    +0.000 A 
ATOM     11  N   UNL     1       2.133   6.786  19.812  0.00  0.00    +0.000 NA
ATOM     12  H   UNL     1       1.845   9.665  18.324  0.00  0.00    +0.000 HD
ENDBRANCH   1   2
BRANCH   1  13
ATOM     13  N   UNL     1       1.054  11.768  20.828  0.00  0.00    +0.000 NA
ATOM     14  H   UNL     1       1.628  11.371  21.581  0.00  0.00    +0.000 HD
BRANCH  13  15
ATOM     15  S   UNL     1       0.623  13.364  21.047  0.00  0.00    +0.000 S 
ATOM     16  O   UNL     1       0.587  14.019  19.759  0.00  0.00    +0.000 OA
ATOM     17  O   UNL     1       1.440  13.872  22.126  0.00  0.00    +0.000 OA
BRANCH  15  26
ATOM     18  C   UNL     1      -7.137  13.057  24.082  0.00  0.00    +0.000 C 
ATOM     19  C   UNL     1      -5.661  12.741  24.002  0.00  0.00    +0.000 C 
ATOM     20  O   UNL     1      -5.144  12.016  24.851  0.00  0.00    +0.000 OA
ATOM     21  N   UNL     1      -4.997  13.311  22.930  0.00  0.00    +0.000 N 
ATOM     22  C   UNL     1      -5.582  14.286  21.992  0.00  0.00    +0.000 C 
ATOM     23  C   UNL     1      -4.520  14.608  20.938  0.00  0.00    +0.000 C 
ATOM     24  C   UNL     1      -3.316  13.929  21.497  0.00  0.00    +0.000 A 
ATOM     25  C   UNL     1      -2.029  13.984  20.996  0.00  0.00    +0.000 A 
ATOM     26  C   UNL     1      -1.041  13.248  21.654  0.00  0.00    +0.000 A 
ATOM     27  C   UNL     1      -1.350  12.439  22.759  0.00  0.00    +0.000 A 
ATOM     28  C   UNL     1      -2.663  12.393  23.251  0.00  0.00    +0.000 A 
ATOM     29  C   UNL     1      -3.633  13.159  22.619  0.00  0.00    +0.000 A 
ENDBRANCH  15  26
ENDBRANCH  13  15
ENDBRANCH   1  13
BRANCH   1  30
ATOM     30  C   UNL     1      -0.168  11.230  18.690  0.00  0.00    +0.000 C 
BRANCH  30  31
ATOM     31  C   UNL     1      -1.569  10.944  18.190  0.00  0.00    +0.000 A 
ATOM     32  C   UNL     1      -2.715  11.596  18.666  0.00  0.00    +0.000 A 
ATOM     33  C   UNL     1      -3.942  11.437  18.022  0.00  0.00    +0.000 A 
ATOM     34  C   UNL     1      -4.051  10.582  16.932  0.00  0.00    +0.000 A 
ATOM     35  C   UNL     1      -2.946   9.852  16.510  0.00  0.00    +0.000 A 
ATOM     36  C   UNL     1      -1.712  10.027  17.138  0.00  0.00    +0.000 A 
ENDBRANCH  30  31
ENDBRANCH   1  30
TORSDOF 6
ENDMDL
MODEL 5
REMARK VINA RESULT:      -9.3      3.102      6.605
REMARK  Name = 
REMARK  8 active torsions:
REMARK  status: ('A' for Active; 'I' for Inactive)
REMARK    1  A    between atoms: C_1  and  C_2
REMARK    2  A    between atoms: C_9  and  S_10
REMARK    3  A    between atoms: S_10  and  N_13
REMARK    4  A    between atoms: N_13  and  C_14
REMARK    5  A    between atoms: C_14  and  C_15
REMARK    6  A    between atoms: C_14  and  C_22
REMARK    7  A    between atoms: C_15  and  C_16
REMARK    8  A    between atoms: C_27  and  C_28
REMARK                            x       y       z     vdW  Elec       q    Type
REMARK                         _______ _______ _______ _____ _____    ______ ____
ROOT
ATOM      1  C   UNL     1       0.592   9.714  19.186  0.00  0.00    +0.000 C 
ENDROOT
BRANCH   1   2
ATOM      2  C   UNL     1       1.683   8.954  18.360  0.00  0.00    +0.000 C 
ATOM      3  O   UNL     1       2.304   9.589  17.502  0.00  0.00    +0.000 OA
ATOM      4  N   UNL     1       1.875   7.617  18.670  0.00  0.00    +0.000 N 
ATOM      5  C   UNL     1       2.862   6.794  18.103  0.00  0.00    +0.000 A 
ATOM      6  C   UNL     1       2.753   5.413  18.291  0.00  0.00    +0.000 A 
ATOM      7  C   UNL     1       3.724   4.561  17.749  0.00  0.00    +0.000 A 
ATOM      8  C   UNL     1       3.652   3.070  17.909  0.00  0.00    +0.000 C 
ATOM      9  C   UNL     1       4.783   5.130  17.046  0.00  0.00    +0.000 A 
ATOM     10  C   UNL     1       4.822   6.510  16.915  0.00  0.00    +0.000 A 
ATOM     11  N   UNL     1       3.891   7.337  17.432  0.00  0.00    +0.000 NA
ATOM     12  H   UNL     1       1.160   7.128  19.187  0.00  0.00    +0.000 HD
ENDBRANCH   1   2
BRANCH   1  13
ATOM     13  N   UNL     1       1.216  10.003  20.508  0.00  0.00    +0.000 NA
ATOM     14  H   UNL     1       2.241   9.945  20.513  0.00  0.00    +0.000 HD
BRANCH  13  15
ATOM     15  S   UNL     1       0.492   9.682  21.974  0.00  0.00    +0.000 S 
ATOM     16  O   UNL     1       1.513   9.612  22.995  0.00  0.00    +0.000 OA
ATOM     17  O   UNL     1      -0.427   8.587  21.754  0.00  0.00    +0.000 OA
BRANCH  15  26
ATOM     18  C   UNL     1      -3.905  16.580  23.587  0.00  0.00    +0.000 C 
ATOM     19  C   UNL     1      -3.538  15.115  23.660  0.00  0.00    +0.000 C 
ATOM     20  O   UNL     1      -4.196  14.354  24.368  0.00  0.00    +0.000 OA
ATOM     21  N   UNL     1      -2.454  14.744  22.884  0.00  0.00    +0.000 N 
ATOM     22  C   UNL     1      -1.583  15.674  22.144  0.00  0.00    +0.000 C 
ATOM     23  C   UNL     1      -0.552  14.837  21.383  0.00  0.00    +0.000 C 
ATOM     24  C   UNL     1      -0.798  13.473  21.934  0.00  0.00    +0.000 A 
ATOM     25  C   UNL     1      -0.066  12.330  21.669  0.00  0.00    +0.000 A 
ATOM     26  C   UNL     1      -0.481  11.137  22.265  0.00  0.00    +0.000 A 
ATOM     27  C   UNL     1      -1.632  11.086  23.068  0.00  0.00    +0.000 A 
ATOM     28  C   UNL     1      -2.364  12.255  23.322  0.00  0.00    +0.000 A 
ATOM     29  C   UNL     1      -1.924  13.446  22.761  0.00  0.00    +0.000 A 
ENDBRANCH  15  26
ENDBRANCH  13  15
ENDBRANCH   1  13
BRANCH   1  30
ATOM     30  C   UNL     1      -0.020  10.956  18.527  0.00  0.00    +0.000 C 
BRANCH  30  31
ATOM     31  C   UNL     1      -1.469  10.913  18.091  0.00  0.00    +0.000 A 
ATOM     32  C   UNL     1      -1.963  10.039  17.112  0.00  0.00    +0.000 A 
ATOM     33  C   UNL     1      -3.336   9.906  16.906  0.00  0.00    +0.000 A 
ATOM     34  C   UNL     1      -4.229  10.684  17.634  0.00  0.00    +0.000 A 
ATOM     35  C   UNL     1      -3.750  11.626  18.537  0.00  0.00    +0.000 A 
ATOM     36  C   UNL     1      -2.378  11.744  18.762  0.00  0.00    +0.000 A 
ENDBRANCH  30  31
ENDBRANCH   1  30
TORSDOF 6
ENDMDL
MODEL 6
REMARK VINA RESULT:      -9.2      3.294      5.587
REMARK  Name = 
REMARK  8 active torsions:
REMARK  status: ('A' for Active; 'I' for Inactive)
REMARK    1  A    between atoms: C_1  and  C_2
REMARK    2  A    between atoms: C_9  and  S_10
REMARK    3  A    between atoms: S_10  and  N_13
REMARK    4  A    between atoms: N_13  and  C_14
REMARK    5  A    between atoms: C_14  and  C_15
REMARK    6  A    between atoms: C_14  and  C_22
REMARK    7  A    between atoms: C_15  and  C_16
REMARK    8  A    between atoms: C_27  and  C_28
REMARK                            x       y       z     vdW  Elec       q    Type
REMARK                         _______ _______ _______ _____ _____    ______ ____
ROOT
ATOM      1  C   UNL     1       6.825   5.911  16.703  0.00  0.00    +0.000 C 
ENDROOT
BRANCH   1   2
ATOM      2  C   UNL     1       7.443   6.951  17.697  0.00  0.00    +0.000 C 
ATOM      3  O   UNL     1       7.755   6.556  18.825  0.00  0.00    +0.000 OA
ATOM      4  N   UNL     1       7.605   8.242  17.222  0.00  0.00    +0.000 N 
ATOM      5  C   UNL     1       8.219   9.289  17.929  0.00  0.00    +0.000 A 
ATOM      6  C   UNL     1       8.053  10.591  17.450  0.00  0.00    +0.000 A 
ATOM      7  C   UNL     1       8.658  11.660  18.124  0.00  0.00    +0.000 A 
ATOM      8  C   UNL     1       8.505  13.080  17.662  0.00  0.00    +0.000 C 
ATOM      9  C   UNL     1       9.425  11.379  19.252  0.00  0.00    +0.000 A 
ATOM     10  C   UNL     1       9.548  10.058  19.654  0.00  0.00    +0.000 A 
ATOM     11  N   UNL     1       8.967   9.024  19.012  0.00  0.00    +0.000 NA
ATOM     12  H   UNL     1       7.093   8.527  16.400  0.00  0.00    +0.000 HD
ENDBRANCH   1   2
BRANCH   1  13
ATOM     13  N   UNL     1       5.349   6.046  16.846  0.00  0.00    +0.000 NA
ATOM     14  H   UNL     1       4.992   6.993  16.679  0.00  0.00    +0.000 HD
BRANCH  13  15
ATOM     15  S   UNL     1       4.422   5.124  17.881  0.00  0.00    +0.000 S 
ATOM     16  O   UNL     1       5.266   4.616  18.938  0.00  0.00    +0.000 OA
ATOM     17  O   UNL     1       3.634   4.236  17.055  0.00  0.00    +0.000 OA
BRANCH  15  26
ATOM     18  C   UNL     1      -0.564  10.847  21.331  0.00  0.00    +0.000 C 
ATOM     19  C   UNL     1       0.200   9.546  21.230  0.00  0.00    +0.000 C 
ATOM     20  O   UNL     1       0.173   8.748  22.166  0.00  0.00    +0.000 OA
ATOM     21  N   UNL     1       0.880   9.358  20.040  0.00  0.00    +0.000 N 
ATOM     22  C   UNL     1       1.024  10.368  18.977  0.00  0.00    +0.000 C 
ATOM     23  C   UNL     1       1.800   9.722  17.827  0.00  0.00    +0.000 C 
ATOM     24  C   UNL     1       2.226   8.427  18.433  0.00  0.00    +0.000 A 
ATOM     25  C   UNL     1       3.056   7.480  17.862  0.00  0.00    +0.000 A 
ATOM     26  C   UNL     1       3.310   6.314  18.586  0.00  0.00    +0.000 A 
ATOM     27  C   UNL     1       2.705   6.084  19.833  0.00  0.00    +0.000 A 
ATOM     28  C   UNL     1       1.862   7.054  20.394  0.00  0.00    +0.000 A 
ATOM     29  C   UNL     1       1.646   8.231  19.689  0.00  0.00    +0.000 A 
ENDBRANCH  15  26
ENDBRANCH  13  15
ENDBRANCH   1  13
BRANCH   1  30
ATOM     30  C   UNL     1       7.298   5.995  15.247  0.00  0.00    +0.000 C 
BRANCH  30  31
ATOM     31  C   UNL     1       6.816   4.951  14.261  0.00  0.00    +0.000 A 
ATOM     32  C   UNL     1       5.632   4.218  14.418  0.00  0.00    +0.000 A 
ATOM     33  C   UNL     1       5.142   3.427  13.379  0.00  0.00    +0.000 A 
ATOM     34  C   UNL     1       5.858   3.314  12.193  0.00  0.00    +0.000 A 
ATOM     35  C   UNL     1       7.084   3.956  12.059  0.00  0.00    +0.000 A 
ATOM     36  C   UNL     1       7.564   4.766  13.089  0.00  0.00    +0.000 A 
ENDBRANCH  30  31
ENDBRANCH   1  30
TORSDOF 6
ENDMDL
MODEL 7
REMARK VINA RESULT:      -9.2      3.111      6.783
REMARK  Name = 
REMARK  8 active torsions:
REMARK  status: ('A' for Active; 'I' for Inactive)
REMARK    1  A    between atoms: C_1  and  C_2
REMARK    2  A    between atoms: C_9  and  S_10
REMARK    3  A    between atoms: S_10  and  N_13
REMARK    4  A    between atoms: N_13  and  C_14
REMARK    5  A    between atoms: C_14  and  C_15
REMARK    6  A    between atoms: C_14  and  C_22
REMARK    7  A    between atoms: C_15  and  C_16
REMARK    8  A    between atoms: C_27  and  C_28
REMARK                            x       y       z     vdW  Elec       q    Type
REMARK                         _______ _______ _______ _____ _____    ______ ____
ROOT
ATOM      1  C   UNL     1       0.616   9.107  19.954  0.00  0.00    +0.000 C 
ENDROOT
BRANCH   1   2
ATOM      2  C   UNL     1       1.698   7.978  19.890  0.00  0.00    +0.000 C 
ATOM      3  O   UNL     1       1.955   7.365  20.931  0.00  0.00    +0.000 OA
ATOM      4  N   UNL     1       2.278   7.744  18.654  0.00  0.00    +0.000 N 
ATOM      5  C   UNL     1       3.199   6.720  18.377  0.00  0.00    +0.000 A 
ATOM      6  C   UNL     1       3.912   6.784  17.177  0.00  0.00    +0.000 A 
ATOM      7  C   UNL     1       4.832   5.775  16.863  0.00  0.00    +0.000 A 
ATOM      8  C   UNL     1       5.634   5.798  15.594  0.00  0.00    +0.000 C 
ATOM      9  C   UNL     1       4.994   4.725  17.764  0.00  0.00    +0.000 A 
ATOM     10  C   UNL     1       4.239   4.733  18.926  0.00  0.00    +0.000 A 
ATOM     11  N   UNL     1       3.353   5.700  19.237  0.00  0.00    +0.000 NA
ATOM     12  H   UNL     1       2.200   8.450  17.937  0.00  0.00    +0.000 HD
ENDBRANCH   1   2
BRANCH   1  13
ATOM     13  N   UNL     1       0.914   9.879  21.193  0.00  0.00    +0.000 NA
ATOM     14  H   UNL     1       1.904  10.119  21.314  0.00  0.00    +0.000 HD
BRANCH  13  15
ATOM     15  S   UNL     1       0.051   9.737  22.612  0.00  0.00    +0.000 S 
ATOM     16  O   UNL     1       0.977   9.707  23.722  0.00  0.00    +0.000 OA
ATOM     17  O   UNL     1      -0.913   8.679  22.409  0.00  0.00    +0.000 OA
BRANCH  15  26
ATOM     18  C   UNL     1      -4.318  16.838  22.696  0.00  0.00    +0.000 C 
ATOM     19  C   UNL     1      -3.160  15.921  22.375  0.00  0.00    +0.000 C 
ATOM     20  O   UNL     1      -2.214  16.340  21.711  0.00  0.00    +0.000 OA
ATOM     21  N   UNL     1      -3.268  14.640  22.889  0.00  0.00    +0.000 N 
ATOM     22  C   UNL     1      -4.458  14.097  23.568  0.00  0.00    +0.000 C 
ATOM     23  C   UNL     1      -4.123  12.672  24.017  0.00  0.00    +0.000 C 
ATOM     24  C   UNL     1      -2.806  12.443  23.356  0.00  0.00    +0.000 A 
ATOM     25  C   UNL     1      -2.084  11.264  23.339  0.00  0.00    +0.000 A 
ATOM     26  C   UNL     1      -0.850  11.265  22.686  0.00  0.00    +0.000 A 
ATOM     27  C   UNL     1      -0.333  12.435  22.106  0.00  0.00    +0.000 A 
ATOM     28  C   UNL     1      -1.078  13.622  22.137  0.00  0.00    +0.000 A 
ATOM     29  C   UNL     1      -2.323  13.606  22.752  0.00  0.00    +0.000 A 
ENDBRANCH  15  26
ENDBRANCH  13  15
ENDBRANCH   1  13
BRANCH   1  30
ATOM     30  C   UNL     1       0.483   9.995  18.711  0.00  0.00    +0.000 C 
BRANCH  30  31
ATOM     31  C   UNL     1      -0.899  10.426  18.266  0.00  0.00    +0.000 A 
ATOM     32  C   UNL     1      -1.607   9.815  17.221  0.00  0.00    +0.000 A 
ATOM     33  C   UNL     1      -2.950  10.121  16.999  0.00  0.00    +0.000 A 
ATOM     34  C   UNL     1      -3.584  11.081  17.778  0.00  0.00    +0.000 A 
ATOM     35  C   UNL     1      -2.867  11.767  18.753  0.00  0.00    +0.000 A 
ATOM     36  C   UNL     1      -1.531  11.446  18.992  0.00  0.00    +0.000 A 
ENDBRANCH  30  31
ENDBRANCH   1  30
TORSDOF 6
ENDMDL
MODEL 8
REMARK VINA RESULT:      -9.1      3.105     10.279
REMARK  Name = 
REMARK  8 active torsions:
REMARK  status: ('A' for Active; 'I' for Inactive)
REMARK    1  A    between atoms: C_1  and  C_2
REMARK    2  A    between atoms: C_9  and  S_10
REMARK    3  A    between atoms: S_10  and  N_13
REMARK    4  A    between atoms: N_13  and  C_14
REMARK    5  A    between atoms: C_14  and  C_15
REMARK    6  A    between atoms: C_14  and  C_22
REMARK    7  A    between atoms: C_15  and  C_16
REMARK    8  A    between atoms: C_27  and  C_28
REMARK                            x       y       z     vdW  Elec       q    Type
REMARK                         _______ _______ _______ _____ _____    ______ ____
ROOT
ATOM      1  C   UNL     1      -0.152  10.858  19.315  0.00  0.00    +0.000 C 
ENDROOT
BRANCH   1   2
ATOM      2  C   UNL     1      -0.540  11.986  20.330  0.00  0.00    +0.000 C 
ATOM      3  O   UNL     1       0.116  13.032  20.307  0.00  0.00    +0.000 OA
ATOM      4  N   UNL     1      -1.606  11.721  21.173  0.00  0.00    +0.000 N 
ATOM      5  C   UNL     1      -2.157  12.635  22.086  0.00  0.00    +0.000 A 
ATOM      6  C   UNL     1      -3.027  12.145  23.063  0.00  0.00    +0.000 A 
ATOM      7  C   UNL     1      -3.603  13.029  23.986  0.00  0.00    +0.000 A 
ATOM      8  C   UNL     1      -4.535  12.557  25.063  0.00  0.00    +0.000 C 
ATOM      9  C   UNL     1      -3.293  14.383  23.884  0.00  0.00    +0.000 A 
ATOM     10  C   UNL     1      -2.429  14.787  22.878  0.00  0.00    +0.000 A 
ATOM     11  N   UNL     1      -1.869  13.943  21.988  0.00  0.00    +0.000 NA
ATOM     12  H   UNL     1      -1.904  10.765  21.297  0.00  0.00    +0.000 HD
ENDBRANCH   1   2
BRANCH   1  13
ATOM     13  N   UNL     1       1.060  10.206  19.882  0.00  0.00    +0.000 NA
ATOM     14  H   UNL     1       1.814  10.050  19.203  0.00  0.00    +0.000 HD
BRANCH  13  15
ATOM     15  S   UNL     1       1.034   9.128  21.153  0.00  0.00    +0.000 S 
ATOM     16  O   UNL     1      -0.332   8.962  21.597  0.00  0.00    +0.000 OA
ATOM     17  O   UNL     1       2.077   9.537  22.068  0.00  0.00    +0.000 OA
BRANCH  15  26
ATOM     18  C   UNL     1       3.764   2.017  17.762  0.00  0.00    +0.000 C 
ATOM     19  C   UNL     1       3.537   3.507  17.875  0.00  0.00    +0.000 C 
ATOM     20  O   UNL     1       3.991   4.262  17.016  0.00  0.00    +0.000 OA
ATOM     21  N   UNL     1       2.797   3.905  18.976  0.00  0.00    +0.000 N 
ATOM     22  C   UNL     1       2.369   3.021  20.074  0.00  0.00    +0.000 C 
ATOM     23  C   UNL     1       1.535   3.860  21.045  0.00  0.00    +0.000 C 
ATOM     24  C   UNL     1       1.738   5.238  20.512  0.00  0.00    +0.000 A 
ATOM     25  C   UNL     1       1.288   6.418  21.077  0.00  0.00    +0.000 A 
ATOM     26  C   UNL     1       1.558   7.609  20.400  0.00  0.00    +0.000 A 
ATOM     27  C   UNL     1       2.222   7.610  19.162  0.00  0.00    +0.000 A 
ATOM     28  C   UNL     1       2.667   6.403  18.603  0.00  0.00    +0.000 A 
ATOM     29  C   UNL     1       2.432   5.225  19.299  0.00  0.00    +0.000 A 
ENDBRANCH  15  26
ENDBRANCH  13  15
ENDBRANCH   1  13
BRANCH   1  30
ATOM     30  C   UNL     1      -1.257   9.860  18.951  0.00  0.00    +0.000 C 
BRANCH  30  31
ATOM     31  C   UNL     1      -2.255  10.234  17.876  0.00  0.00    +0.000 A 
ATOM     32  C   UNL     1      -3.383  11.035  18.104  0.00  0.00    +0.000 A 
ATOM     33  C   UNL     1      -4.144  11.512  17.037  0.00  0.00    +0.000 A 
ATOM     34  C   UNL     1      -3.823  11.148  15.734  0.00  0.00    +0.000 A 
ATOM     35  C   UNL     1      -2.768  10.274  15.499  0.00  0.00    +0.000 A 
ATOM     36  C   UNL     1      -1.991   9.815  16.564  0.00  0.00    +0.000 A 
ENDBRANCH  30  31
ENDBRANCH   1  30
TORSDOF 6
ENDMDL
MODEL 9
REMARK VINA RESULT:      -9.1      2.735     10.487
REMARK  Name = 
REMARK  8 active torsions:
REMARK  status: ('A' for Active; 'I' for Inactive)
REMARK    1  A    between atoms: C_1  and  C_2
REMARK    2  A    between atoms: C_9  and  S_10
REMARK    3  A    between atoms: S_10  and  N_13
REMARK    4  A    between atoms: N_13  and  C_14
REMARK    5  A    between atoms: C_14  and  C_15
REMARK    6  A    between atoms: C_14  and  C_22
REMARK    7  A    between atoms: C_15  and  C_16
REMARK    8  A    between atoms: C_27  and  C_28
REMARK                            x       y       z     vdW  Elec       q    Type
REMARK                         _______ _______ _______ _____ _____    ______ ____
ROOT
ATOM      1  C   UNL     1       0.134  11.385  20.302  0.00  0.00    +0.000 C 
ENDROOT
BRANCH   1   2
ATOM      2  C   UNL     1      -0.479  12.298  21.416  0.00  0.00    +0.000 C 
ATOM      3  O   UNL     1       0.281  13.065  22.017  0.00  0.00    +0.000 OA
ATOM      4  N   UNL     1      -1.842  12.181  21.633  0.00  0.00    +0.000 N 
ATOM      5  C   UNL     1      -2.586  12.974  22.523  0.00  0.00    +0.000 A 
ATOM      6  C   UNL     1      -3.879  12.556  22.850  0.00  0.00    +0.000 A 
ATOM      7  C   UNL     1      -4.655  13.326  23.727  0.00  0.00    +0.000 A 
ATOM      8  C   UNL     1      -6.044  12.920  24.123  0.00  0.00    +0.000 C 
ATOM      9  C   UNL     1      -4.106  14.501  24.236  0.00  0.00    +0.000 A 
ATOM     10  C   UNL     1      -2.820  14.848  23.851  0.00  0.00    +0.000 A 
ATOM     11  N   UNL     1      -2.066  14.112  23.010  0.00  0.00    +0.000 NA
ATOM     12  H   UNL     1      -2.322  11.364  21.288  0.00  0.00    +0.000 HD
ENDBRANCH   1   2
BRANCH   1  13
ATOM     13  N   UNL     1      -0.364  10.011  20.588  0.00  0.00    +0.000 NA
ATOM     14  H   UNL     1      -1.385   9.912  20.537  0.00  0.00    +0.000 HD
BRANCH  13  15
ATOM     15  S   UNL     1       0.390   8.938  21.617  0.00  0.00    +0.000 S 
ATOM     16  O   UNL     1      -0.613   8.107  22.244  0.00  0.00    +0.000 OA
ATOM     17  O   UNL     1       1.328   9.707  22.405  0.00  0.00    +0.000 OA
BRANCH  15  26
ATOM     18  C   UNL     1       5.089   4.244  16.577  0.00  0.00    +0.000 C 
ATOM     19  C   UNL     1       4.390   5.494  17.064  0.00  0.00    +0.000 C 
ATOM     20  O   UNL     1       4.512   6.546  16.439  0.00  0.00    +0.000 OA
ATOM     21  N   UNL     1       3.634   5.331  18.212  0.00  0.00    +0.000 N 
ATOM     22  C   UNL     1       3.596   4.111  19.036  0.00  0.00    +0.000 C 
ATOM     23  C   UNL     1       2.597   4.350  20.171  0.00  0.00    +0.000 C 
ATOM     24  C   UNL     1       2.297   5.803  20.014  0.00  0.00    +0.000 A 
ATOM     25  C   UNL     1       1.521   6.582  20.853  0.00  0.00    +0.000 A 
ATOM     26  C   UNL     1       1.336   7.923  20.511  0.00  0.00    +0.000 A 
ATOM     27  C   UNL     1       1.879   8.456  19.331  0.00  0.00    +0.000 A 
ATOM     28  C   UNL     1       2.661   7.649  18.491  0.00  0.00    +0.000 A 
ATOM     29  C   UNL     1       2.875   6.327  18.855  0.00  0.00    +0.000 A 
ENDBRANCH  15  26
ENDBRANCH  13  15
ENDBRANCH   1  13
BRANCH   1  30
ATOM     30  C   UNL     1      -0.108  11.822  18.853  0.00  0.00    +0.000 C 
BRANCH  30  31
ATOM     31  C   UNL     1      -1.336  11.310  18.131  0.00  0.00    +0.000 A 
ATOM     32  C   UNL     1      -1.340  10.176  17.307  0.00  0.00    +0.000 A 
ATOM     33  C   UNL     1      -2.541   9.640  16.841  0.00  0.00    +0.000 A 
ATOM     34  C   UNL     1      -3.746  10.263  17.143  0.00  0.00    +0.000 A 
ATOM     35  C   UNL     1      -3.750  11.445  17.875  0.00  0.00    +0.000 A 
ATOM     36  C   UNL     1      -2.553  11.969  18.362  0.00  0.00    +0.000 A 
ENDBRANCH  30  31
ENDBRANCH   1  30
TORSDOF 6
ENDMDL
