MODEL 1
REMARK VINA RESULT:      -6.8      0.000      0.000
REMARK  Name = 
REMARK  7 active torsions:
REMARK  status: ('A' for Active; 'I' for Inactive)
REMARK    1  A    between atoms: C_1  and  C_2
REMARK    2  A    between atoms: C_2  and  C_3
REMARK    3  A    between atoms: C_2  and  S_4
REMARK    4  A    between atoms: S_4  and  C_7
REMARK    5  A    between atoms: C_10  and  C_11
REMARK    6  A    between atoms: N_13  and  C_14
REMARK    7  A    between atoms: C_21  and  N_22
REMARK                            x       y       z     vdW  Elec       q    Type
REMARK                         _______ _______ _______ _____ _____    ______ ____
ROOT
ATOM      1  C   UNL     1       3.931   5.602  18.324  0.00  0.00    +0.000 A 
ATOM      2  C   UNL     1       3.825   6.679  17.469  0.00  0.00    +0.000 A 
ATOM      3  S   UNL     1       2.770   7.871  18.068  0.00  0.00    +0.000 S 
ATOM      4  C   UNL     1       2.453   6.978  19.507  0.00  0.00    +0.000 A 
ATOM      5  C   UNL     1       3.150   5.781  19.516  0.00  0.00    +0.000 A 
ENDROOT
BRANCH   4   6
ATOM      6  C   UNL     1       1.535   7.585  20.470  0.00  0.00    +0.000 C 
ATOM      7  O   UNL     1       0.955   6.910  21.318  0.00  0.00    +0.000 OA
ATOM      8  N   UNL     1       1.341   8.953  20.311  0.00  0.00    +0.000 N 
ATOM      9  H   UNL     1       1.741   9.363  19.474  0.00  0.00    +0.000 HD
BRANCH   8  10
ATOM     10  C   UNL     1       0.472   9.768  21.085  0.00  0.00    +0.000 A 
ATOM     11  C   UNL     1       0.190   9.529  22.436  0.00  0.00    +0.000 A 
ATOM     12  C   UNL     1      -0.713  10.336  23.136  0.00  0.00    +0.000 A 
ATOM     13  C   UNL     1      -1.334  11.392  22.486  0.00  0.00    +0.000 A 
ATOM     14  F   UNL     1      -2.212  12.153  23.151  0.00  0.00    +0.000 F 
ATOM     15  C   UNL     1      -1.050  11.666  21.154  0.00  0.00    +0.000 A 
ATOM     16  C   UNL     1      -0.139  10.861  20.456  0.00  0.00    +0.000 A 
ENDBRANCH   8  10
ENDBRANCH   4   6
BRANCH   1  17
ATOM     17  S   UNL     1       4.891   4.209  17.920  0.00  0.00    +0.000 S 
ATOM     18  O   UNL     1       3.973   3.306  17.248  0.00  0.00    +0.000 OA
ATOM     19  O   UNL     1       5.543   3.855  19.163  0.00  0.00    +0.000 OA
BRANCH  17  21
ATOM     20  C   UNL     1       7.519   4.622  17.378  0.00  0.00    +0.000 C 
ATOM     21  C   UNL     1       6.132   4.774  16.750  0.00  0.00    +0.000 C 
ATOM     22  C   UNL     1       6.079   4.024  15.424  0.00  0.00    +0.000 C 
ENDBRANCH  17  21
ENDBRANCH   1  17
BRANCH   5  23
ATOM     23  N   UNL     1       3.080   4.876  20.520  0.00  0.00    +0.000 N 
ATOM     24  H   UNL     1       3.476   5.035  21.445  0.00  0.00    +0.000 HD
ATOM     25  H   UNL     1       2.346   4.158  20.519  0.00  0.00    +0.000 HD
ENDBRANCH   5  23
TORSDOF 5
ENDMDL
MODEL 2
REMARK VINA RESULT:      -6.8      0.105      1.030
REMARK  Name = 
REMARK  7 active torsions:
REMARK  status: ('A' for Active; 'I' for Inactive)
REMARK    1  A    between atoms: C_1  and  C_2
REMARK    2  A    between atoms: C_2  and  C_3
REMARK    3  A    between atoms: C_2  and  S_4
REMARK    4  A    between atoms: S_4  and  C_7
REMARK    5  A    between atoms: C_10  and  C_11
REMARK    6  A    between atoms: N_13  and  C_14
REMARK    7  A    between atoms: C_21  and  N_22
REMARK                            x       y       z     vdW  Elec       q    Type
REMARK                         _______ _______ _______ _____ _____    ______ ____
ROOT
ATOM      1  C   UNL     1       3.958   5.614  18.343  0.00  0.00    +0.000 A 
ATOM      2  C   UNL     1       3.873   6.696  17.492  0.00  0.00    +0.000 A 
ATOM      3  S   UNL     1       2.816   7.893  18.078  0.00  0.00    +0.000 S 
ATOM      4  C   UNL     1       2.468   6.995  19.507  0.00  0.00    +0.000 A 
ATOM      5  C   UNL     1       3.157   5.793  19.523  0.00  0.00    +0.000 A 
ENDROOT
BRANCH   4   6
ATOM      6  C   UNL     1       1.538   7.603  20.457  0.00  0.00    +0.000 C 
ATOM      7  O   UNL     1       0.997   6.941  21.341  0.00  0.00    +0.000 OA
ATOM      8  N   UNL     1       1.284   8.955  20.243  0.00  0.00    +0.000 N 
ATOM      9  H   UNL     1       1.656   9.344  19.385  0.00  0.00    +0.000 HD
BRANCH   8  10
ATOM     10  C   UNL     1       0.392   9.764  20.995  0.00  0.00    +0.000 A 
ATOM     11  C   UNL     1      -0.341  10.824  20.444  0.00  0.00    +0.000 A 
ATOM     12  C   UNL     1      -1.167  11.620  21.243  0.00  0.00    +0.000 A 
ATOM     13  C   UNL     1      -1.269  11.355  22.600  0.00  0.00    +0.000 A 
ATOM     14  F   UNL     1      -2.045  12.128  23.370  0.00  0.00    +0.000 F 
ATOM     15  C   UNL     1      -0.573  10.294  23.166  0.00  0.00    +0.000 A 
ATOM     16  C   UNL     1       0.249   9.491  22.362  0.00  0.00    +0.000 A 
ENDBRANCH   8  10
ENDBRANCH   4   6
BRANCH   1  17
ATOM     17  S   UNL     1       4.915   4.217  17.949  0.00  0.00    +0.000 S 
ATOM     18  O   UNL     1       3.990   3.301  17.306  0.00  0.00    +0.000 OA
ATOM     19  O   UNL     1       5.585   3.885  19.189  0.00  0.00    +0.000 OA
BRANCH  17  21
ATOM     20  C   UNL     1       7.531   4.664  17.378  0.00  0.00    +0.000 C 
ATOM     21  C   UNL     1       6.138   4.765  16.753  0.00  0.00    +0.000 C 
ATOM     22  C   UNL     1       6.094   3.967  15.455  0.00  0.00    +0.000 C 
ENDBRANCH  17  21
ENDBRANCH   1  17
BRANCH   5  23
ATOM     23  N   UNL     1       3.064   4.885  20.521  0.00  0.00    +0.000 N 
ATOM     24  H   UNL     1       2.889   5.136  21.492  0.00  0.00    +0.000 HD
ATOM     25  H   UNL     1       2.818   3.910  20.312  0.00  0.00    +0.000 HD
ENDBRANCH   5  23
TORSDOF 5
ENDMDL
MODEL 3
REMARK VINA RESULT:      -6.7      1.848      2.509
REMARK  Name = 
REMARK  7 active torsions:
REMARK  status: ('A' for Active; 'I' for Inactive)
REMARK    1  A    between atoms: C_1  and  C_2
REMARK    2  A    between atoms: C_2  and  C_3
REMARK    3  A    between atoms: C_2  and  S_4
REMARK    4  A    between atoms: S_4  and  C_7
REMARK    5  A    between atoms: C_10  and  C_11
REMARK    6  A    between atoms: N_13  and  C_14
REMARK    7  A    between atoms: C_21  and  N_22
REMARK                            x       y       z     vdW  Elec       q    Type
REMARK                         _______ _______ _______ _____ _____    ______ ____
ROOT
ATOM      1  C   UNL     1       4.499   5.249  17.398  0.00  0.00    +0.000 A 
ATOM      2  C   UNL     1       4.356   4.038  18.042  0.00  0.00    +0.000 A 
ATOM      3  S   UNL     1       3.302   4.140  19.373  0.00  0.00    +0.000 S 
ATOM      4  C   UNL     1       2.990   5.812  19.097  0.00  0.00    +0.000 A 
ATOM      5  C   UNL     1       3.692   6.277  17.997  0.00  0.00    +0.000 A 
ENDROOT
BRANCH   4   6
ATOM      6  C   UNL     1       2.069   6.471  20.021  0.00  0.00    +0.000 C 
ATOM      7  O   UNL     1       1.388   5.827  20.817  0.00  0.00    +0.000 OA
ATOM      8  N   UNL     1       1.993   7.854  19.887  0.00  0.00    +0.000 N 
ATOM      9  H   UNL     1       2.473   8.247  19.086  0.00  0.00    +0.000 HD
BRANCH   8  10
ATOM     10  C   UNL     1       1.149   8.719  20.631  0.00  0.00    +0.000 A 
ATOM     11  C   UNL     1       0.277   9.645  20.042  0.00  0.00    +0.000 A 
ATOM     12  C   UNL     1      -0.495  10.507  20.825  0.00  0.00    +0.000 A 
ATOM     13  C   UNL     1      -0.404  10.443  22.207  0.00  0.00    +0.000 A 
ATOM     14  F   UNL     1      -1.129  11.281  22.958  0.00  0.00    +0.000 F 
ATOM     15  C   UNL     1       0.432   9.516  22.817  0.00  0.00    +0.000 A 
ATOM     16  C   UNL     1       1.201   8.647  22.030  0.00  0.00    +0.000 A 
ENDBRANCH   8  10
ENDBRANCH   4   6
BRANCH   1  17
ATOM     17  S   UNL     1       5.575   5.441  16.046  0.00  0.00    +0.000 S 
ATOM     18  O   UNL     1       5.124   6.650  15.378  0.00  0.00    +0.000 OA
ATOM     19  O   UNL     1       5.556   4.151  15.390  0.00  0.00    +0.000 OA
BRANCH  17  21
ATOM     20  C   UNL     1       7.239   7.088  17.420  0.00  0.00    +0.000 C 
ATOM     21  C   UNL     1       7.209   5.719  16.739  0.00  0.00    +0.000 C 
ATOM     22  C   UNL     1       7.623   4.637  17.730  0.00  0.00    +0.000 C 
ENDBRANCH  17  21
ENDBRANCH   1  17
BRANCH   5  23
ATOM     23  N   UNL     1       3.643   7.556  17.557  0.00  0.00    +0.000 N 
ATOM     24  H   UNL     1       4.187   8.310  17.971  0.00  0.00    +0.000 HD
ATOM     25  H   UNL     1       3.341   7.762  16.598  0.00  0.00    +0.000 HD
ENDBRANCH   5  23
TORSDOF 5
ENDMDL
MODEL 4
REMARK VINA RESULT:      -6.7      1.862      2.316
REMARK  Name = 
REMARK  7 active torsions:
REMARK  status: ('A' for Active; 'I' for Inactive)
REMARK    1  A    between atoms: C_1  and  C_2
REMARK    2  A    between atoms: C_2  and  C_3
REMARK    3  A    between atoms: C_2  and  S_4
REMARK    4  A    between atoms: S_4  and  C_7
REMARK    5  A    between atoms: C_10  and  C_11
REMARK    6  A    between atoms: N_13  and  C_14
REMARK    7  A    between atoms: C_21  and  N_22
REMARK                            x       y       z     vdW  Elec       q    Type
REMARK                         _______ _______ _______ _____ _____    ______ ____
ROOT
ATOM      1  C   UNL     1       4.611   5.248  17.610  0.00  0.00    +0.000 A 
ATOM      2  C   UNL     1       4.528   4.061  18.307  0.00  0.00    +0.000 A 
ATOM      3  S   UNL     1       3.431   4.154  19.603  0.00  0.00    +0.000 S 
ATOM      4  C   UNL     1       3.019   5.787  19.239  0.00  0.00    +0.000 A 
ATOM      5  C   UNL     1       3.722   6.246  18.137  0.00  0.00    +0.000 A 
ENDROOT
BRANCH   4   6
ATOM      6  C   UNL     1       2.030   6.425  20.106  0.00  0.00    +0.000 C 
ATOM      7  O   UNL     1       1.161   5.771  20.679  0.00  0.00    +0.000 OA
ATOM      8  N   UNL     1       2.124   7.812  20.180  0.00  0.00    +0.000 N 
ATOM      9  H   UNL     1       2.770   8.246  19.532  0.00  0.00    +0.000 HD
BRANCH   8  10
ATOM     10  C   UNL     1       1.262   8.667  20.915  0.00  0.00    +0.000 A 
ATOM     11  C   UNL     1       1.208   8.694  22.315  0.00  0.00    +0.000 A 
ATOM     12  C   UNL     1       0.303   9.522  22.986  0.00  0.00    +0.000 A 
ATOM     13  C   UNL     1      -0.551  10.335  22.256  0.00  0.00    +0.000 A 
ATOM     14  F   UNL     1      -1.431  11.114  22.897  0.00  0.00    +0.000 F 
ATOM     15  C   UNL     1      -0.499  10.347  20.868  0.00  0.00    +0.000 A 
ATOM     16  C   UNL     1       0.414   9.522  20.197  0.00  0.00    +0.000 A 
ENDBRANCH   8  10
ENDBRANCH   4   6
BRANCH   1  17
ATOM     17  S   UNL     1       5.713   5.449  16.280  0.00  0.00    +0.000 S 
ATOM     18  O   UNL     1       5.175   6.559  15.513  0.00  0.00    +0.000 OA
ATOM     19  O   UNL     1       5.839   4.120  15.719  0.00  0.00    +0.000 OA
BRANCH  17  21
ATOM     20  C   UNL     1       7.228   7.406  17.394  0.00  0.00    +0.000 C 
ATOM     21  C   UNL     1       7.288   5.930  16.998  0.00  0.00    +0.000 C 
ATOM     22  C   UNL     1       7.669   5.084  18.207  0.00  0.00    +0.000 C 
ENDBRANCH  17  21
ENDBRANCH   1  17
BRANCH   5  23
ATOM     23  N   UNL     1       3.604   7.498  17.636  0.00  0.00    +0.000 N 
ATOM     24  H   UNL     1       2.740   7.862  17.239  0.00  0.00    +0.000 HD
ATOM     25  H   UNL     1       4.246   8.239  17.939  0.00  0.00    +0.000 HD
ENDBRANCH   5  23
TORSDOF 5
ENDMDL
MODEL 5
REMARK VINA RESULT:      -6.7      2.722      3.421
REMARK  Name = 
REMARK  7 active torsions:
REMARK  status: ('A' for Active; 'I' for Inactive)
REMARK    1  A    between atoms: C_1  and  C_2
REMARK    2  A    between atoms: C_2  and  C_3
REMARK    3  A    between atoms: C_2  and  S_4
REMARK    4  A    between atoms: S_4  and  C_7
REMARK    5  A    between atoms: C_10  and  C_11
REMARK    6  A    between atoms: N_13  and  C_14
REMARK    7  A    between atoms: C_21  and  N_22
REMARK                            x       y       z     vdW  Elec       q    Type
REMARK                         _______ _______ _______ _____ _____    ______ ____
ROOT
ATOM      1  C   UNL     1       3.291   4.694  19.432  0.00  0.00    +0.000 A 
ATOM      2  C   UNL     1       3.880   5.178  18.282  0.00  0.00    +0.000 A 
ATOM      3  S   UNL     1       3.474   6.803  17.989  0.00  0.00    +0.000 S 
ATOM      4  C   UNL     1       2.517   6.904  19.419  0.00  0.00    +0.000 A 
ATOM      5  C   UNL     1       2.514   5.700  20.104  0.00  0.00    +0.000 A 
ENDROOT
BRANCH   4   6
ATOM      6  C   UNL     1       1.875   8.188  19.693  0.00  0.00    +0.000 C 
ATOM      7  O   UNL     1       1.474   8.479  20.818  0.00  0.00    +0.000 OA
ATOM      8  N   UNL     1       1.715   9.012  18.583  0.00  0.00    +0.000 N 
ATOM      9  H   UNL     1       1.931   8.592  17.686  0.00  0.00    +0.000 HD
BRANCH   8  10
ATOM     10  C   UNL     1       1.088  10.285  18.573  0.00  0.00    +0.000 A 
ATOM     11  C   UNL     1      -0.302  10.463  18.567  0.00  0.00    +0.000 A 
ATOM     12  C   UNL     1      -0.864  11.741  18.506  0.00  0.00    +0.000 A 
ATOM     13  C   UNL     1      -0.035  12.852  18.457  0.00  0.00    +0.000 A 
ATOM     14  F   UNL     1      -0.573  14.076  18.381  0.00  0.00    +0.000 F 
ATOM     15  C   UNL     1       1.346  12.705  18.490  0.00  0.00    +0.000 A 
ATOM     16  C   UNL     1       1.908  11.422  18.558  0.00  0.00    +0.000 A 
ENDBRANCH   8  10
ENDBRANCH   4   6
BRANCH   1  17
ATOM     17  S   UNL     1       3.484   3.039  19.928  0.00  0.00    +0.000 S 
ATOM     18  O   UNL     1       3.032   3.007  21.307  0.00  0.00    +0.000 OA
ATOM     19  O   UNL     1       4.846   2.714  19.560  0.00  0.00    +0.000 OA
BRANCH  17  21
ATOM     20  C   UNL     1       0.936   2.598  19.103  0.00  0.00    +0.000 C 
ATOM     21  C   UNL     1       2.360   2.074  18.911  0.00  0.00    +0.000 C 
ATOM     22  C   UNL     1       2.728   2.103  17.432  0.00  0.00    +0.000 C 
ENDBRANCH  17  21
ENDBRANCH   1  17
BRANCH   5  23
ATOM     23  N   UNL     1       1.836   5.490  21.256  0.00  0.00    +0.000 N 
ATOM     24  H   UNL     1       2.237   5.649  22.178  0.00  0.00    +0.000 HD
ATOM     25  H   UNL     1       0.809   5.501  21.261  0.00  0.00    +0.000 HD
ENDBRANCH   5  23
TORSDOF 5
ENDMDL
MODEL 6
REMARK VINA RESULT:      -6.7      4.259      8.417
REMARK  Name = 
REMARK  7 active torsions:
REMARK  status: ('A' for Active; 'I' for Inactive)
REMARK    1  A    between atoms: C_1  and  C_2
REMARK    2  A    between atoms: C_2  and  C_3
REMARK    3  A    between atoms: C_2  and  S_4
REMARK    4  A    between atoms: S_4  and  C_7
REMARK    5  A    between atoms: C_10  and  C_11
REMARK    6  A    between atoms: N_13  and  C_14
REMARK    7  A    between atoms: C_21  and  N_22
REMARK                            x       y       z     vdW  Elec       q    Type
REMARK                         _______ _______ _______ _____ _____    ______ ____
ROOT
ATOM      1  C   UNL     1       0.658  10.444  20.030  0.00  0.00    +0.000 A 
ATOM      2  C   UNL     1       0.681   9.834  21.267  0.00  0.00    +0.000 A 
ATOM      3  S   UNL     1       1.392   8.289  21.207  0.00  0.00    +0.000 S 
ATOM      4  C   UNL     1       1.712   8.417  19.518  0.00  0.00    +0.000 A 
ATOM      5  C   UNL     1       1.272   9.631  19.016  0.00  0.00    +0.000 A 
ENDROOT
BRANCH   4   6
ATOM      6  C   UNL     1       2.373   7.277  18.885  0.00  0.00    +0.000 C 
ATOM      7  O   UNL     1       3.102   7.420  17.905  0.00  0.00    +0.000 OA
ATOM      8  N   UNL     1       2.068   6.040  19.444  0.00  0.00    +0.000 N 
ATOM      9  H   UNL     1       1.327   6.037  20.134  0.00  0.00    +0.000 HD
BRANCH   8  10
ATOM     10  C   UNL     1       2.544   4.781  18.991  0.00  0.00    +0.000 A 
ATOM     11  C   UNL     1       2.005   4.102  17.889  0.00  0.00    +0.000 A 
ATOM     12  C   UNL     1       2.480   2.841  17.519  0.00  0.00    +0.000 A 
ATOM     13  C   UNL     1       3.504   2.253  18.246  0.00  0.00    +0.000 A 
ATOM     14  F   UNL     1       3.947   1.037  17.903  0.00  0.00    +0.000 F 
ATOM     15  C   UNL     1       4.074   2.917  19.325  0.00  0.00    +0.000 A 
ATOM     16  C   UNL     1       3.601   4.185  19.692  0.00  0.00    +0.000 A 
ENDBRANCH   8  10
ENDBRANCH   4   6
BRANCH   1  17
ATOM     17  S   UNL     1      -0.079  12.001  19.796  0.00  0.00    +0.000 S 
ATOM     18  O   UNL     1       0.667  12.608  18.708  0.00  0.00    +0.000 OA
ATOM     19  O   UNL     1      -0.109  12.583  21.122  0.00  0.00    +0.000 OA
BRANCH  17  21
ATOM     20  C   UNL     1      -2.710  12.642  19.988  0.00  0.00    +0.000 C 
ATOM     21  C   UNL     1      -1.764  11.686  19.259  0.00  0.00    +0.000 C 
ATOM     22  C   UNL     1      -1.940  11.832  17.752  0.00  0.00    +0.000 C 
ENDBRANCH  17  21
ENDBRANCH   1  17
BRANCH   5  23
ATOM     23  N   UNL     1       1.385   9.995  17.718  0.00  0.00    +0.000 N 
ATOM     24  H   UNL     1       1.899   9.452  17.027  0.00  0.00    +0.000 HD
ATOM     25  H   UNL     1       0.692  10.624  17.295  0.00  0.00    +0.000 HD
ENDBRANCH   5  23
TORSDOF 5
ENDMDL
MODEL 7
REMARK VINA RESULT:      -6.6      1.346      1.716
REMARK  Name = 
REMARK  7 active torsions:
REMARK  status: ('A' for Active; 'I' for Inactive)
REMARK    1  A    between atoms: C_1  and  C_2
REMARK    2  A    between atoms: C_2  and  C_3
REMARK    3  A    between atoms: C_2  and  S_4
REMARK    4  A    between atoms: S_4  and  C_7
REMARK    5  A    between atoms: C_10  and  C_11
REMARK    6  A    between atoms: N_13  and  C_14
REMARK    7  A    between atoms: C_21  and  N_22
REMARK                            x       y       z     vdW  Elec       q    Type
REMARK                         _______ _______ _______ _____ _____    ______ ____
ROOT
ATOM      1  C   UNL     1       3.920   5.626  18.427  0.00  0.00    +0.000 A 
ATOM      2  C   UNL     1       3.785   6.674  17.540  0.00  0.00    +0.000 A 
ATOM      3  S   UNL     1       2.703   7.858  18.107  0.00  0.00    +0.000 S 
ATOM      4  C   UNL     1       2.412   7.000  19.574  0.00  0.00    +0.000 A 
ATOM      5  C   UNL     1       3.139   5.822  19.617  0.00  0.00    +0.000 A 
ENDROOT
BRANCH   4   6
ATOM      6  C   UNL     1       1.483   7.614  20.522  0.00  0.00    +0.000 C 
ATOM      7  O   UNL     1       0.890   6.943  21.365  0.00  0.00    +0.000 OA
ATOM      8  N   UNL     1       1.294   8.982  20.354  0.00  0.00    +0.000 N 
ATOM      9  H   UNL     1       1.706   9.387  19.522  0.00  0.00    +0.000 HD
BRANCH   8  10
ATOM     10  C   UNL     1       0.417   9.801  21.113  0.00  0.00    +0.000 A 
ATOM     11  C   UNL     1       0.125   9.577  22.465  0.00  0.00    +0.000 A 
ATOM     12  C   UNL     1      -0.785  10.387  23.149  0.00  0.00    +0.000 A 
ATOM     13  C   UNL     1      -1.405  11.434  22.484  0.00  0.00    +0.000 A 
ATOM     14  F   UNL     1      -2.291  12.199  23.134  0.00  0.00    +0.000 F 
ATOM     15  C   UNL     1      -1.112  11.695  21.151  0.00  0.00    +0.000 A 
ATOM     16  C   UNL     1      -0.193  10.886  20.468  0.00  0.00    +0.000 A 
ENDBRANCH   8  10
ENDBRANCH   4   6
BRANCH   1  17
ATOM     17  S   UNL     1       4.912   4.246  18.061  0.00  0.00    +0.000 S 
ATOM     18  O   UNL     1       5.609   3.948  19.300  0.00  0.00    +0.000 OA
ATOM     19  O   UNL     1       5.619   4.626  16.856  0.00  0.00    +0.000 OA
BRANCH  17  21
ATOM     20  C   UNL     1       3.749   1.924  18.852  0.00  0.00    +0.000 C 
ATOM     21  C   UNL     1       3.784   2.902  17.676  0.00  0.00    +0.000 C 
ATOM     22  C   UNL     1       2.374   3.387  17.362  0.00  0.00    +0.000 C 
ENDBRANCH  17  21
ENDBRANCH   1  17
BRANCH   5  23
ATOM     23  N   UNL     1       3.094   4.947  20.648  0.00  0.00    +0.000 N 
ATOM     24  H   UNL     1       3.034   3.938  20.523  0.00  0.00    +0.000 HD
ATOM     25  H   UNL     1       3.464   5.213  21.568  0.00  0.00    +0.000 HD
ENDBRANCH   5  23
TORSDOF 5
ENDMDL
MODEL 8
REMARK VINA RESULT:      -6.6      4.255      8.367
REMARK  Name = 
REMARK  7 active torsions:
REMARK  status: ('A' for Active; 'I' for Inactive)
REMARK    1  A    between atoms: C_1  and  C_2
REMARK    2  A    between atoms: C_2  and  C_3
REMARK    3  A    between atoms: C_2  and  S_4
REMARK    4  A    between atoms: S_4  and  C_7
REMARK    5  A    between atoms: C_10  and  C_11
REMARK    6  A    between atoms: N_13  and  C_14
REMARK    7  A    between atoms: C_21  and  N_22
REMARK                            x       y       z     vdW  Elec       q    Type
REMARK                         _______ _______ _______ _____ _____    ______ ____
ROOT
ATOM      1  C   UNL     1       0.562  10.432  20.044  0.00  0.00    +0.000 A 
ATOM      2  C   UNL     1       0.599   9.869  21.302  0.00  0.00    +0.000 A 
ATOM      3  S   UNL     1       1.352   8.343  21.301  0.00  0.00    +0.000 S 
ATOM      4  C   UNL     1       1.671   8.417  19.608  0.00  0.00    +0.000 A 
ATOM      5  C   UNL     1       1.200   9.599  19.062  0.00  0.00    +0.000 A 
ENDROOT
BRANCH   4   6
ATOM      6  C   UNL     1       2.364   7.272  19.019  0.00  0.00    +0.000 C 
ATOM      7  O   UNL     1       3.141   7.408  18.076  0.00  0.00    +0.000 OA
ATOM      8  N   UNL     1       2.035   6.039  19.573  0.00  0.00    +0.000 N 
ATOM      9  H   UNL     1       1.260   6.041  20.226  0.00  0.00    +0.000 HD
BRANCH   8  10
ATOM     10  C   UNL     1       2.534   4.777  19.156  0.00  0.00    +0.000 A 
ATOM     11  C   UNL     1       3.771   4.262  19.564  0.00  0.00    +0.000 A 
ATOM     12  C   UNL     1       4.234   3.034  19.081  0.00  0.00    +0.000 A 
ATOM     13  C   UNL     1       3.456   2.311  18.190  0.00  0.00    +0.000 A 
ATOM     14  F   UNL     1       3.907   1.145  17.712  0.00  0.00    +0.000 F 
ATOM     15  C   UNL     1       2.213   2.787  17.791  0.00  0.00    +0.000 A 
ATOM     16  C   UNL     1       1.747   4.015  18.282  0.00  0.00    +0.000 A 
ENDBRANCH   8  10
ENDBRANCH   4   6
BRANCH   1  17
ATOM     17  S   UNL     1      -0.216  11.959  19.751  0.00  0.00    +0.000 S 
ATOM     18  O   UNL     1       0.517  12.545  18.643  0.00  0.00    +0.000 OA
ATOM     19  O   UNL     1      -0.268  12.587  21.054  0.00  0.00    +0.000 OA
BRANCH  17  21
ATOM     20  C   UNL     1      -2.861  12.554  19.887  0.00  0.00    +0.000 C 
ATOM     21  C   UNL     1      -1.890  11.578  19.221  0.00  0.00    +0.000 C 
ATOM     22  C   UNL     1      -2.057  11.634  17.706  0.00  0.00    +0.000 C 
ENDBRANCH  17  21
ENDBRANCH   1  17
BRANCH   5  23
ATOM     23  N   UNL     1       1.306   9.917  17.751  0.00  0.00    +0.000 N 
ATOM     24  H   UNL     1       1.055  10.829  17.374  0.00  0.00    +0.000 HD
ATOM     25  H   UNL     1       1.954   9.400  17.143  0.00  0.00    +0.000 HD
ENDBRANCH   5  23
TORSDOF 5
ENDMDL
MODEL 9
REMARK VINA RESULT:      -6.6      3.062      3.557
REMARK  Name = 
REMARK  7 active torsions:
REMARK  status: ('A' for Active; 'I' for Inactive)
REMARK    1  A    between atoms: C_1  and  C_2
REMARK    2  A    between atoms: C_2  and  C_3
REMARK    3  A    between atoms: C_2  and  S_4
REMARK    4  A    between atoms: S_4  and  C_7
REMARK    5  A    between atoms: C_10  and  C_11
REMARK    6  A    between atoms: N_13  and  C_14
REMARK    7  A    between atoms: C_21  and  N_22
REMARK                            x       y       z     vdW  Elec       q    Type
REMARK                         _______ _______ _______ _____ _____    ______ ____
ROOT
ATOM      1  C   UNL     1       3.539   5.356  18.995  0.00  0.00    +0.000 A 
ATOM      2  C   UNL     1       2.717   5.397  20.101  0.00  0.00    +0.000 A 
ATOM      3  S   UNL     1       1.815   6.838  20.176  0.00  0.00    +0.000 S 
ATOM      4  C   UNL     1       2.490   7.428  18.704  0.00  0.00    +0.000 A 
ATOM      5  C   UNL     1       3.396   6.525  18.172  0.00  0.00    +0.000 A 
ENDROOT
BRANCH   4   6
ATOM      6  C   UNL     1       2.028   8.738  18.247  0.00  0.00    +0.000 C 
ATOM      7  O   UNL     1       2.349   9.184  17.147  0.00  0.00    +0.000 OA
ATOM      8  N   UNL     1       1.256   9.440  19.167  0.00  0.00    +0.000 N 
ATOM      9  H   UNL     1       1.204   9.041  20.097  0.00  0.00    +0.000 HD
BRANCH   8  10
ATOM     10  C   UNL     1       0.724  10.744  18.985  0.00  0.00    +0.000 A 
ATOM     11  C   UNL     1      -0.596  10.991  18.584  0.00  0.00    +0.000 A 
ATOM     12  C   UNL     1      -1.052  12.295  18.373  0.00  0.00    +0.000 A 
ATOM     13  C   UNL     1      -0.189  13.362  18.569  0.00  0.00    +0.000 A 
ATOM     14  F   UNL     1      -0.620  14.611  18.348  0.00  0.00    +0.000 F 
ATOM     15  C   UNL     1       1.116  13.146  18.993  0.00  0.00    +0.000 A 
ATOM     16  C   UNL     1       1.570  11.838  19.211  0.00  0.00    +0.000 A 
ENDBRANCH   8  10
ENDBRANCH   4   6
BRANCH   1  17
ATOM     17  S   UNL     1       4.623   4.025  18.715  0.00  0.00    +0.000 S 
ATOM     18  O   UNL     1       5.822   4.356  19.464  0.00  0.00    +0.000 OA
ATOM     19  O   UNL     1       4.635   3.874  17.275  0.00  0.00    +0.000 OA
BRANCH  17  21
ATOM     20  C   UNL     1       3.478   1.593  18.336  0.00  0.00    +0.000 C 
ATOM     21  C   UNL     1       3.846   2.579  19.446  0.00  0.00    +0.000 C 
ATOM     22  C   UNL     1       4.732   1.892  20.478  0.00  0.00    +0.000 C 
ENDBRANCH  17  21
ENDBRANCH   1  17
BRANCH   5  23
ATOM     23  N   UNL     1       4.084   6.735  17.026  0.00  0.00    +0.000 N 
ATOM     24  H   UNL     1       4.403   7.654  16.726  0.00  0.00    +0.000 HD
ATOM     25  H   UNL     1       4.612   5.969  16.592  0.00  0.00    +0.000 HD
ENDBRANCH   5  23
TORSDOF 5
ENDMDL
