MODEL 1
REMARK VINA RESULT:      -7.6      0.000      0.000
REMARK  Name = 
REMARK  8 active torsions:
REMARK  status: ('A' for Active; 'I' for Inactive)
REMARK    1  A    between atoms: C_1  and  O_2
REMARK    2  A    between atoms: O_2  and  C_3
REMARK    3  A    between atoms: N_10  and  S_11
REMARK    4  A    between atoms: S_11  and  C_14
REMARK    5  A    between atoms: C_14  and  C_15
REMARK    6  A    between atoms: C_15  and  N_16
REMARK    7  A    between atoms: C_19  and  C_20
REMARK    8  A    between atoms: C_20  and  C_21
REMARK                            x       y       z     vdW  Elec       q    Type
REMARK                         _______ _______ _______ _____ _____    ______ ____
ROOT
ATOM      1  S   UNL     1      -0.022   9.376  22.297  0.00  0.00    +0.000 S 
ATOM      2  O   UNL     1       0.798   9.823  23.406  0.00  0.00    +0.000 OA
ATOM      3  O   UNL     1      -1.005   8.326  22.464  0.00  0.00    +0.000 OA
ENDROOT
BRANCH   1  11
ATOM      4  C   UNL     1      -4.582  13.283  23.407  0.00  0.00    +0.000 A 
ATOM      5  C   UNL     1      -4.636  14.268  22.426  0.00  0.00    +0.000 A 
ATOM      6  C   UNL     1      -3.549  14.470  21.577  0.00  0.00    +0.000 A 
ATOM      7  C   UNL     1      -2.408  13.667  21.685  0.00  0.00    +0.000 A 
ATOM      8  C   UNL     1      -2.343  12.652  22.654  0.00  0.00    +0.000 A 
ATOM      9  C   UNL     1      -3.450  12.469  23.513  0.00  0.00    +0.000 A 
ATOM     10  C   UNL     1      -1.108  11.786  22.825  0.00  0.00    +0.000 C 
ATOM     11  N   UNL     1      -0.928  10.753  21.749  0.00  0.00    +0.000 NA
ATOM     12  C   UNL     1      -0.221  11.336  20.542  0.00  0.00    +0.000 C 
ATOM     13  C   UNL     1      -1.054  12.335  19.751  0.00  0.00    +0.000 C 
ATOM     14  S   UNL     1      -1.095  13.981  20.525  0.00  0.00    +0.000 S 
BRANCH   4  16
ATOM     15  C   UNL     1      -6.824  12.576  23.548  0.00  0.00    +0.000 C 
ATOM     16  O   UNL     1      -5.701  13.173  24.186  0.00  0.00    +0.000 OA
ENDBRANCH   4  16
ENDBRANCH   1  11
BRANCH   1  17
ATOM     17  C   UNL     1       1.075   9.038  20.919  0.00  0.00    +0.000 C 
BRANCH  17  18
ATOM     18  C   UNL     1       1.874   7.754  21.144  0.00  0.00    +0.000 C 
BRANCH  18  19
ATOM     19  N   UNL     1       1.751   6.742  20.085  0.00  0.00    +0.000 NA
ATOM     20  C   UNL     1       2.678   6.945  18.967  0.00  0.00    +0.000 C 
ATOM     21  C   UNL     1       2.486   5.902  17.867  0.00  0.00    +0.000 C 
ATOM     22  C   UNL     1       2.614   4.474  18.404  0.00  0.00    +0.000 C 
ATOM     23  C   UNL     1       1.606   4.316  19.554  0.00  0.00    +0.000 C 
ATOM     24  C   UNL     1       1.794   5.381  20.637  0.00  0.00    +0.000 C 
BRANCH  22  25
ATOM     25  C   UNL     1       4.074   4.162  18.817  0.00  0.00    +0.000 C 
BRANCH  25  26
ATOM     26  C   UNL     1       5.059   4.422  17.704  0.00  0.00    +0.000 A 
ATOM     27  C   UNL     1       4.921   3.779  16.469  0.00  0.00    +0.000 A 
ATOM     28  C   UNL     1       5.889   3.935  15.476  0.00  0.00    +0.000 A 
ATOM     29  C   UNL     1       6.994   4.751  15.705  0.00  0.00    +0.000 A 
ATOM     30  C   UNL     1       7.119   5.432  16.914  0.00  0.00    +0.000 A 
ATOM     31  C   UNL     1       6.156   5.273  17.910  0.00  0.00    +0.000 A 
ENDBRANCH  25  26
ENDBRANCH  22  25
ENDBRANCH  18  19
ENDBRANCH  17  18
ENDBRANCH   1  17
TORSDOF 7
ENDMDL
MODEL 2
REMARK VINA RESULT:      -7.6      4.713     10.962
REMARK  Name = 
REMARK  8 active torsions:
REMARK  status: ('A' for Active; 'I' for Inactive)
REMARK    1  A    between atoms: C_1  and  O_2
REMARK    2  A    between atoms: O_2  and  C_3
REMARK    3  A    between atoms: N_10  and  S_11
REMARK    4  A    between atoms: S_11  and  C_14
REMARK    5  A    between atoms: C_14  and  C_15
REMARK    6  A    between atoms: C_15  and  N_16
REMARK    7  A    between atoms: C_19  and  C_20
REMARK    8  A    between atoms: C_20  and  C_21
REMARK                            x       y       z     vdW  Elec       q    Type
REMARK                         _______ _______ _______ _____ _____    ______ ____
ROOT
ATOM      1  S   UNL     1       3.112   3.462  19.122  0.00  0.00    +0.000 S 
ATOM      2  O   UNL     1       2.589   2.378  18.314  0.00  0.00    +0.000 OA
ATOM      3  O   UNL     1       3.529   3.244  20.491  0.00  0.00    +0.000 OA
ENDROOT
BRANCH   1  11
ATOM      4  C   UNL     1       6.158   4.016  13.860  0.00  0.00    +0.000 A 
ATOM      5  C   UNL     1       7.303   4.788  14.032  0.00  0.00    +0.000 A 
ATOM      6  C   UNL     1       7.446   5.581  15.170  0.00  0.00    +0.000 A 
ATOM      7  C   UNL     1       6.456   5.585  16.159  0.00  0.00    +0.000 A 
ATOM      8  C   UNL     1       5.304   4.794  16.014  0.00  0.00    +0.000 A 
ATOM      9  C   UNL     1       5.171   4.005  14.850  0.00  0.00    +0.000 A 
ATOM     10  C   UNL     1       4.193   4.801  17.048  0.00  0.00    +0.000 C 
ATOM     11  N   UNL     1       4.527   4.061  18.314  0.00  0.00    +0.000 NA
ATOM     12  C   UNL     1       5.287   4.947  19.281  0.00  0.00    +0.000 C 
ATOM     13  C   UNL     1       6.705   5.281  18.841  0.00  0.00    +0.000 C 
ATOM     14  S   UNL     1       6.757   6.600  17.590  0.00  0.00    +0.000 S 
BRANCH   4  16
ATOM     15  C   UNL     1       7.079   3.647  11.724  0.00  0.00    +0.000 C 
ATOM     16  O   UNL     1       6.119   3.279  12.708  0.00  0.00    +0.000 OA
ENDBRANCH   4  16
ENDBRANCH   1  11
BRANCH   1  17
ATOM     17  C   UNL     1       1.961   4.831  18.995  0.00  0.00    +0.000 C 
BRANCH  17  18
ATOM     18  C   UNL     1       2.156   5.831  20.135  0.00  0.00    +0.000 C 
BRANCH  18  19
ATOM     19  N   UNL     1       2.193   7.246  19.733  0.00  0.00    +0.000 NA
ATOM     20  C   UNL     1       2.321   7.442  18.285  0.00  0.00    +0.000 C 
ATOM     21  C   UNL     1       2.404   8.922  17.913  0.00  0.00    +0.000 C 
ATOM     22  C   UNL     1       1.209   9.714  18.449  0.00  0.00    +0.000 C 
ATOM     23  C   UNL     1       1.141   9.487  19.968  0.00  0.00    +0.000 C 
ATOM     24  C   UNL     1       1.082   8.001  20.327  0.00  0.00    +0.000 C 
BRANCH  22  25
ATOM     25  C   UNL     1      -0.095   9.326  17.709  0.00  0.00    +0.000 C 
BRANCH  25  26
ATOM     26  C   UNL     1      -1.268  10.183  18.112  0.00  0.00    +0.000 A 
ATOM     27  C   UNL     1      -2.567   9.837  17.724  0.00  0.00    +0.000 A 
ATOM     28  C   UNL     1      -3.641  10.683  18.003  0.00  0.00    +0.000 A 
ATOM     29  C   UNL     1      -3.426  11.874  18.692  0.00  0.00    +0.000 A 
ATOM     30  C   UNL     1      -2.143  12.208  19.123  0.00  0.00    +0.000 A 
ATOM     31  C   UNL     1      -1.068  11.366  18.840  0.00  0.00    +0.000 A 
ENDBRANCH  25  26
ENDBRANCH  22  25
ENDBRANCH  18  19
ENDBRANCH  17  18
ENDBRANCH   1  17
TORSDOF 7
ENDMDL
MODEL 3
REMARK VINA RESULT:      -7.5      7.141      8.659
REMARK  Name = 
REMARK  8 active torsions:
REMARK  status: ('A' for Active; 'I' for Inactive)
REMARK    1  A    between atoms: C_1  and  O_2
REMARK    2  A    between atoms: O_2  and  C_3
REMARK    3  A    between atoms: N_10  and  S_11
REMARK    4  A    between atoms: S_11  and  C_14
REMARK    5  A    between atoms: C_14  and  C_15
REMARK    6  A    between atoms: C_15  and  N_16
REMARK    7  A    between atoms: C_19  and  C_20
REMARK    8  A    between atoms: C_20  and  C_21
REMARK                            x       y       z     vdW  Elec       q    Type
REMARK                         _______ _______ _______ _____ _____    ______ ____
ROOT
ATOM      1  S   UNL     1       9.925  11.209  18.963  0.00  0.00    +0.000 S 
ATOM      2  O   UNL     1       9.711  11.597  17.583  0.00  0.00    +0.000 OA
ATOM      3  O   UNL     1      11.255  11.163  19.533  0.00  0.00    +0.000 OA
ENDROOT
BRANCH   1  11
ATOM      4  C   UNL     1       6.414  12.076  23.882  0.00  0.00    +0.000 A 
ATOM      5  C   UNL     1       6.166  13.431  24.077  0.00  0.00    +0.000 A 
ATOM      6  C   UNL     1       6.948  14.386  23.428  0.00  0.00    +0.000 A 
ATOM      7  C   UNL     1       7.967  13.990  22.555  0.00  0.00    +0.000 A 
ATOM      8  C   UNL     1       8.218  12.627  22.327  0.00  0.00    +0.000 A 
ATOM      9  C   UNL     1       7.422  11.674  23.001  0.00  0.00    +0.000 A 
ATOM     10  C   UNL     1       9.338  12.160  21.415  0.00  0.00    +0.000 C 
ATOM     11  N   UNL     1       9.055  12.341  19.951  0.00  0.00    +0.000 NA
ATOM     12  C   UNL     1       9.409  13.742  19.492  0.00  0.00    +0.000 C 
ATOM     13  C   UNL     1       8.489  14.827  20.031  0.00  0.00    +0.000 C 
ATOM     14  S   UNL     1       8.878  15.288  21.746  0.00  0.00    +0.000 S 
BRANCH   4  16
ATOM     15  C   UNL     1       5.756  11.238  25.983  0.00  0.00    +0.000 C 
ATOM     16  O   UNL     1       5.590  11.227  24.569  0.00  0.00    +0.000 OA
ENDBRANCH   4  16
ENDBRANCH   1  11
BRANCH   1  17
ATOM     17  C   UNL     1       9.041   9.671  19.233  0.00  0.00    +0.000 C 
BRANCH  17  18
ATOM     18  C   UNL     1       8.206   9.287  18.011  0.00  0.00    +0.000 C 
BRANCH  18  19
ATOM     19  N   UNL     1       8.014   7.842  17.809  0.00  0.00    +0.000 NA
ATOM     20  C   UNL     1       8.211   7.047  19.025  0.00  0.00    +0.000 C 
ATOM     21  C   UNL     1       8.050   5.550  18.763  0.00  0.00    +0.000 C 
ATOM     22  C   UNL     1       6.694   5.223  18.133  0.00  0.00    +0.000 C 
ATOM     23  C   UNL     1       6.556   6.067  16.856  0.00  0.00    +0.000 C 
ATOM     24  C   UNL     1       6.743   7.562  17.129  0.00  0.00    +0.000 C 
BRANCH  22  25
ATOM     25  C   UNL     1       5.541   5.443  19.144  0.00  0.00    +0.000 C 
BRANCH  25  26
ATOM     26  C   UNL     1       4.281   4.710  18.756  0.00  0.00    +0.000 A 
ATOM     27  C   UNL     1       4.231   3.312  18.800  0.00  0.00    +0.000 A 
ATOM     28  C   UNL     1       3.105   2.627  18.341  0.00  0.00    +0.000 A 
ATOM     29  C   UNL     1       2.012   3.338  17.851  0.00  0.00    +0.000 A 
ATOM     30  C   UNL     1       2.033   4.732  17.845  0.00  0.00    +0.000 A 
ATOM     31  C   UNL     1       3.159   5.417  18.298  0.00  0.00    +0.000 A 
ENDBRANCH  25  26
ENDBRANCH  22  25
ENDBRANCH  18  19
ENDBRANCH  17  18
ENDBRANCH   1  17
TORSDOF 7
ENDMDL
MODEL 4
REMARK VINA RESULT:      -7.5      2.284      2.573
REMARK  Name = 
REMARK  8 active torsions:
REMARK  status: ('A' for Active; 'I' for Inactive)
REMARK    1  A    between atoms: C_1  and  O_2
REMARK    2  A    between atoms: O_2  and  C_3
REMARK    3  A    between atoms: N_10  and  S_11
REMARK    4  A    between atoms: S_11  and  C_14
REMARK    5  A    between atoms: C_14  and  C_15
REMARK    6  A    between atoms: C_15  and  N_16
REMARK    7  A    between atoms: C_19  and  C_20
REMARK    8  A    between atoms: C_20  and  C_21
REMARK                            x       y       z     vdW  Elec       q    Type
REMARK                         _______ _______ _______ _____ _____    ______ ____
ROOT
ATOM      1  S   UNL     1       0.339  10.333  19.134  0.00  0.00    +0.000 S 
ATOM      2  O   UNL     1       0.734   9.678  17.903  0.00  0.00    +0.000 OA
ATOM      3  O   UNL     1       0.892  11.616  19.514  0.00  0.00    +0.000 OA
ENDROOT
BRANCH   1  11
ATOM      4  C   UNL     1      -4.577  12.991  21.593  0.00  0.00    +0.000 A 
ATOM      5  C   UNL     1      -5.702  12.773  20.804  0.00  0.00    +0.000 A 
ATOM      6  C   UNL     1      -5.558  12.333  19.488  0.00  0.00    +0.000 A 
ATOM      7  C   UNL     1      -4.287  12.080  18.962  0.00  0.00    +0.000 A 
ATOM      8  C   UNL     1      -3.140  12.272  19.751  0.00  0.00    +0.000 A 
ATOM      9  C   UNL     1      -3.304  12.728  21.078  0.00  0.00    +0.000 A 
ATOM     10  C   UNL     1      -1.743  12.043  19.203  0.00  0.00    +0.000 C 
ATOM     11  N   UNL     1      -1.375  10.595  19.043  0.00  0.00    +0.000 NA
ATOM     12  C   UNL     1      -1.869  10.048  17.718  0.00  0.00    +0.000 C 
ATOM     13  C   UNL     1      -3.381   9.902  17.626  0.00  0.00    +0.000 C 
ATOM     14  S   UNL     1      -4.217  11.482  17.287  0.00  0.00    +0.000 S 
BRANCH   4  16
ATOM     15  C   UNL     1      -4.095  12.765  23.887  0.00  0.00    +0.000 C 
ATOM     16  O   UNL     1      -4.833  13.425  22.865  0.00  0.00    +0.000 OA
ENDBRANCH   4  16
ENDBRANCH   1  11
BRANCH   1  17
ATOM     17  C   UNL     1       0.495   9.133  20.458  0.00  0.00    +0.000 C 
BRANCH  17  18
ATOM     18  C   UNL     1       1.818   8.371  20.366  0.00  0.00    +0.000 C 
BRANCH  18  19
ATOM     19  N   UNL     1       1.745   7.057  19.709  0.00  0.00    +0.000 NA
ATOM     20  C   UNL     1       2.608   6.941  18.530  0.00  0.00    +0.000 C 
ATOM     21  C   UNL     1       2.467   5.580  17.849  0.00  0.00    +0.000 C 
ATOM     22  C   UNL     1       2.740   4.426  18.817  0.00  0.00    +0.000 C 
ATOM     23  C   UNL     1       1.794   4.590  20.017  0.00  0.00    +0.000 C 
ATOM     24  C   UNL     1       1.928   5.965  20.675  0.00  0.00    +0.000 C 
BRANCH  22  25
ATOM     25  C   UNL     1       4.236   4.373  19.214  0.00  0.00    +0.000 C 
BRANCH  25  26
ATOM     26  C   UNL     1       5.156   4.472  18.022  0.00  0.00    +0.000 A 
ATOM     27  C   UNL     1       4.870   3.772  16.845  0.00  0.00    +0.000 A 
ATOM     28  C   UNL     1       5.772   3.776  15.780  0.00  0.00    +0.000 A 
ATOM     29  C   UNL     1       6.961   4.496  15.879  0.00  0.00    +0.000 A 
ATOM     30  C   UNL     1       7.235   5.233  17.030  0.00  0.00    +0.000 A 
ATOM     31  C   UNL     1       6.337   5.226  18.097  0.00  0.00    +0.000 A 
ENDBRANCH  25  26
ENDBRANCH  22  25
ENDBRANCH  18  19
ENDBRANCH  17  18
ENDBRANCH   1  17
TORSDOF 7
ENDMDL
MODEL 5
REMARK VINA RESULT:      -7.3      1.681      2.065
REMARK  Name = 
REMARK  8 active torsions:
REMARK  status: ('A' for Active; 'I' for Inactive)
REMARK    1  A    between atoms: C_1  and  O_2
REMARK    2  A    between atoms: O_2  and  C_3
REMARK    3  A    between atoms: N_10  and  S_11
REMARK    4  A    between atoms: S_11  and  C_14
REMARK    5  A    between atoms: C_14  and  C_15
REMARK    6  A    between atoms: C_15  and  N_16
REMARK    7  A    between atoms: C_19  and  C_20
REMARK    8  A    between atoms: C_20  and  C_21
REMARK                            x       y       z     vdW  Elec       q    Type
REMARK                         _______ _______ _______ _____ _____    ______ ____
ROOT
ATOM      1  S   UNL     1       0.356  10.400  19.212  0.00  0.00    +0.000 S 
ATOM      2  O   UNL     1      -0.549   9.941  18.177  0.00  0.00    +0.000 OA
ATOM      3  O   UNL     1       1.710  10.807  18.900  0.00  0.00    +0.000 OA
ENDROOT
BRANCH   1  11
ATOM      4  C   UNL     1      -3.224  12.579  23.652  0.00  0.00    +0.000 A 
ATOM      5  C   UNL     1      -3.263  13.969  23.616  0.00  0.00    +0.000 A 
ATOM      6  C   UNL     1      -2.305  14.677  22.889  0.00  0.00    +0.000 A 
ATOM      7  C   UNL     1      -1.318  13.995  22.169  0.00  0.00    +0.000 A 
ATOM      8  C   UNL     1      -1.277  12.591  22.174  0.00  0.00    +0.000 A 
ATOM      9  C   UNL     1      -2.248  11.891  22.924  0.00  0.00    +0.000 A 
ATOM     10  C   UNL     1      -0.199  11.819  21.435  0.00  0.00    +0.000 C 
ATOM     11  N   UNL     1      -0.373  11.796  19.943  0.00  0.00    +0.000 NA
ATOM     12  C   UNL     1       0.225  13.034  19.302  0.00  0.00    +0.000 C 
ATOM     13  C   UNL     1      -0.537  14.319  19.594  0.00  0.00    +0.000 C 
ATOM     14  S   UNL     1      -0.170  14.992  21.243  0.00  0.00    +0.000 S 
BRANCH   4  16
ATOM     15  C   UNL     1      -5.465  12.653  24.372  0.00  0.00    +0.000 C 
ATOM     16  O   UNL     1      -4.208  11.988  24.395  0.00  0.00    +0.000 OA
ENDBRANCH   4  16
ENDBRANCH   1  11
BRANCH   1  17
ATOM     17  C   UNL     1       0.323   9.187  20.533  0.00  0.00    +0.000 C 
BRANCH  17  18
ATOM     18  C   UNL     1       1.623   8.385  20.588  0.00  0.00    +0.000 C 
BRANCH  18  19
ATOM     19  N   UNL     1       1.625   7.134  19.815  0.00  0.00    +0.000 NA
ATOM     20  C   UNL     1       2.574   7.135  18.697  0.00  0.00    +0.000 C 
ATOM     21  C   UNL     1       2.511   5.838  17.892  0.00  0.00    +0.000 C 
ATOM     22  C   UNL     1       2.736   4.606  18.773  0.00  0.00    +0.000 C 
ATOM     23  C   UNL     1       1.701   4.650  19.909  0.00  0.00    +0.000 C 
ATOM     24  C   UNL     1       1.758   5.963  20.692  0.00  0.00    +0.000 C 
BRANCH  22  25
ATOM     25  C   UNL     1       4.199   4.538  19.275  0.00  0.00    +0.000 C 
BRANCH  25  26
ATOM     26  C   UNL     1       5.195   4.424  18.147  0.00  0.00    +0.000 A 
ATOM     27  C   UNL     1       6.513   4.864  18.316  0.00  0.00    +0.000 A 
ATOM     28  C   UNL     1       7.405   4.859  17.244  0.00  0.00    +0.000 A 
ATOM     29  C   UNL     1       6.991   4.395  15.997  0.00  0.00    +0.000 A 
ATOM     30  C   UNL     1       5.695   3.913  15.829  0.00  0.00    +0.000 A 
ATOM     31  C   UNL     1       4.799   3.922  16.898  0.00  0.00    +0.000 A 
ENDBRANCH  25  26
ENDBRANCH  22  25
ENDBRANCH  18  19
ENDBRANCH  17  18
ENDBRANCH   1  17
TORSDOF 7
ENDMDL
MODEL 6
REMARK VINA RESULT:      -7.3      4.419     10.945
REMARK  Name = 
REMARK  8 active torsions:
REMARK  status: ('A' for Active; 'I' for Inactive)
REMARK    1  A    between atoms: C_1  and  O_2
REMARK    2  A    between atoms: O_2  and  C_3
REMARK    3  A    between atoms: N_10  and  S_11
REMARK    4  A    between atoms: S_11  and  C_14
REMARK    5  A    between atoms: C_14  and  C_15
REMARK    6  A    between atoms: C_15  and  N_16
REMARK    7  A    between atoms: C_19  and  C_20
REMARK    8  A    between atoms: C_20  and  C_21
REMARK                            x       y       z     vdW  Elec       q    Type
REMARK                         _______ _______ _______ _____ _____    ______ ____
ROOT
ATOM      1  S   UNL     1       2.632   5.030  19.118  0.00  0.00    +0.000 S 
ATOM      2  O   UNL     1       1.744   4.107  18.438  0.00  0.00    +0.000 OA
ATOM      3  O   UNL     1       2.938   4.881  20.525  0.00  0.00    +0.000 OA
ENDROOT
BRANCH   1  11
ATOM      4  C   UNL     1       5.626   4.210  13.860  0.00  0.00    +0.000 A 
ATOM      5  C   UNL     1       6.994   4.388  14.039  0.00  0.00    +0.000 A 
ATOM      6  C   UNL     1       7.472   5.024  15.185  0.00  0.00    +0.000 A 
ATOM      7  C   UNL     1       6.584   5.461  16.174  0.00  0.00    +0.000 A 
ATOM      8  C   UNL     1       5.200   5.269  16.022  0.00  0.00    +0.000 A 
ATOM      9  C   UNL     1       4.734   4.632  14.851  0.00  0.00    +0.000 A 
ATOM     10  C   UNL     1       4.205   5.763  17.056  0.00  0.00    +0.000 C 
ATOM     11  N   UNL     1       4.168   4.942  18.314  0.00  0.00    +0.000 NA
ATOM     12  C   UNL     1       5.240   5.387  19.290  0.00  0.00    +0.000 C 
ATOM     13  C   UNL     1       6.660   5.056  18.853  0.00  0.00    +0.000 C 
ATOM     14  S   UNL     1       7.301   6.223  17.614  0.00  0.00    +0.000 S 
BRANCH   4  16
ATOM     15  C   UNL     1       6.291   2.795  12.099  0.00  0.00    +0.000 C 
ATOM     16  O   UNL     1       5.266   3.577  12.702  0.00  0.00    +0.000 OA
ENDBRANCH   4  16
ENDBRANCH   1  11
BRANCH   1  17
ATOM     17  C   UNL     1       2.072   6.692  18.740  0.00  0.00    +0.000 C 
BRANCH  17  18
ATOM     18  C   UNL     1       2.157   7.602  19.965  0.00  0.00    +0.000 C 
BRANCH  18  19
ATOM     19  N   UNL     1       1.510   8.915  19.821  0.00  0.00    +0.000 NA
ATOM     20  C   UNL     1       0.976   9.163  18.479  0.00  0.00    +0.000 C 
ATOM     21  C   UNL     1       0.356  10.555  18.357  0.00  0.00    +0.000 C 
ATOM     22  C   UNL     1      -0.732  10.790  19.409  0.00  0.00    +0.000 C 
ATOM     23  C   UNL     1      -0.108  10.537  20.790  0.00  0.00    +0.000 C 
ATOM     24  C   UNL     1       0.531   9.149  20.891  0.00  0.00    +0.000 C 
BRANCH  22  25
ATOM     25  C   UNL     1      -1.979   9.915  19.126  0.00  0.00    +0.000 C 
BRANCH  25  26
ATOM     26  C   UNL     1      -2.666  10.285  17.835  0.00  0.00    +0.000 A 
ATOM     27  C   UNL     1      -2.232   9.745  16.620  0.00  0.00    +0.000 A 
ATOM     28  C   UNL     1      -2.795  10.166  15.414  0.00  0.00    +0.000 A 
ATOM     29  C   UNL     1      -3.812  11.119  15.418  0.00  0.00    +0.000 A 
ATOM     30  C   UNL     1      -4.283  11.631  16.625  0.00  0.00    +0.000 A 
ATOM     31  C   UNL     1      -3.717  11.215  17.831  0.00  0.00    +0.000 A 
ENDBRANCH  25  26
ENDBRANCH  22  25
ENDBRANCH  18  19
ENDBRANCH  17  18
ENDBRANCH   1  17
TORSDOF 7
ENDMDL
MODEL 7
REMARK VINA RESULT:      -7.3      2.695      4.521
REMARK  Name = 
REMARK  8 active torsions:
REMARK  status: ('A' for Active; 'I' for Inactive)
REMARK    1  A    between atoms: C_1  and  O_2
REMARK    2  A    between atoms: O_2  and  C_3
REMARK    3  A    between atoms: N_10  and  S_11
REMARK    4  A    between atoms: S_11  and  C_14
REMARK    5  A    between atoms: C_14  and  C_15
REMARK    6  A    between atoms: C_15  and  N_16
REMARK    7  A    between atoms: C_19  and  C_20
REMARK    8  A    between atoms: C_20  and  C_21
REMARK                            x       y       z     vdW  Elec       q    Type
REMARK                         _______ _______ _______ _____ _____    ______ ____
ROOT
ATOM      1  S   UNL     1       1.446   9.470  18.091  0.00  0.00    +0.000 S 
ATOM      2  O   UNL     1       0.238   9.148  17.357  0.00  0.00    +0.000 OA
ATOM      3  O   UNL     1       2.350  10.504  17.633  0.00  0.00    +0.000 OA
ENDROOT
BRANCH   1  11
ATOM      4  C   UNL     1      -1.556  13.578  21.465  0.00  0.00    +0.000 A 
ATOM      5  C   UNL     1      -1.567  13.202  22.804  0.00  0.00    +0.000 A 
ATOM      6  C   UNL     1      -1.250  11.893  23.166  0.00  0.00    +0.000 A 
ATOM      7  C   UNL     1      -0.891  10.957  22.189  0.00  0.00    +0.000 A 
ATOM      8  C   UNL     1      -0.851  11.324  20.834  0.00  0.00    +0.000 A 
ATOM      9  C   UNL     1      -1.186  12.652  20.486  0.00  0.00    +0.000 A 
ATOM     10  C   UNL     1      -0.502  10.327  19.744  0.00  0.00    +0.000 C 
ATOM     11  N   UNL     1       0.958   9.974  19.679  0.00  0.00    +0.000 NA
ATOM     12  C   UNL     1       1.297   8.865  20.654  0.00  0.00    +0.000 C 
ATOM     13  C   UNL     1       1.236   9.279  22.118  0.00  0.00    +0.000 C 
ATOM     14  S   UNL     1      -0.464   9.326  22.761  0.00  0.00    +0.000 S 
BRANCH   4  16
ATOM     15  C   UNL     1      -2.300  15.623  22.366  0.00  0.00    +0.000 C 
ATOM     16  O   UNL     1      -1.886  14.883  21.223  0.00  0.00    +0.000 OA
ENDBRANCH   4  16
ENDBRANCH   1  11
BRANCH   1  17
ATOM     17  C   UNL     1       2.312   7.930  18.402  0.00  0.00    +0.000 C 
BRANCH  17  18
ATOM     18  C   UNL     1       3.532   7.782  17.493  0.00  0.00    +0.000 C 
BRANCH  18  19
ATOM     19  N   UNL     1       4.416   6.649  17.805  0.00  0.00    +0.000 NA
ATOM     20  C   UNL     1       4.044   5.932  19.028  0.00  0.00    +0.000 C 
ATOM     21  C   UNL     1       5.013   4.793  19.342  0.00  0.00    +0.000 C 
ATOM     22  C   UNL     1       5.140   3.812  18.175  0.00  0.00    +0.000 C 
ATOM     23  C   UNL     1       5.552   4.616  16.931  0.00  0.00    +0.000 C 
ATOM     24  C   UNL     1       4.586   5.767  16.642  0.00  0.00    +0.000 C 
BRANCH  22  25
ATOM     25  C   UNL     1       3.833   3.004  17.981  0.00  0.00    +0.000 C 
BRANCH  25  26
ATOM     26  C   UNL     1       2.966   2.997  19.216  0.00  0.00    +0.000 A 
ATOM     27  C   UNL     1       3.469   2.521  20.433  0.00  0.00    +0.000 A 
ATOM     28  C   UNL     1       2.639   2.414  21.549  0.00  0.00    +0.000 A 
ATOM     29  C   UNL     1       1.304   2.801  21.462  0.00  0.00    +0.000 A 
ATOM     30  C   UNL     1       0.804   3.318  20.269  0.00  0.00    +0.000 A 
ATOM     31  C   UNL     1       1.630   3.421  19.150  0.00  0.00    +0.000 A 
ENDBRANCH  25  26
ENDBRANCH  22  25
ENDBRANCH  18  19
ENDBRANCH  17  18
ENDBRANCH   1  17
TORSDOF 7
ENDMDL
MODEL 8
REMARK VINA RESULT:      -7.3      4.051     10.420
REMARK  Name = 
REMARK  8 active torsions:
REMARK  status: ('A' for Active; 'I' for Inactive)
REMARK    1  A    between atoms: C_1  and  O_2
REMARK    2  A    between atoms: O_2  and  C_3
REMARK    3  A    between atoms: N_10  and  S_11
REMARK    4  A    between atoms: S_11  and  C_14
REMARK    5  A    between atoms: C_14  and  C_15
REMARK    6  A    between atoms: C_15  and  N_16
REMARK    7  A    between atoms: C_19  and  C_20
REMARK    8  A    between atoms: C_20  and  C_21
REMARK                            x       y       z     vdW  Elec       q    Type
REMARK                         _______ _______ _______ _____ _____    ______ ____
ROOT
ATOM      1  S   UNL     1       1.801   4.758  20.787  0.00  0.00    +0.000 S 
ATOM      2  O   UNL     1       0.486   4.259  20.436  0.00  0.00    +0.000 OA
ATOM      3  O   UNL     1       2.584   4.142  21.837  0.00  0.00    +0.000 OA
ENDROOT
BRANCH   1  11
ATOM      4  C   UNL     1       7.160   6.012  18.142  0.00  0.00    +0.000 A 
ATOM      5  C   UNL     1       7.226   5.448  16.873  0.00  0.00    +0.000 A 
ATOM      6  C   UNL     1       6.322   4.453  16.501  0.00  0.00    +0.000 A 
ATOM      7  C   UNL     1       5.324   4.037  17.389  0.00  0.00    +0.000 A 
ATOM      8  C   UNL     1       5.226   4.612  18.668  0.00  0.00    +0.000 A 
ATOM      9  C   UNL     1       6.157   5.610  19.030  0.00  0.00    +0.000 A 
ATOM     10  C   UNL     1       4.180   4.160  19.670  0.00  0.00    +0.000 C 
ATOM     11  N   UNL     1       2.788   4.635  19.364  0.00  0.00    +0.000 NA
ATOM     12  C   UNL     1       2.095   3.707  18.385  0.00  0.00    +0.000 C 
ATOM     13  C   UNL     1       2.661   3.754  16.972  0.00  0.00    +0.000 C 
ATOM     14  S   UNL     1       4.196   2.793  16.800  0.00  0.00    +0.000 S 
BRANCH   4  16
ATOM     15  C   UNL     1       7.826   8.249  17.831  0.00  0.00    +0.000 C 
ATOM     16  O   UNL     1       8.096   6.975  18.403  0.00  0.00    +0.000 OA
ENDBRANCH   4  16
ENDBRANCH   1  11
BRANCH   1  17
ATOM     17  C   UNL     1       1.657   6.530  21.028  0.00  0.00    +0.000 C 
BRANCH  17  18
ATOM     18  C   UNL     1       2.218   7.303  19.835  0.00  0.00    +0.000 C 
BRANCH  18  19
ATOM     19  N   UNL     1       1.697   8.668  19.667  0.00  0.00    +0.000 NA
ATOM     20  C   UNL     1       1.785   9.166  18.291  0.00  0.00    +0.000 C 
ATOM     21  C   UNL     1       1.278  10.602  18.168  0.00  0.00    +0.000 C 
ATOM     22  C   UNL     1      -0.152  10.751  18.692  0.00  0.00    +0.000 C 
ATOM     23  C   UNL     1      -0.175  10.235  20.140  0.00  0.00    +0.000 C 
ATOM     24  C   UNL     1       0.357   8.805  20.252  0.00  0.00    +0.000 C 
BRANCH  22  25
ATOM     25  C   UNL     1      -1.163  10.031  17.765  0.00  0.00    +0.000 C 
BRANCH  25  26
ATOM     26  C   UNL     1      -2.487  10.749  17.682  0.00  0.00    +0.000 A 
ATOM     27  C   UNL     1      -2.981  11.458  18.783  0.00  0.00    +0.000 A 
ATOM     28  C   UNL     1      -4.252  12.033  18.744  0.00  0.00    +0.000 A 
ATOM     29  C   UNL     1      -5.031  11.920  17.596  0.00  0.00    +0.000 A 
ATOM     30  C   UNL     1      -4.532  11.255  16.477  0.00  0.00    +0.000 A 
ATOM     31  C   UNL     1      -3.264  10.675  16.516  0.00  0.00    +0.000 A 
ENDBRANCH  25  26
ENDBRANCH  22  25
ENDBRANCH  18  19
ENDBRANCH  17  18
ENDBRANCH   1  17
TORSDOF 7
ENDMDL
MODEL 9
REMARK VINA RESULT:      -7.3      2.355      2.720
REMARK  Name = 
REMARK  8 active torsions:
REMARK  status: ('A' for Active; 'I' for Inactive)
REMARK    1  A    between atoms: C_1  and  O_2
REMARK    2  A    between atoms: O_2  and  C_3
REMARK    3  A    between atoms: N_10  and  S_11
REMARK    4  A    between atoms: S_11  and  C_14
REMARK    5  A    between atoms: C_14  and  C_15
REMARK    6  A    between atoms: C_15  and  N_16
REMARK    7  A    between atoms: C_19  and  C_20
REMARK    8  A    between atoms: C_20  and  C_21
REMARK                            x       y       z     vdW  Elec       q    Type
REMARK                         _______ _______ _______ _____ _____    ______ ____
ROOT
ATOM      1  S   UNL     1      -0.156  10.582  19.141  0.00  0.00    +0.000 S 
ATOM      2  O   UNL     1       0.191   9.896  17.912  0.00  0.00    +0.000 OA
ATOM      3  O   UNL     1       0.394  11.883  19.457  0.00  0.00    +0.000 OA
ENDROOT
BRANCH   1  11
ATOM      4  C   UNL     1      -5.032  12.962  21.942  0.00  0.00    +0.000 A 
ATOM      5  C   UNL     1      -6.178  12.779  21.175  0.00  0.00    +0.000 A 
ATOM      6  C   UNL     1      -6.070  12.438  19.827  0.00  0.00    +0.000 A 
ATOM      7  C   UNL     1      -4.813  12.248  19.244  0.00  0.00    +0.000 A 
ATOM      8  C   UNL     1      -3.644  12.404  20.008  0.00  0.00    +0.000 A 
ATOM      9  C   UNL     1      -3.772  12.761  21.369  0.00  0.00    +0.000 A 
ATOM     10  C   UNL     1      -2.263  12.242  19.400  0.00  0.00    +0.000 C 
ATOM     11  N   UNL     1      -1.876  10.817  19.124  0.00  0.00    +0.000 NA
ATOM     12  C   UNL     1      -2.404  10.357  17.779  0.00  0.00    +0.000 C 
ATOM     13  C   UNL     1      -3.916  10.190  17.725  0.00  0.00    +0.000 C 
ATOM     14  S   UNL     1      -4.789  11.773  17.528  0.00  0.00    +0.000 S 
BRANCH   4  16
ATOM     15  C   UNL     1      -6.568  13.753  23.542  0.00  0.00    +0.000 C 
ATOM     16  O   UNL     1      -5.252  13.298  23.249  0.00  0.00    +0.000 OA
ENDBRANCH   4  16
ENDBRANCH   1  11
BRANCH   1  17
ATOM     17  C   UNL     1       0.081   9.423  20.490  0.00  0.00    +0.000 C 
BRANCH  17  18
ATOM     18  C   UNL     1       1.480   8.807  20.456  0.00  0.00    +0.000 C 
BRANCH  18  19
ATOM     19  N   UNL     1       1.573   7.490  19.808  0.00  0.00    +0.000 NA
ATOM     20  C   UNL     1       2.446   7.475  18.630  0.00  0.00    +0.000 C 
ATOM     21  C   UNL     1       2.478   6.102  17.959  0.00  0.00    +0.000 C 
ATOM     22  C   UNL     1       2.891   4.998  18.935  0.00  0.00    +0.000 C 
ATOM     23  C   UNL     1       1.930   5.050  20.133  0.00  0.00    +0.000 C 
ATOM     24  C   UNL     1       1.890   6.436  20.781  0.00  0.00    +0.000 C 
BRANCH  22  25
ATOM     25  C   UNL     1       4.382   5.135  19.333  0.00  0.00    +0.000 C 
BRANCH  25  26
ATOM     26  C   UNL     1       5.309   5.060  18.146  0.00  0.00    +0.000 A 
ATOM     27  C   UNL     1       6.305   6.025  17.961  0.00  0.00    +0.000 A 
ATOM     28  C   UNL     1       7.094   6.019  16.810  0.00  0.00    +0.000 A 
ATOM     29  C   UNL     1       6.904   5.035  15.842  0.00  0.00    +0.000 A 
ATOM     30  C   UNL     1       5.946   4.043  16.037  0.00  0.00    +0.000 A 
ATOM     31  C   UNL     1       5.152   4.050  17.184  0.00  0.00    +0.000 A 
ENDBRANCH  25  26
ENDBRANCH  22  25
ENDBRANCH  18  19
ENDBRANCH  17  18
ENDBRANCH   1  17
TORSDOF 7
ENDMDL
