MODEL 1
REMARK VINA RESULT:      -8.0      0.000      0.000
REMARK  Name = 
REMARK  7 active torsions:
REMARK  status: ('A' for Active; 'I' for Inactive)
REMARK    1  A    between atoms: C_1  and  C_2
REMARK    2  A    between atoms: C_5  and  C_6
REMARK    3  A    between atoms: C_6  and  C_7
REMARK    4  A    between atoms: C_7  and  C_9
REMARK    5  A    between atoms: C_11  and  O_12
REMARK    6  A    between atoms: C_13  and  O_14
REMARK    7  A    between atoms: C_15  and  N_16
REMARK                            x       y       z     vdW  Elec       q    Type
REMARK                         _______ _______ _______ _____ _____    ______ ____
ROOT
ATOM      1  C   UNL     1       4.646   6.229  17.479  0.00  0.00    +0.000 A 
ATOM      2  C   UNL     1       5.428   5.966  18.617  0.00  0.00    +0.000 A 
ATOM      3  C   UNL     1       6.640   5.295  18.494  0.00  0.00    +0.000 A 
ATOM      4  C   UNL     1       7.094   4.863  17.251  0.00  0.00    +0.000 A 
ATOM      5  C   UNL     1       6.335   5.149  16.123  0.00  0.00    +0.000 A 
ATOM      6  C   UNL     1       5.109   5.834  16.214  0.00  0.00    +0.000 A 
ENDROOT
BRANCH   5   7
ATOM      7  N   UNL     1       6.779   4.710  14.814  0.00  0.00    +0.000 N 
ATOM      8  O   UNL     1       6.190   3.754  14.300  0.00  0.00    +0.000 OA
ATOM      9  O   UNL     1       7.776   5.285  14.348  0.00  0.00    +0.000 OA
ENDBRANCH   5   7
BRANCH   1  10
ATOM     10  C   UNL     1       3.330   6.900  17.690  0.00  0.00    +0.000 C 
ATOM     11  O   UNL     1       3.308   8.131  17.757  0.00  0.00    +0.000 OA
BRANCH  10  12
ATOM     12  C   UNL     1       2.064   6.089  17.847  0.00  0.00    +0.000 C 
BRANCH  12  17
ATOM     13  C   UNL     1       1.199   2.265  22.095  0.00  0.00    +0.000 C 
ATOM     14  C   UNL     1       1.662   3.147  20.972  0.00  0.00    +0.000 A 
ATOM     15  C   UNL     1       2.189   4.412  21.242  0.00  0.00    +0.000 A 
ATOM     16  C   UNL     1       2.408   5.321  20.203  0.00  0.00    +0.000 A 
ATOM     17  C   UNL     1       2.096   4.984  18.878  0.00  0.00    +0.000 A 
ATOM     18  C   UNL     1       1.647   3.686  18.605  0.00  0.00    +0.000 A 
ATOM     19  C   UNL     1       1.434   2.776  19.643  0.00  0.00    +0.000 A 
ENDBRANCH  12  17
ENDBRANCH  10  12
ENDBRANCH   1  10
BRANCH   3  20
ATOM     20  O   UNL     1       7.418   5.020  19.585  0.00  0.00    +0.000 OA
ATOM     21  H   UNL     1       6.892   5.170  20.392  0.00  0.00    +0.000 HD
ENDBRANCH   3  20
BRANCH   4  22
ATOM     22  O   UNL     1       8.255   4.146  17.196  0.00  0.00    +0.000 OA
ATOM     23  H   UNL     1       8.430   3.854  18.113  0.00  0.00    +0.000 HD
ENDBRANCH   4  22
TORSDOF 6
ENDMDL
MODEL 2
REMARK VINA RESULT:      -8.0      0.305      1.094
REMARK  Name = 
REMARK  7 active torsions:
REMARK  status: ('A' for Active; 'I' for Inactive)
REMARK    1  A    between atoms: C_1  and  C_2
REMARK    2  A    between atoms: C_5  and  C_6
REMARK    3  A    between atoms: C_6  and  C_7
REMARK    4  A    between atoms: C_7  and  C_9
REMARK    5  A    between atoms: C_11  and  O_12
REMARK    6  A    between atoms: C_13  and  O_14
REMARK    7  A    between atoms: C_15  and  N_16
REMARK                            x       y       z     vdW  Elec       q    Type
REMARK                         _______ _______ _______ _____ _____    ______ ____
ROOT
ATOM      1  C   UNL     1       4.632   6.263  17.590  0.00  0.00    +0.000 A 
ATOM      2  C   UNL     1       5.358   6.000  18.765  0.00  0.00    +0.000 A 
ATOM      3  C   UNL     1       6.570   5.321  18.702  0.00  0.00    +0.000 A 
ATOM      4  C   UNL     1       7.080   4.882  17.484  0.00  0.00    +0.000 A 
ATOM      5  C   UNL     1       6.377   5.168  16.319  0.00  0.00    +0.000 A 
ATOM      6  C   UNL     1       5.152   5.860  16.350  0.00  0.00    +0.000 A 
ENDROOT
BRANCH   5   7
ATOM      7  N   UNL     1       6.880   4.721  15.035  0.00  0.00    +0.000 N 
ATOM      8  O   UNL     1       6.357   3.722  14.530  0.00  0.00    +0.000 OA
ATOM      9  O   UNL     1       7.858   5.337  14.582  0.00  0.00    +0.000 OA
ENDBRANCH   5   7
BRANCH   1  10
ATOM     10  C   UNL     1       3.312   6.943  17.736  0.00  0.00    +0.000 C 
ATOM     11  O   UNL     1       3.301   8.160  17.929  0.00  0.00    +0.000 OA
BRANCH  10  12
ATOM     12  C   UNL     1       2.024   6.152  17.678  0.00  0.00    +0.000 C 
BRANCH  12  17
ATOM     13  C   UNL     1       1.982   2.211  21.907  0.00  0.00    +0.000 C 
ATOM     14  C   UNL     1       1.743   3.279  20.880  0.00  0.00    +0.000 A 
ATOM     15  C   UNL     1       1.390   2.933  19.573  0.00  0.00    +0.000 A 
ATOM     16  C   UNL     1       1.389   3.900  18.564  0.00  0.00    +0.000 A 
ATOM     17  C   UNL     1       1.749   5.227  18.841  0.00  0.00    +0.000 A 
ATOM     18  C   UNL     1       2.020   5.584  20.168  0.00  0.00    +0.000 A 
ATOM     19  C   UNL     1       2.015   4.618  21.178  0.00  0.00    +0.000 A 
ENDBRANCH  12  17
ENDBRANCH  10  12
ENDBRANCH   1  10
BRANCH   3  20
ATOM     20  O   UNL     1       7.293   5.046  19.829  0.00  0.00    +0.000 OA
ATOM     21  H   UNL     1       8.227   4.920  19.581  0.00  0.00    +0.000 HD
ENDBRANCH   3  20
BRANCH   4  22
ATOM     22  O   UNL     1       8.237   4.158  17.487  0.00  0.00    +0.000 OA
ATOM     23  H   UNL     1       8.566   4.186  18.408  0.00  0.00    +0.000 HD
ENDBRANCH   4  22
TORSDOF 6
ENDMDL
MODEL 3
REMARK VINA RESULT:      -7.9      2.086      3.703
REMARK  Name = 
REMARK  7 active torsions:
REMARK  status: ('A' for Active; 'I' for Inactive)
REMARK    1  A    between atoms: C_1  and  C_2
REMARK    2  A    between atoms: C_5  and  C_6
REMARK    3  A    between atoms: C_6  and  C_7
REMARK    4  A    between atoms: C_7  and  C_9
REMARK    5  A    between atoms: C_11  and  O_12
REMARK    6  A    between atoms: C_13  and  O_14
REMARK    7  A    between atoms: C_15  and  N_16
REMARK                            x       y       z     vdW  Elec       q    Type
REMARK                         _______ _______ _______ _____ _____    ______ ____
ROOT
ATOM      1  C   UNL     1       4.762   3.841  16.869  0.00  0.00    +0.000 A 
ATOM      2  C   UNL     1       5.040   3.410  15.561  0.00  0.00    +0.000 A 
ATOM      3  C   UNL     1       6.108   3.956  14.856  0.00  0.00    +0.000 A 
ATOM      4  C   UNL     1       6.910   4.941  15.424  0.00  0.00    +0.000 A 
ATOM      5  C   UNL     1       6.653   5.346  16.729  0.00  0.00    +0.000 A 
ATOM      6  C   UNL     1       5.586   4.806  17.470  0.00  0.00    +0.000 A 
ENDROOT
BRANCH   5   7
ATOM      7  N   UNL     1       7.468   6.373  17.348  0.00  0.00    +0.000 N 
ATOM      8  O   UNL     1       7.782   7.349  16.659  0.00  0.00    +0.000 OA
ATOM      9  O   UNL     1       7.855   6.145  18.505  0.00  0.00    +0.000 OA
ENDBRANCH   5   7
BRANCH   1  10
ATOM     10  C   UNL     1       3.567   3.257  17.546  0.00  0.00    +0.000 C 
ATOM     11  O   UNL     1       3.646   2.104  17.976  0.00  0.00    +0.000 OA
BRANCH  10  12
ATOM     12  C   UNL     1       2.285   4.049  17.672  0.00  0.00    +0.000 C 
BRANCH  12  17
ATOM     13  C   UNL     1       1.242   8.506  21.203  0.00  0.00    +0.000 C 
ATOM     14  C   UNL     1       1.755   7.351  20.393  0.00  0.00    +0.000 A 
ATOM     15  C   UNL     1       2.239   7.559  19.099  0.00  0.00    +0.000 A 
ATOM     16  C   UNL     1       2.502   6.471  18.262  0.00  0.00    +0.000 A 
ATOM     17  C   UNL     1       2.277   5.158  18.699  0.00  0.00    +0.000 A 
ATOM     18  C   UNL     1       1.871   4.954  20.025  0.00  0.00    +0.000 A 
ATOM     19  C   UNL     1       1.615   6.041  20.863  0.00  0.00    +0.000 A 
ENDBRANCH  12  17
ENDBRANCH  10  12
ENDBRANCH   1  10
BRANCH   3  20
ATOM     20  O   UNL     1       6.397   3.560  13.579  0.00  0.00    +0.000 OA
ATOM     21  H   UNL     1       6.984   4.222  13.170  0.00  0.00    +0.000 HD
ENDBRANCH   3  20
BRANCH   4  22
ATOM     22  O   UNL     1       7.899   5.493  14.662  0.00  0.00    +0.000 OA
ATOM     23  H   UNL     1       7.986   6.418  14.969  0.00  0.00    +0.000 HD
ENDBRANCH   4  22
TORSDOF 6
ENDMDL
MODEL 4
REMARK VINA RESULT:      -7.8      2.543      4.455
REMARK  Name = 
REMARK  7 active torsions:
REMARK  status: ('A' for Active; 'I' for Inactive)
REMARK    1  A    between atoms: C_1  and  C_2
REMARK    2  A    between atoms: C_5  and  C_6
REMARK    3  A    between atoms: C_6  and  C_7
REMARK    4  A    between atoms: C_7  and  C_9
REMARK    5  A    between atoms: C_11  and  O_12
REMARK    6  A    between atoms: C_13  and  O_14
REMARK    7  A    between atoms: C_15  and  N_16
REMARK                            x       y       z     vdW  Elec       q    Type
REMARK                         _______ _______ _______ _____ _____    ______ ____
ROOT
ATOM      1  C   UNL     1       4.122   4.844  18.185  0.00  0.00    +0.000 A 
ATOM      2  C   UNL     1       4.397   4.210  16.961  0.00  0.00    +0.000 A 
ATOM      3  C   UNL     1       5.707   4.110  16.503  0.00  0.00    +0.000 A 
ATOM      4  C   UNL     1       6.762   4.644  17.238  0.00  0.00    +0.000 A 
ATOM      5  C   UNL     1       6.493   5.244  18.462  0.00  0.00    +0.000 A 
ATOM      6  C   UNL     1       5.179   5.352  18.955  0.00  0.00    +0.000 A 
ENDROOT
BRANCH   5   7
ATOM      7  N   UNL     1       7.570   5.812  19.249  0.00  0.00    +0.000 N 
ATOM      8  O   UNL     1       8.217   6.739  18.751  0.00  0.00    +0.000 OA
ATOM      9  O   UNL     1       7.808   5.261  20.336  0.00  0.00    +0.000 OA
ENDBRANCH   5   7
BRANCH   1  10
ATOM     10  C   UNL     1       2.690   4.967  18.588  0.00  0.00    +0.000 C 
ATOM     11  O   UNL     1       1.834   4.456  17.862  0.00  0.00    +0.000 OA
BRANCH  10  12
ATOM     12  C   UNL     1       2.300   5.726  19.837  0.00  0.00    +0.000 C 
BRANCH  12  17
ATOM     13  C   UNL     1       0.370  11.066  18.755  0.00  0.00    +0.000 C 
ATOM     14  C   UNL     1       1.094   9.800  19.111  0.00  0.00    +0.000 A 
ATOM     15  C   UNL     1       1.742   9.058  18.121  0.00  0.00    +0.000 A 
ATOM     16  C   UNL     1       2.218   7.774  18.402  0.00  0.00    +0.000 A 
ATOM     17  C   UNL     1       2.046   7.206  19.673  0.00  0.00    +0.000 A 
ATOM     18  C   UNL     1       1.470   7.988  20.683  0.00  0.00    +0.000 A 
ATOM     19  C   UNL     1       1.000   9.274  20.403  0.00  0.00    +0.000 A 
ENDBRANCH  12  17
ENDBRANCH  10  12
ENDBRANCH   1  10
BRANCH   3  20
ATOM     20  O   UNL     1       6.003   3.505  15.314  0.00  0.00    +0.000 OA
ATOM     21  H   UNL     1       5.362   2.788  15.158  0.00  0.00    +0.000 HD
ENDBRANCH   3  20
BRANCH   4  22
ATOM     22  O   UNL     1       8.019   4.582  16.708  0.00  0.00    +0.000 OA
ATOM     23  H   UNL     1       8.096   5.355  16.113  0.00  0.00    +0.000 HD
ENDBRANCH   4  22
TORSDOF 6
ENDMDL
MODEL 5
REMARK VINA RESULT:      -7.8      0.779      1.536
REMARK  Name = 
REMARK  7 active torsions:
REMARK  status: ('A' for Active; 'I' for Inactive)
REMARK    1  A    between atoms: C_1  and  C_2
REMARK    2  A    between atoms: C_5  and  C_6
REMARK    3  A    between atoms: C_6  and  C_7
REMARK    4  A    between atoms: C_7  and  C_9
REMARK    5  A    between atoms: C_11  and  O_12
REMARK    6  A    between atoms: C_13  and  O_14
REMARK    7  A    between atoms: C_15  and  N_16
REMARK                            x       y       z     vdW  Elec       q    Type
REMARK                         _______ _______ _______ _____ _____    ______ ____
ROOT
ATOM      1  C   UNL     1       4.745   6.560  17.469  0.00  0.00    +0.000 A 
ATOM      2  C   UNL     1       5.496   6.160  18.588  0.00  0.00    +0.000 A 
ATOM      3  C   UNL     1       6.630   5.371  18.424  0.00  0.00    +0.000 A 
ATOM      4  C   UNL     1       7.034   4.955  17.159  0.00  0.00    +0.000 A 
ATOM      5  C   UNL     1       6.308   5.376  16.051  0.00  0.00    +0.000 A 
ATOM      6  C   UNL     1       5.162   6.182  16.183  0.00  0.00    +0.000 A 
ENDROOT
BRANCH   5   7
ATOM      7  N   UNL     1       6.702   4.957  14.719  0.00  0.00    +0.000 N 
ATOM      8  O   UNL     1       7.768   5.393  14.273  0.00  0.00    +0.000 OA
ATOM      9  O   UNL     1       5.888   4.254  14.099  0.00  0.00    +0.000 OA
ENDBRANCH   5   7
BRANCH   1  10
ATOM     10  C   UNL     1       3.508   7.357  17.721  0.00  0.00    +0.000 C 
ATOM     11  O   UNL     1       3.181   8.204  16.888  0.00  0.00    +0.000 OA
BRANCH  10  12
ATOM     12  C   UNL     1       2.697   7.149  18.980  0.00  0.00    +0.000 C 
BRANCH  12  17
ATOM     13  C   UNL     1       1.082   1.616  19.423  0.00  0.00    +0.000 C 
ATOM     14  C   UNL     1       1.242   3.104  19.310  0.00  0.00    +0.000 A 
ATOM     15  C   UNL     1       1.426   3.700  18.060  0.00  0.00    +0.000 A 
ATOM     16  C   UNL     1       1.800   5.043  17.968  0.00  0.00    +0.000 A 
ATOM     17  C   UNL     1       2.008   5.811  19.123  0.00  0.00    +0.000 A 
ATOM     18  C   UNL     1       1.742   5.231  20.370  0.00  0.00    +0.000 A 
ATOM     19  C   UNL     1       1.361   3.890  20.461  0.00  0.00    +0.000 A 
ENDBRANCH  12  17
ENDBRANCH  10  12
ENDBRANCH   1  10
BRANCH   3  20
ATOM     20  O   UNL     1       7.375   4.961  19.495  0.00  0.00    +0.000 OA
ATOM     21  H   UNL     1       6.878   4.278  19.981  0.00  0.00    +0.000 HD
ENDBRANCH   3  20
BRANCH   4  22
ATOM     22  O   UNL     1       8.112   4.123  17.062  0.00  0.00    +0.000 OA
ATOM     23  H   UNL     1       8.894   4.707  16.995  0.00  0.00    +0.000 HD
ENDBRANCH   4  22
TORSDOF 6
ENDMDL
MODEL 6
REMARK VINA RESULT:      -7.7      2.189      4.004
REMARK  Name = 
REMARK  7 active torsions:
REMARK  status: ('A' for Active; 'I' for Inactive)
REMARK    1  A    between atoms: C_1  and  C_2
REMARK    2  A    between atoms: C_5  and  C_6
REMARK    3  A    between atoms: C_6  and  C_7
REMARK    4  A    between atoms: C_7  and  C_9
REMARK    5  A    between atoms: C_11  and  O_12
REMARK    6  A    between atoms: C_13  and  O_14
REMARK    7  A    between atoms: C_15  and  N_16
REMARK                            x       y       z     vdW  Elec       q    Type
REMARK                         _______ _______ _______ _____ _____    ______ ____
ROOT
ATOM      1  C   UNL     1       5.004   4.245  17.994  0.00  0.00    +0.000 A 
ATOM      2  C   UNL     1       5.110   3.625  16.737  0.00  0.00    +0.000 A 
ATOM      3  C   UNL     1       6.046   4.073  15.811  0.00  0.00    +0.000 A 
ATOM      4  C   UNL     1       6.885   5.145  16.106  0.00  0.00    +0.000 A 
ATOM      5  C   UNL     1       6.801   5.738  17.360  0.00  0.00    +0.000 A 
ATOM      6  C   UNL     1       5.870   5.301  18.320  0.00  0.00    +0.000 A 
ENDROOT
BRANCH   5   7
ATOM      7  N   UNL     1       7.659   6.858  17.696  0.00  0.00    +0.000 N 
ATOM      8  O   UNL     1       8.257   6.817  18.776  0.00  0.00    +0.000 OA
ATOM      9  O   UNL     1       7.659   7.811  16.901  0.00  0.00    +0.000 OA
ENDBRANCH   5   7
BRANCH   1  10
ATOM     10  C   UNL     1       3.939   3.753  18.916  0.00  0.00    +0.000 C 
ATOM     11  O   UNL     1       4.223   2.851  19.707  0.00  0.00    +0.000 OA
BRANCH  10  12
ATOM     12  C   UNL     1       2.541   4.326  18.858  0.00  0.00    +0.000 C 
BRANCH  12  17
ATOM     13  C   UNL     1       1.017   9.871  19.455  0.00  0.00    +0.000 C 
ATOM     14  C   UNL     1       1.651   8.512  19.379  0.00  0.00    +0.000 A 
ATOM     15  C   UNL     1       2.138   8.029  18.163  0.00  0.00    +0.000 A 
ATOM     16  C   UNL     1       2.519   6.690  18.037  0.00  0.00    +0.000 A 
ATOM     17  C   UNL     1       2.409   5.808  19.123  0.00  0.00    +0.000 A 
ATOM     18  C   UNL     1       1.999   6.319  20.361  0.00  0.00    +0.000 A 
ATOM     19  C   UNL     1       1.625   7.659  20.487  0.00  0.00    +0.000 A 
ENDBRANCH  12  17
ENDBRANCH  10  12
ENDBRANCH   1  10
BRANCH   3  20
ATOM     20  O   UNL     1       6.166   3.493  14.579  0.00  0.00    +0.000 OA
ATOM     21  H   UNL     1       6.848   2.799  14.623  0.00  0.00    +0.000 HD
ENDBRANCH   3  20
BRANCH   4  22
ATOM     22  O   UNL     1       7.736   5.589  15.135  0.00  0.00    +0.000 OA
ATOM     23  H   UNL     1       7.669   6.565  15.149  0.00  0.00    +0.000 HD
ENDBRANCH   4  22
TORSDOF 6
ENDMDL
MODEL 7
REMARK VINA RESULT:      -7.7      2.419      3.367
REMARK  Name = 
REMARK  7 active torsions:
REMARK  status: ('A' for Active; 'I' for Inactive)
REMARK    1  A    between atoms: C_1  and  C_2
REMARK    2  A    between atoms: C_5  and  C_6
REMARK    3  A    between atoms: C_6  and  C_7
REMARK    4  A    between atoms: C_7  and  C_9
REMARK    5  A    between atoms: C_11  and  O_12
REMARK    6  A    between atoms: C_13  and  O_14
REMARK    7  A    between atoms: C_15  and  N_16
REMARK                            x       y       z     vdW  Elec       q    Type
REMARK                         _______ _______ _______ _____ _____    ______ ____
ROOT
ATOM      1  C   UNL     1       4.267   5.693  17.765  0.00  0.00    +0.000 A 
ATOM      2  C   UNL     1       5.026   5.594  18.944  0.00  0.00    +0.000 A 
ATOM      3  C   UNL     1       6.348   5.164  18.892  0.00  0.00    +0.000 A 
ATOM      4  C   UNL     1       6.938   4.816  17.680  0.00  0.00    +0.000 A 
ATOM      5  C   UNL     1       6.197   4.943  16.511  0.00  0.00    +0.000 A 
ATOM      6  C   UNL     1       4.861   5.383  16.531  0.00  0.00    +0.000 A 
ENDROOT
BRANCH   5   7
ATOM      7  N   UNL     1       6.783   4.585  15.234  0.00  0.00    +0.000 N 
ATOM      8  O   UNL     1       7.720   5.276  14.820  0.00  0.00    +0.000 OA
ATOM      9  O   UNL     1       6.237   3.657  14.618  0.00  0.00    +0.000 OA
ENDBRANCH   5   7
BRANCH   1  10
ATOM     10  C   UNL     1       2.839   6.104  17.899  0.00  0.00    +0.000 C 
ATOM     11  O   UNL     1       1.993   5.225  18.075  0.00  0.00    +0.000 OA
BRANCH  10  12
ATOM     12  C   UNL     1       2.439   7.558  17.791  0.00  0.00    +0.000 C 
BRANCH  12  17
ATOM     13  C   UNL     1      -0.425   9.709  22.329  0.00  0.00    +0.000 C 
ATOM     14  C   UNL     1       0.526   9.280  21.250  0.00  0.00    +0.000 A 
ATOM     15  C   UNL     1       0.578   9.975  20.039  0.00  0.00    +0.000 A 
ATOM     16  C   UNL     1       1.288   9.451  18.955  0.00  0.00    +0.000 A 
ATOM     17  C   UNL     1       1.950   8.218  19.059  0.00  0.00    +0.000 A 
ATOM     18  C   UNL     1       1.963   7.568  20.300  0.00  0.00    +0.000 A 
ATOM     19  C   UNL     1       1.259   8.096  21.385  0.00  0.00    +0.000 A 
ENDBRANCH  12  17
ENDBRANCH  10  12
ENDBRANCH   1  10
BRANCH   3  20
ATOM     20  O   UNL     1       7.107   5.051  20.024  0.00  0.00    +0.000 OA
ATOM     21  H   UNL     1       7.865   4.468  19.837  0.00  0.00    +0.000 HD
ENDBRANCH   3  20
BRANCH   4  22
ATOM     22  O   UNL     1       8.215   4.332  17.695  0.00  0.00    +0.000 OA
ATOM     23  H   UNL     1       8.280   3.728  16.928  0.00  0.00    +0.000 HD
ENDBRANCH   4  22
TORSDOF 6
ENDMDL
MODEL 8
REMARK VINA RESULT:      -7.6      1.297      2.449
REMARK  Name = 
REMARK  7 active torsions:
REMARK  status: ('A' for Active; 'I' for Inactive)
REMARK    1  A    between atoms: C_1  and  C_2
REMARK    2  A    between atoms: C_5  and  C_6
REMARK    3  A    between atoms: C_6  and  C_7
REMARK    4  A    between atoms: C_7  and  C_9
REMARK    5  A    between atoms: C_11  and  O_12
REMARK    6  A    between atoms: C_13  and  O_14
REMARK    7  A    between atoms: C_15  and  N_16
REMARK                            x       y       z     vdW  Elec       q    Type
REMARK                         _______ _______ _______ _____ _____    ______ ____
ROOT
ATOM      1  C   UNL     1       4.539   5.986  17.541  0.00  0.00    +0.000 A 
ATOM      2  C   UNL     1       4.680   4.949  16.602  0.00  0.00    +0.000 A 
ATOM      3  C   UNL     1       5.897   4.290  16.464  0.00  0.00    +0.000 A 
ATOM      4  C   UNL     1       6.996   4.649  17.240  0.00  0.00    +0.000 A 
ATOM      5  C   UNL     1       6.848   5.654  18.188  0.00  0.00    +0.000 A 
ATOM      6  C   UNL     1       5.627   6.333  18.358  0.00  0.00    +0.000 A 
ENDROOT
BRANCH   5   7
ATOM      7  N   UNL     1       7.974   6.053  19.010  0.00  0.00    +0.000 N 
ATOM      8  O   UNL     1       8.354   5.266  19.884  0.00  0.00    +0.000 OA
ATOM      9  O   UNL     1       8.417   7.197  18.821  0.00  0.00    +0.000 OA
ENDBRANCH   5   7
BRANCH   1  10
ATOM     10  C   UNL     1       3.225   6.689  17.596  0.00  0.00    +0.000 C 
ATOM     11  O   UNL     1       3.212   7.914  17.458  0.00  0.00    +0.000 OA
BRANCH  10  12
ATOM     12  C   UNL     1       1.946   5.921  17.845  0.00  0.00    +0.000 C 
BRANCH  12  17
ATOM     13  C   UNL     1       1.183   2.228  22.226  0.00  0.00    +0.000 C 
ATOM     14  C   UNL     1       1.619   3.074  21.066  0.00  0.00    +0.000 A 
ATOM     15  C   UNL     1       2.159   4.344  21.283  0.00  0.00    +0.000 A 
ATOM     16  C   UNL     1       2.353   5.220  20.212  0.00  0.00    +0.000 A 
ATOM     17  C   UNL     1       2.002   4.847  18.906  0.00  0.00    +0.000 A 
ATOM     18  C   UNL     1       1.539   3.543  18.684  0.00  0.00    +0.000 A 
ATOM     19  C   UNL     1       1.352   2.665  19.755  0.00  0.00    +0.000 A 
ENDBRANCH  12  17
ENDBRANCH  10  12
ENDBRANCH   1  10
BRANCH   3  20
ATOM     20  O   UNL     1       6.064   3.283  15.554  0.00  0.00    +0.000 OA
ATOM     21  H   UNL     1       5.692   2.461  15.923  0.00  0.00    +0.000 HD
ENDBRANCH   3  20
BRANCH   4  22
ATOM     22  O   UNL     1       8.185   4.018  17.013  0.00  0.00    +0.000 OA
ATOM     23  H   UNL     1       8.708   4.134  17.832  0.00  0.00    +0.000 HD
ENDBRANCH   4  22
TORSDOF 6
ENDMDL
MODEL 9
REMARK VINA RESULT:      -7.6      2.617      4.530
REMARK  Name = 
REMARK  7 active torsions:
REMARK  status: ('A' for Active; 'I' for Inactive)
REMARK    1  A    between atoms: C_1  and  C_2
REMARK    2  A    between atoms: C_5  and  C_6
REMARK    3  A    between atoms: C_6  and  C_7
REMARK    4  A    between atoms: C_7  and  C_9
REMARK    5  A    between atoms: C_11  and  O_12
REMARK    6  A    between atoms: C_13  and  O_14
REMARK    7  A    between atoms: C_15  and  N_16
REMARK                            x       y       z     vdW  Elec       q    Type
REMARK                         _______ _______ _______ _____ _____    ______ ____
ROOT
ATOM      1  C   UNL     1       4.163   4.944  18.405  0.00  0.00    +0.000 A 
ATOM      2  C   UNL     1       4.371   4.304  17.170  0.00  0.00    +0.000 A 
ATOM      3  C   UNL     1       5.659   4.151  16.669  0.00  0.00    +0.000 A 
ATOM      4  C   UNL     1       6.760   4.635  17.370  0.00  0.00    +0.000 A 
ATOM      5  C   UNL     1       6.557   5.240  18.604  0.00  0.00    +0.000 A 
ATOM      6  C   UNL     1       5.266   5.402  19.141  0.00  0.00    +0.000 A 
ENDROOT
BRANCH   5   7
ATOM      7  N   UNL     1       7.683   5.757  19.358  0.00  0.00    +0.000 N 
ATOM      8  O   UNL     1       7.900   5.268  20.472  0.00  0.00    +0.000 OA
ATOM      9  O   UNL     1       8.293   6.712  18.852  0.00  0.00    +0.000 OA
ENDBRANCH   5   7
BRANCH   1  10
ATOM     10  C   UNL     1       2.752   5.127  18.855  0.00  0.00    +0.000 C 
ATOM     11  O   UNL     1       1.873   4.463  18.302  0.00  0.00    +0.000 OA
BRANCH  10  12
ATOM     12  C   UNL     1       2.409   6.124  19.939  0.00  0.00    +0.000 C 
BRANCH  12  17
ATOM     13  C   UNL     1       1.347  11.668  18.692  0.00  0.00    +0.000 C 
ATOM     14  C   UNL     1       1.386  10.183  18.906  0.00  0.00    +0.000 A 
ATOM     15  C   UNL     1       1.007   9.638  20.136  0.00  0.00    +0.000 A 
ATOM     16  C   UNL     1       1.255   8.292  20.417  0.00  0.00    +0.000 A 
ATOM     17  C   UNL     1       1.896   7.469  19.479  0.00  0.00    +0.000 A 
ATOM     18  C   UNL     1       2.198   8.000  18.219  0.00  0.00    +0.000 A 
ATOM     19  C   UNL     1       1.944   9.344  17.936  0.00  0.00    +0.000 A 
ENDBRANCH  12  17
ENDBRANCH  10  12
ENDBRANCH   1  10
BRANCH   3  20
ATOM     20  O   UNL     1       5.890   3.539  15.468  0.00  0.00    +0.000 OA
ATOM     21  H   UNL     1       5.186   3.796  14.844  0.00  0.00    +0.000 HD
ENDBRANCH   3  20
BRANCH   4  22
ATOM     22  O   UNL     1       7.995   4.521  16.799  0.00  0.00    +0.000 OA
ATOM     23  H   UNL     1       8.584   5.101  17.322  0.00  0.00    +0.000 HD
ENDBRANCH   4  22
TORSDOF 6
ENDMDL
