MODEL 1
REMARK VINA RESULT:      -8.3      0.000      0.000
REMARK  Name = 
REMARK  8 active torsions:
REMARK  status: ('A' for Active; 'I' for Inactive)
REMARK    1  A    between atoms: C_4  and  O_5
REMARK    2  A    between atoms: O_5  and  C_6
REMARK    3  A    between atoms: C_10  and  C_11
REMARK    4  A    between atoms: C_11  and  N_12
REMARK    5  A    between atoms: N_15  and  C_16
REMARK    6  A    between atoms: C_16  and  C_17
REMARK    7  A    between atoms: C_21  and  O_22
REMARK    8  A    between atoms: O_22  and  C_23
REMARK                            x       y       z     vdW  Elec       q    Type
REMARK                         _______ _______ _______ _____ _____    ______ ____
ROOT
ATOM      1  N   UNL     1       1.776   8.284  20.794  0.00  0.00    +0.000 NA
ATOM      2  C   UNL     1       1.261   9.209  19.765  0.00  0.00    +0.000 C 
ATOM      3  C   UNL     1      -0.146   9.809  20.024  0.00  0.00    +0.000 C 
ATOM      4  N   UNL     1      -0.492  10.229  21.398  0.00  0.00    +0.000 NA
ATOM      5  C   UNL     1       0.192   9.425  22.427  0.00  0.00    +0.000 C 
ATOM      6  C   UNL     1       1.636   8.978  22.094  0.00  0.00    +0.000 C 
ENDROOT
BRANCH   1   7
ATOM      7  C   UNL     1       1.050   6.996  20.832  0.00  0.00    +0.000 C 
BRANCH   7  12
ATOM      8  C   UNL     1       3.379   4.782  18.778  0.00  0.00    +0.000 A 
ATOM      9  C   UNL     1       3.063   3.505  19.237  0.00  0.00    +0.000 A 
ATOM     10  C   UNL     1       2.119   3.342  20.253  0.00  0.00    +0.000 A 
ATOM     11  C   UNL     1       1.478   4.456  20.814  0.00  0.00    +0.000 A 
ATOM     12  C   UNL     1       1.780   5.746  20.367  0.00  0.00    +0.000 A 
ATOM     13  C   UNL     1       2.726   5.890  19.329  0.00  0.00    +0.000 A 
BRANCH   8  14
ATOM     14  O   UNL     1       4.261   4.848  17.721  0.00  0.00    +0.000 OA
BRANCH  14  18
ATOM     15  C   UNL     1       7.836   6.904  18.325  0.00  0.00    +0.000 A 
ATOM     16  C   UNL     1       6.931   7.386  17.380  0.00  0.00    +0.000 A 
ATOM     17  C   UNL     1       5.725   6.717  17.163  0.00  0.00    +0.000 A 
ATOM     18  C   UNL     1       5.438   5.547  17.868  0.00  0.00    +0.000 A 
ATOM     19  C   UNL     1       6.328   5.086  18.841  0.00  0.00    +0.000 A 
ATOM     20  C   UNL     1       7.530   5.762  19.065  0.00  0.00    +0.000 A 
ENDBRANCH  14  18
ENDBRANCH   8  14
ENDBRANCH   7  12
ENDBRANCH   1   7
BRANCH   4  21
ATOM     21  C   UNL     1      -0.325  11.663  21.639  0.00  0.00    +0.000 C 
BRANCH  21  22
ATOM     22  C   UNL     1      -1.596  12.370  22.070  0.00  0.00    +0.000 A 
ATOM     23  C   UNL     1      -1.733  12.960  23.334  0.00  0.00    +0.000 A 
ATOM     24  C   UNL     1      -2.895  13.666  23.666  0.00  0.00    +0.000 A 
ATOM     25  C   UNL     1      -3.902  13.840  22.715  0.00  0.00    +0.000 A 
ATOM     26  C   UNL     1      -3.758  13.291  21.442  0.00  0.00    +0.000 A 
ATOM     27  C   UNL     1      -2.648  12.492  21.155  0.00  0.00    +0.000 A 
BRANCH  26  28
ATOM     28  O   UNL     1      -4.751  13.564  20.526  0.00  0.00    +0.000 OA
BRANCH  28  29
ATOM     29  C   UNL     1      -5.472  12.518  19.984  0.00  0.00    +0.000 A 
ATOM     30  C   UNL     1      -5.178  12.188  18.661  0.00  0.00    +0.000 A 
ATOM     31  C   UNL     1      -5.889  11.174  18.016  0.00  0.00    +0.000 A 
ATOM     32  C   UNL     1      -6.901  10.491  18.691  0.00  0.00    +0.000 A 
ATOM     33  C   UNL     1      -7.171  10.788  20.024  0.00  0.00    +0.000 A 
ATOM     34  C   UNL     1      -6.433  11.773  20.681  0.00  0.00    +0.000 A 
ENDBRANCH  28  29
ENDBRANCH  26  28
ENDBRANCH  21  22
ENDBRANCH   4  21
TORSDOF 8
ENDMDL
MODEL 2
REMARK VINA RESULT:      -8.2      2.414     10.790
REMARK  Name = 
REMARK  8 active torsions:
REMARK  status: ('A' for Active; 'I' for Inactive)
REMARK    1  A    between atoms: C_4  and  O_5
REMARK    2  A    between atoms: O_5  and  C_6
REMARK    3  A    between atoms: C_10  and  C_11
REMARK    4  A    between atoms: C_11  and  N_12
REMARK    5  A    between atoms: N_15  and  C_16
REMARK    6  A    between atoms: C_16  and  C_17
REMARK    7  A    between atoms: C_21  and  O_22
REMARK    8  A    between atoms: O_22  and  C_23
REMARK                            x       y       z     vdW  Elec       q    Type
REMARK                         _______ _______ _______ _____ _____    ______ ____
ROOT
ATOM      1  N   UNL     1       0.259  10.525  19.192  0.00  0.00    +0.000 NA
ATOM      2  C   UNL     1       1.155   9.885  20.175  0.00  0.00    +0.000 C 
ATOM      3  C   UNL     1       1.584   8.427  19.866  0.00  0.00    +0.000 C 
ATOM      4  N   UNL     1       1.917   8.071  18.471  0.00  0.00    +0.000 NA
ATOM      5  C   UNL     1       1.160   8.865  17.486  0.00  0.00    +0.000 C 
ATOM      6  C   UNL     1       0.889  10.341  17.865  0.00  0.00    +0.000 C 
ENDROOT
BRANCH   1   7
ATOM      7  C   UNL     1      -1.103   9.947  19.185  0.00  0.00    +0.000 C 
BRANCH   7  12
ATOM      8  C   UNL     1      -4.089  11.558  17.445  0.00  0.00    +0.000 A 
ATOM      9  C   UNL     1      -4.017  11.020  16.162  0.00  0.00    +0.000 A 
ATOM     10  C   UNL     1      -2.972  10.157  15.825  0.00  0.00    +0.000 A 
ATOM     11  C   UNL     1      -1.993   9.821  16.772  0.00  0.00    +0.000 A 
ATOM     12  C   UNL     1      -2.048  10.349  18.065  0.00  0.00    +0.000 A 
ATOM     13  C   UNL     1      -3.120  11.208  18.392  0.00  0.00    +0.000 A 
BRANCH   8  14
ATOM     14  O   UNL     1      -5.194  12.336  17.718  0.00  0.00    +0.000 OA
BRANCH  14  18
ATOM     15  C   UNL     1      -7.378  11.652  21.201  0.00  0.00    +0.000 A 
ATOM     16  C   UNL     1      -6.622  12.820  21.096  0.00  0.00    +0.000 A 
ATOM     17  C   UNL     1      -5.886  13.073  19.937  0.00  0.00    +0.000 A 
ATOM     18  C   UNL     1      -5.880  12.142  18.896  0.00  0.00    +0.000 A 
ATOM     19  C   UNL     1      -6.667  10.992  18.987  0.00  0.00    +0.000 A 
ATOM     20  C   UNL     1      -7.412  10.745  20.143  0.00  0.00    +0.000 A 
ENDBRANCH  14  18
ENDBRANCH   8  14
ENDBRANCH   7  12
ENDBRANCH   1   7
BRANCH   4  21
ATOM     21  C   UNL     1       3.352   8.083  18.182  0.00  0.00    +0.000 C 
BRANCH  21  22
ATOM     22  C   UNL     1       3.866   6.806  17.544  0.00  0.00    +0.000 A 
ATOM     23  C   UNL     1       5.005   6.783  16.728  0.00  0.00    +0.000 A 
ATOM     24  C   UNL     1       5.490   5.573  16.219  0.00  0.00    +0.000 A 
ATOM     25  C   UNL     1       4.873   4.371  16.570  0.00  0.00    +0.000 A 
ATOM     26  C   UNL     1       3.763   4.379  17.414  0.00  0.00    +0.000 A 
ATOM     27  C   UNL     1       3.218   5.598  17.826  0.00  0.00    +0.000 A 
BRANCH  26  28
ATOM     28  O   UNL     1       3.250   3.156  17.786  0.00  0.00    +0.000 OA
BRANCH  28  29
ATOM     29  C   UNL     1       2.606   3.039  19.002  0.00  0.00    +0.000 A 
ATOM     30  C   UNL     1       3.420   2.792  20.108  0.00  0.00    +0.000 A 
ATOM     31  C   UNL     1       2.852   2.614  21.371  0.00  0.00    +0.000 A 
ATOM     32  C   UNL     1       1.467   2.676  21.531  0.00  0.00    +0.000 A 
ATOM     33  C   UNL     1       0.653   2.963  20.438  0.00  0.00    +0.000 A 
ATOM     34  C   UNL     1       1.224   3.182  19.185  0.00  0.00    +0.000 A 
ENDBRANCH  28  29
ENDBRANCH  26  28
ENDBRANCH  21  22
ENDBRANCH   4  21
TORSDOF 8
ENDMDL
MODEL 3
REMARK VINA RESULT:      -8.2      1.037      1.573
REMARK  Name = 
REMARK  8 active torsions:
REMARK  status: ('A' for Active; 'I' for Inactive)
REMARK    1  A    between atoms: C_4  and  O_5
REMARK    2  A    between atoms: O_5  and  C_6
REMARK    3  A    between atoms: C_10  and  C_11
REMARK    4  A    between atoms: C_11  and  N_12
REMARK    5  A    between atoms: N_15  and  C_16
REMARK    6  A    between atoms: C_16  and  C_17
REMARK    7  A    between atoms: C_21  and  O_22
REMARK    8  A    between atoms: O_22  and  C_23
REMARK                            x       y       z     vdW  Elec       q    Type
REMARK                         _______ _______ _______ _____ _____    ______ ____
ROOT
ATOM      1  N   UNL     1       1.661   8.623  20.926  0.00  0.00    +0.000 NA
ATOM      2  C   UNL     1       1.105   9.484  19.863  0.00  0.00    +0.000 C 
ATOM      3  C   UNL     1      -0.316  10.053  20.114  0.00  0.00    +0.000 C 
ATOM      4  N   UNL     1      -0.657  10.526  21.472  0.00  0.00    +0.000 NA
ATOM      5  C   UNL     1       0.065   9.793  22.527  0.00  0.00    +0.000 C 
ATOM      6  C   UNL     1       1.517   9.373  22.195  0.00  0.00    +0.000 C 
ENDROOT
BRANCH   1   7
ATOM      7  C   UNL     1       0.975   7.318  21.034  0.00  0.00    +0.000 C 
BRANCH   7  12
ATOM      8  C   UNL     1       3.213   5.289  18.707  0.00  0.00    +0.000 A 
ATOM      9  C   UNL     1       2.792   3.982  18.947  0.00  0.00    +0.000 A 
ATOM     10  C   UNL     1       1.804   3.732  19.901  0.00  0.00    +0.000 A 
ATOM     11  C   UNL     1       1.224   4.788  20.619  0.00  0.00    +0.000 A 
ATOM     12  C   UNL     1       1.631   6.106  20.392  0.00  0.00    +0.000 A 
ATOM     13  C   UNL     1       2.621   6.342  19.414  0.00  0.00    +0.000 A 
BRANCH   8  14
ATOM     14  O   UNL     1       4.135   5.455  17.695  0.00  0.00    +0.000 OA
BRANCH  14  18
ATOM     15  C   UNL     1       8.005   6.789  18.480  0.00  0.00    +0.000 A 
ATOM     16  C   UNL     1       7.482   5.745  19.243  0.00  0.00    +0.000 A 
ATOM     17  C   UNL     1       6.190   5.278  18.996  0.00  0.00    +0.000 A 
ATOM     18  C   UNL     1       5.407   5.878  18.006  0.00  0.00    +0.000 A 
ATOM     19  C   UNL     1       5.946   6.898  17.218  0.00  0.00    +0.000 A 
ATOM     20  C   UNL     1       7.242   7.357  17.459  0.00  0.00    +0.000 A 
ENDBRANCH  14  18
ENDBRANCH   8  14
ENDBRANCH   7  12
ENDBRANCH   1   7
BRANCH   4  21
ATOM     21  C   UNL     1      -0.531  11.975  21.643  0.00  0.00    +0.000 C 
BRANCH  21  22
ATOM     22  C   UNL     1      -1.612  12.592  22.510  0.00  0.00    +0.000 A 
ATOM     23  C   UNL     1      -1.347  13.638  23.405  0.00  0.00    +0.000 A 
ATOM     24  C   UNL     1      -2.386  14.229  24.132  0.00  0.00    +0.000 A 
ATOM     25  C   UNL     1      -3.705  13.820  23.926  0.00  0.00    +0.000 A 
ATOM     26  C   UNL     1      -3.983  12.807  23.009  0.00  0.00    +0.000 A 
ATOM     27  C   UNL     1      -2.930  12.145  22.371  0.00  0.00    +0.000 A 
BRANCH  26  28
ATOM     28  O   UNL     1      -5.309  12.504  22.794  0.00  0.00    +0.000 OA
BRANCH  28  29
ATOM     29  C   UNL     1      -5.886  12.831  21.583  0.00  0.00    +0.000 A 
ATOM     30  C   UNL     1      -6.693  11.852  21.001  0.00  0.00    +0.000 A 
ATOM     31  C   UNL     1      -7.280  12.077  19.754  0.00  0.00    +0.000 A 
ATOM     32  C   UNL     1      -7.056  13.278  19.082  0.00  0.00    +0.000 A 
ATOM     33  C   UNL     1      -6.285  14.275  19.675  0.00  0.00    +0.000 A 
ATOM     34  C   UNL     1      -5.733  14.066  20.939  0.00  0.00    +0.000 A 
ENDBRANCH  28  29
ENDBRANCH  26  28
ENDBRANCH  21  22
ENDBRANCH   4  21
TORSDOF 8
ENDMDL
MODEL 4
REMARK VINA RESULT:      -8.0      0.875      1.504
REMARK  Name = 
REMARK  8 active torsions:
REMARK  status: ('A' for Active; 'I' for Inactive)
REMARK    1  A    between atoms: C_4  and  O_5
REMARK    2  A    between atoms: O_5  and  C_6
REMARK    3  A    between atoms: C_10  and  C_11
REMARK    4  A    between atoms: C_11  and  N_12
REMARK    5  A    between atoms: N_15  and  C_16
REMARK    6  A    between atoms: C_16  and  C_17
REMARK    7  A    between atoms: C_21  and  O_22
REMARK    8  A    between atoms: O_22  and  C_23
REMARK                            x       y       z     vdW  Elec       q    Type
REMARK                         _______ _______ _______ _____ _____    ______ ____
ROOT
ATOM      1  N   UNL     1       2.009   7.630  20.590  0.00  0.00    +0.000 NA
ATOM      2  C   UNL     1       2.023   8.486  19.387  0.00  0.00    +0.000 C 
ATOM      3  C   UNL     1       0.691   9.197  19.033  0.00  0.00    +0.000 C 
ATOM      4  N   UNL     1      -0.118   9.765  20.132  0.00  0.00    +0.000 NA
ATOM      5  C   UNL     1       0.033   9.020  21.394  0.00  0.00    +0.000 C 
ATOM      6  C   UNL     1       1.443   8.451  21.685  0.00  0.00    +0.000 C 
ENDROOT
BRANCH   1   7
ATOM      7  C   UNL     1       1.204   6.401  20.418  0.00  0.00    +0.000 C 
BRANCH   7  12
ATOM      8  C   UNL     1       4.069   4.057  19.503  0.00  0.00    +0.000 A 
ATOM      9  C   UNL     1       3.398   2.929  19.034  0.00  0.00    +0.000 A 
ATOM     10  C   UNL     1       2.003   2.892  19.047  0.00  0.00    +0.000 A 
ATOM     11  C   UNL     1       1.266   3.987  19.524  0.00  0.00    +0.000 A 
ATOM     12  C   UNL     1       1.920   5.128  19.997  0.00  0.00    +0.000 A 
ATOM     13  C   UNL     1       3.332   5.153  19.963  0.00  0.00    +0.000 A 
BRANCH   8  14
ATOM     14  O   UNL     1       5.443   4.042  19.381  0.00  0.00    +0.000 OA
BRANCH  14  18
ATOM     15  C   UNL     1       7.291   7.212  17.403  0.00  0.00    +0.000 A 
ATOM     16  C   UNL     1       7.874   6.709  18.567  0.00  0.00    +0.000 A 
ATOM     17  C   UNL     1       7.276   5.646  19.244  0.00  0.00    +0.000 A 
ATOM     18  C   UNL     1       6.076   5.104  18.776  0.00  0.00    +0.000 A 
ATOM     19  C   UNL     1       5.514   5.583  17.590  0.00  0.00    +0.000 A 
ATOM     20  C   UNL     1       6.119   6.641  16.908  0.00  0.00    +0.000 A 
ENDBRANCH  14  18
ENDBRANCH   8  14
ENDBRANCH   7  12
ENDBRANCH   1   7
BRANCH   4  21
ATOM     21  C   UNL     1       0.079  11.202  20.330  0.00  0.00    +0.000 C 
BRANCH  21  22
ATOM     22  C   UNL     1      -1.028  11.876  21.120  0.00  0.00    +0.000 A 
ATOM     23  C   UNL     1      -0.871  12.243  22.463  0.00  0.00    +0.000 A 
ATOM     24  C   UNL     1      -1.890  12.929  23.135  0.00  0.00    +0.000 A 
ATOM     25  C   UNL     1      -3.048  13.304  22.451  0.00  0.00    +0.000 A 
ATOM     26  C   UNL     1      -3.196  12.978  21.104  0.00  0.00    +0.000 A 
ATOM     27  C   UNL     1      -2.226  12.196  20.472  0.00  0.00    +0.000 A 
BRANCH  26  28
ATOM     28  O   UNL     1      -4.325  13.445  20.467  0.00  0.00    +0.000 OA
BRANCH  28  29
ATOM     29  C   UNL     1      -5.183  12.541  19.871  0.00  0.00    +0.000 A 
ATOM     30  C   UNL     1      -6.206  12.041  20.677  0.00  0.00    +0.000 A 
ATOM     31  C   UNL     1      -7.093  11.088  20.173  0.00  0.00    +0.000 A 
ATOM     32  C   UNL     1      -6.956  10.627  18.864  0.00  0.00    +0.000 A 
ATOM     33  C   UNL     1      -5.962  11.152  18.042  0.00  0.00    +0.000 A 
ATOM     34  C   UNL     1      -5.102  12.135  18.532  0.00  0.00    +0.000 A 
ENDBRANCH  28  29
ENDBRANCH  26  28
ENDBRANCH  21  22
ENDBRANCH   4  21
TORSDOF 8
ENDMDL
MODEL 5
REMARK VINA RESULT:      -7.9      2.127     10.816
REMARK  Name = 
REMARK  8 active torsions:
REMARK  status: ('A' for Active; 'I' for Inactive)
REMARK    1  A    between atoms: C_4  and  O_5
REMARK    2  A    between atoms: O_5  and  C_6
REMARK    3  A    between atoms: C_10  and  C_11
REMARK    4  A    between atoms: C_11  and  N_12
REMARK    5  A    between atoms: N_15  and  C_16
REMARK    6  A    between atoms: C_16  and  C_17
REMARK    7  A    between atoms: C_21  and  O_22
REMARK    8  A    between atoms: O_22  and  C_23
REMARK                            x       y       z     vdW  Elec       q    Type
REMARK                         _______ _______ _______ _____ _____    ______ ____
ROOT
ATOM      1  N   UNL     1       1.060   9.836  20.045  0.00  0.00    +0.000 NA
ATOM      2  C   UNL     1       1.918   8.740  20.537  0.00  0.00    +0.000 C 
ATOM      3  C   UNL     1       2.104   7.532  19.582  0.00  0.00    +0.000 C 
ATOM      4  N   UNL     1       2.281   7.796  18.138  0.00  0.00    +0.000 NA
ATOM      5  C   UNL     1       1.584   9.016  17.693  0.00  0.00    +0.000 C 
ATOM      6  C   UNL     1       1.561  10.193  18.699  0.00  0.00    +0.000 C 
ENDROOT
BRANCH   1   7
ATOM      7  C   UNL     1      -0.369   9.464  19.967  0.00  0.00    +0.000 C 
BRANCH   7  12
ATOM      8  C   UNL     1      -2.626  12.524  20.258  0.00  0.00    +0.000 A 
ATOM      9  C   UNL     1      -3.356  12.474  19.072  0.00  0.00    +0.000 A 
ATOM     10  C   UNL     1      -3.099  11.471  18.136  0.00  0.00    +0.000 A 
ATOM     11  C   UNL     1      -2.112  10.505  18.381  0.00  0.00    +0.000 A 
ATOM     12  C   UNL     1      -1.369  10.536  19.565  0.00  0.00    +0.000 A 
ATOM     13  C   UNL     1      -1.653  11.550  20.507  0.00  0.00    +0.000 A 
BRANCH   8  14
ATOM     14  O   UNL     1      -2.997  13.498  21.161  0.00  0.00    +0.000 OA
BRANCH  14  18
ATOM     15  C   UNL     1      -5.571  12.570  24.305  0.00  0.00    +0.000 A 
ATOM     16  C   UNL     1      -4.194  12.487  24.512  0.00  0.00    +0.000 A 
ATOM     17  C   UNL     1      -3.313  12.797  23.476  0.00  0.00    +0.000 A 
ATOM     18  C   UNL     1      -3.808  13.159  22.221  0.00  0.00    +0.000 A 
ATOM     19  C   UNL     1      -5.186  13.278  22.025  0.00  0.00    +0.000 A 
ATOM     20  C   UNL     1      -6.067  12.978  23.066  0.00  0.00    +0.000 A 
ENDBRANCH  14  18
ENDBRANCH   8  14
ENDBRANCH   7  12
ENDBRANCH   1   7
BRANCH   4  21
ATOM     21  C   UNL     1       3.678   7.787  17.701  0.00  0.00    +0.000 C 
BRANCH  21  22
ATOM     22  C   UNL     1       4.131   6.470  17.101  0.00  0.00    +0.000 A 
ATOM     23  C   UNL     1       5.105   6.401  16.096  0.00  0.00    +0.000 A 
ATOM     24  C   UNL     1       5.548   5.162  15.620  0.00  0.00    +0.000 A 
ATOM     25  C   UNL     1       5.062   3.981  16.187  0.00  0.00    +0.000 A 
ATOM     26  C   UNL     1       4.122   4.040  17.214  0.00  0.00    +0.000 A 
ATOM     27  C   UNL     1       3.602   5.276  17.605  0.00  0.00    +0.000 A 
BRANCH  26  28
ATOM     28  O   UNL     1       3.742   2.844  17.784  0.00  0.00    +0.000 OA
BRANCH  28  29
ATOM     29  C   UNL     1       2.891   2.858  18.871  0.00  0.00    +0.000 A 
ATOM     30  C   UNL     1       3.495   2.770  20.126  0.00  0.00    +0.000 A 
ATOM     31  C   UNL     1       2.710   2.731  21.281  0.00  0.00    +0.000 A 
ATOM     32  C   UNL     1       1.319   2.774  21.184  0.00  0.00    +0.000 A 
ATOM     33  C   UNL     1       0.713   2.904  19.937  0.00  0.00    +0.000 A 
ATOM     34  C   UNL     1       1.498   2.985  18.787  0.00  0.00    +0.000 A 
ENDBRANCH  28  29
ENDBRANCH  26  28
ENDBRANCH  21  22
ENDBRANCH   4  21
TORSDOF 8
ENDMDL
MODEL 6
REMARK VINA RESULT:      -7.9      2.774     10.798
REMARK  Name = 
REMARK  8 active torsions:
REMARK  status: ('A' for Active; 'I' for Inactive)
REMARK    1  A    between atoms: C_4  and  O_5
REMARK    2  A    between atoms: O_5  and  C_6
REMARK    3  A    between atoms: C_10  and  C_11
REMARK    4  A    between atoms: C_11  and  N_12
REMARK    5  A    between atoms: N_15  and  C_16
REMARK    6  A    between atoms: C_16  and  C_17
REMARK    7  A    between atoms: C_21  and  O_22
REMARK    8  A    between atoms: O_22  and  C_23
REMARK                            x       y       z     vdW  Elec       q    Type
REMARK                         _______ _______ _______ _____ _____    ______ ____
ROOT
ATOM      1  N   UNL     1       0.500  10.023  18.803  0.00  0.00    +0.000 NA
ATOM      2  C   UNL     1       1.000   8.868  18.031  0.00  0.00    +0.000 C 
ATOM      3  C   UNL     1       2.100   8.012  18.712  0.00  0.00    +0.000 C 
ATOM      4  N   UNL     1       1.977   7.726  20.157  0.00  0.00    +0.000 NA
ATOM      5  C   UNL     1       1.288   8.802  20.893  0.00  0.00    +0.000 C 
ATOM      6  C   UNL     1       0.134   9.509  20.142  0.00  0.00    +0.000 C 
ENDROOT
BRANCH   1   7
ATOM      7  C   UNL     1       1.497  11.107  18.937  0.00  0.00    +0.000 C 
BRANCH   7  12
ATOM      8  C   UNL     1       0.323  13.771  21.401  0.00  0.00    +0.000 A 
ATOM      9  C   UNL     1      -0.051  14.816  20.560  0.00  0.00    +0.000 A 
ATOM     10  C   UNL     1       0.112  14.693  19.179  0.00  0.00    +0.000 A 
ATOM     11  C   UNL     1       0.645  13.518  18.627  0.00  0.00    +0.000 A 
ATOM     12  C   UNL     1       1.025  12.457  19.454  0.00  0.00    +0.000 A 
ATOM     13  C   UNL     1       0.840  12.594  20.847  0.00  0.00    +0.000 A 
BRANCH   8  14
ATOM     14  O   UNL     1       0.056  13.943  22.743  0.00  0.00    +0.000 OA
BRANCH  14  18
ATOM     15  C   UNL     1      -3.745  12.896  24.096  0.00  0.00    +0.000 A 
ATOM     16  C   UNL     1      -3.341  14.229  24.179  0.00  0.00    +0.000 A 
ATOM     17  C   UNL     1      -2.075  14.604  23.728  0.00  0.00    +0.000 A 
ATOM     18  C   UNL     1      -1.198  13.641  23.224  0.00  0.00    +0.000 A 
ATOM     19  C   UNL     1      -1.618  12.314  23.106  0.00  0.00    +0.000 A 
ATOM     20  C   UNL     1      -2.889  11.941  23.548  0.00  0.00    +0.000 A 
ENDBRANCH  14  18
ENDBRANCH   8  14
ENDBRANCH   7  12
ENDBRANCH   1   7
BRANCH   4  21
ATOM     21  C   UNL     1       1.398   6.416  20.455  0.00  0.00    +0.000 C 
BRANCH  21  22
ATOM     22  C   UNL     1       2.122   5.254  19.800  0.00  0.00    +0.000 A 
ATOM     23  C   UNL     1       1.450   4.280  19.050  0.00  0.00    +0.000 A 
ATOM     24  C   UNL     1       2.163   3.266  18.401  0.00  0.00    +0.000 A 
ATOM     25  C   UNL     1       3.558   3.253  18.449  0.00  0.00    +0.000 A 
ATOM     26  C   UNL     1       4.239   4.241  19.160  0.00  0.00    +0.000 A 
ATOM     27  C   UNL     1       3.516   5.183  19.897  0.00  0.00    +0.000 A 
BRANCH  26  28
ATOM     28  O   UNL     1       5.615   4.218  19.103  0.00  0.00    +0.000 OA
BRANCH  28  29
ATOM     29  C   UNL     1       6.287   5.338  18.656  0.00  0.00    +0.000 A 
ATOM     30  C   UNL     1       5.681   6.046  17.617  0.00  0.00    +0.000 A 
ATOM     31  C   UNL     1       6.311   7.166  17.070  0.00  0.00    +0.000 A 
ATOM     32  C   UNL     1       7.552   7.578  17.556  0.00  0.00    +0.000 A 
ATOM     33  C   UNL     1       8.143   6.900  18.619  0.00  0.00    +0.000 A 
ATOM     34  C   UNL     1       7.494   5.807  19.193  0.00  0.00    +0.000 A 
ENDBRANCH  28  29
ENDBRANCH  26  28
ENDBRANCH  21  22
ENDBRANCH   4  21
TORSDOF 8
ENDMDL
MODEL 7
REMARK VINA RESULT:      -7.9      2.155     10.814
REMARK  Name = 
REMARK  8 active torsions:
REMARK  status: ('A' for Active; 'I' for Inactive)
REMARK    1  A    between atoms: C_4  and  O_5
REMARK    2  A    between atoms: O_5  and  C_6
REMARK    3  A    between atoms: C_10  and  C_11
REMARK    4  A    between atoms: C_11  and  N_12
REMARK    5  A    between atoms: N_15  and  C_16
REMARK    6  A    between atoms: C_16  and  C_17
REMARK    7  A    between atoms: C_21  and  O_22
REMARK    8  A    between atoms: O_22  and  C_23
REMARK                            x       y       z     vdW  Elec       q    Type
REMARK                         _______ _______ _______ _____ _____    ______ ____
ROOT
ATOM      1  N   UNL     1       1.007   9.662  20.192  0.00  0.00    +0.000 NA
ATOM      2  C   UNL     1       1.784   8.480  20.616  0.00  0.00    +0.000 C 
ATOM      3  C   UNL     1       1.989   7.374  19.547  0.00  0.00    +0.000 C 
ATOM      4  N   UNL     1       2.279   7.783  18.157  0.00  0.00    +0.000 NA
ATOM      5  C   UNL     1       1.665   9.075  17.804  0.00  0.00    +0.000 C 
ATOM      6  C   UNL     1       1.617  10.137  18.929  0.00  0.00    +0.000 C 
ENDROOT
BRANCH   1   7
ATOM      7  C   UNL     1      -0.427   9.368  19.977  0.00  0.00    +0.000 C 
BRANCH   7  12
ATOM      8  C   UNL     1      -2.430  12.570  20.507  0.00  0.00    +0.000 A 
ATOM      9  C   UNL     1      -3.212  12.629  19.356  0.00  0.00    +0.000 A 
ATOM     10  C   UNL     1      -3.073  11.655  18.366  0.00  0.00    +0.000 A 
ATOM     11  C   UNL     1      -2.153  10.608  18.522  0.00  0.00    +0.000 A 
ATOM     12  C   UNL     1      -1.359  10.529  19.670  0.00  0.00    +0.000 A 
ATOM     13  C   UNL     1      -1.524  11.515  20.668  0.00  0.00    +0.000 A 
BRANCH   8  14
ATOM     14  O   UNL     1      -2.686  13.525  21.468  0.00  0.00    +0.000 OA
BRANCH  14  18
ATOM     15  C   UNL     1      -5.602  12.709  24.332  0.00  0.00    +0.000 A 
ATOM     16  C   UNL     1      -5.975  13.355  23.154  0.00  0.00    +0.000 A 
ATOM     17  C   UNL     1      -5.017  13.634  22.178  0.00  0.00    +0.000 A 
ATOM     18  C   UNL     1      -3.679  13.298  22.394  0.00  0.00    +0.000 A 
ATOM     19  C   UNL     1      -3.313  12.618  23.559  0.00  0.00    +0.000 A 
ATOM     20  C   UNL     1      -4.275  12.328  24.530  0.00  0.00    +0.000 A 
ENDBRANCH  14  18
ENDBRANCH   8  14
ENDBRANCH   7  12
ENDBRANCH   1   7
BRANCH   4  21
ATOM     21  C   UNL     1       3.703   7.755  17.816  0.00  0.00    +0.000 C 
BRANCH  21  22
ATOM     22  C   UNL     1       4.158   6.463  17.164  0.00  0.00    +0.000 A 
ATOM     23  C   UNL     1       5.182   6.428  16.207  0.00  0.00    +0.000 A 
ATOM     24  C   UNL     1       5.623   5.207  15.684  0.00  0.00    +0.000 A 
ATOM     25  C   UNL     1       5.084   4.009  16.157  0.00  0.00    +0.000 A 
ATOM     26  C   UNL     1       4.093   4.032  17.137  0.00  0.00    +0.000 A 
ATOM     27  C   UNL     1       3.579   5.256  17.571  0.00  0.00    +0.000 A 
BRANCH  26  28
ATOM     28  O   UNL     1       3.659   2.815  17.617  0.00  0.00    +0.000 OA
BRANCH  28  29
ATOM     29  C   UNL     1       2.959   2.774  18.807  0.00  0.00    +0.000 A 
ATOM     30  C   UNL     1       1.569   2.844  18.706  0.00  0.00    +0.000 A 
ATOM     31  C   UNL     1       0.782   2.855  19.859  0.00  0.00    +0.000 A 
ATOM     32  C   UNL     1       1.382   2.802  21.117  0.00  0.00    +0.000 A 
ATOM     33  C   UNL     1       2.766   2.690  21.223  0.00  0.00    +0.000 A 
ATOM     34  C   UNL     1       3.550   2.637  20.071  0.00  0.00    +0.000 A 
ENDBRANCH  28  29
ENDBRANCH  26  28
ENDBRANCH  21  22
ENDBRANCH   4  21
TORSDOF 8
ENDMDL
MODEL 8
REMARK VINA RESULT:      -7.8      0.987      1.360
REMARK  Name = 
REMARK  8 active torsions:
REMARK  status: ('A' for Active; 'I' for Inactive)
REMARK    1  A    between atoms: C_4  and  O_5
REMARK    2  A    between atoms: O_5  and  C_6
REMARK    3  A    between atoms: C_10  and  C_11
REMARK    4  A    between atoms: C_11  and  N_12
REMARK    5  A    between atoms: N_15  and  C_16
REMARK    6  A    between atoms: C_16  and  C_17
REMARK    7  A    between atoms: C_21  and  O_22
REMARK    8  A    between atoms: O_22  and  C_23
REMARK                            x       y       z     vdW  Elec       q    Type
REMARK                         _______ _______ _______ _____ _____    ______ ____
ROOT
ATOM      1  N   UNL     1       1.681   8.281  20.861  0.00  0.00    +0.000 NA
ATOM      2  C   UNL     1       1.235   9.212  19.805  0.00  0.00    +0.000 C 
ATOM      3  C   UNL     1      -0.225   9.726  19.916  0.00  0.00    +0.000 C 
ATOM      4  N   UNL     1      -0.748  10.081  21.252  0.00  0.00    +0.000 NA
ATOM      5  C   UNL     1      -0.141   9.281  22.331  0.00  0.00    +0.000 C 
ATOM      6  C   UNL     1       1.355   8.923  22.155  0.00  0.00    +0.000 C 
ENDROOT
BRANCH   1   7
ATOM      7  C   UNL     1       1.030   6.956  20.780  0.00  0.00    +0.000 C 
BRANCH   7  12
ATOM      8  C   UNL     1       3.635   4.810  19.005  0.00  0.00    +0.000 A 
ATOM      9  C   UNL     1       3.432   3.556  19.575  0.00  0.00    +0.000 A 
ATOM     10  C   UNL     1       2.476   3.392  20.579  0.00  0.00    +0.000 A 
ATOM     11  C   UNL     1       1.709   4.483  21.015  0.00  0.00    +0.000 A 
ATOM     12  C   UNL     1       1.896   5.749  20.454  0.00  0.00    +0.000 A 
ATOM     13  C   UNL     1       2.858   5.893  19.431  0.00  0.00    +0.000 A 
BRANCH   8  14
ATOM     14  O   UNL     1       4.542   4.868  17.967  0.00  0.00    +0.000 OA
BRANCH  14  18
ATOM     15  C   UNL     1       8.007   7.166  18.261  0.00  0.00    +0.000 A 
ATOM     16  C   UNL     1       7.836   6.086  19.127  0.00  0.00    +0.000 A 
ATOM     17  C   UNL     1       6.687   5.299  19.045  0.00  0.00    +0.000 A 
ATOM     18  C   UNL     1       5.690   5.612  18.117  0.00  0.00    +0.000 A 
ATOM     19  C   UNL     1       5.879   6.671  17.226  0.00  0.00    +0.000 A 
ATOM     20  C   UNL     1       7.035   7.451  17.302  0.00  0.00    +0.000 A 
ENDBRANCH  14  18
ENDBRANCH   8  14
ENDBRANCH   7  12
ENDBRANCH   1   7
BRANCH   4  21
ATOM     21  C   UNL     1      -0.692  11.513  21.549  0.00  0.00    +0.000 C 
BRANCH  21  22
ATOM     22  C   UNL     1      -2.000  12.093  22.054  0.00  0.00    +0.000 A 
ATOM     23  C   UNL     1      -2.405  11.973  23.390  0.00  0.00    +0.000 A 
ATOM     24  C   UNL     1      -3.583  12.585  23.832  0.00  0.00    +0.000 A 
ATOM     25  C   UNL     1      -4.334  13.370  22.955  0.00  0.00    +0.000 A 
ATOM     26  C   UNL     1      -3.918  13.528  21.633  0.00  0.00    +0.000 A 
ATOM     27  C   UNL     1      -2.804  12.822  21.171  0.00  0.00    +0.000 A 
BRANCH  26  28
ATOM     28  O   UNL     1      -4.658  14.378  20.841  0.00  0.00    +0.000 OA
BRANCH  28  29
ATOM     29  C   UNL     1      -5.602  13.846  19.984  0.00  0.00    +0.000 A 
ATOM     30  C   UNL     1      -6.295  14.759  19.189  0.00  0.00    +0.000 A 
ATOM     31  C   UNL     1      -7.300  14.317  18.325  0.00  0.00    +0.000 A 
ATOM     32  C   UNL     1      -7.619  12.961  18.259  0.00  0.00    +0.000 A 
ATOM     33  C   UNL     1      -6.902  12.040  19.020  0.00  0.00    +0.000 A 
ATOM     34  C   UNL     1      -5.871  12.477  19.851  0.00  0.00    +0.000 A 
ENDBRANCH  28  29
ENDBRANCH  26  28
ENDBRANCH  21  22
ENDBRANCH   4  21
TORSDOF 8
ENDMDL
MODEL 9
REMARK VINA RESULT:      -7.8      1.888      2.620
REMARK  Name = 
REMARK  8 active torsions:
REMARK  status: ('A' for Active; 'I' for Inactive)
REMARK    1  A    between atoms: C_4  and  O_5
REMARK    2  A    between atoms: O_5  and  C_6
REMARK    3  A    between atoms: C_10  and  C_11
REMARK    4  A    between atoms: C_11  and  N_12
REMARK    5  A    between atoms: N_15  and  C_16
REMARK    6  A    between atoms: C_16  and  C_17
REMARK    7  A    between atoms: C_21  and  O_22
REMARK    8  A    between atoms: O_22  and  C_23
REMARK                            x       y       z     vdW  Elec       q    Type
REMARK                         _______ _______ _______ _____ _____    ______ ____
ROOT
ATOM      1  N   UNL     1       0.204   9.412  20.316  0.00  0.00    +0.000 NA
ATOM      2  C   UNL     1      -0.775   9.859  21.327  0.00  0.00    +0.000 C 
ATOM      3  C   UNL     1      -0.340  11.047  22.225  0.00  0.00    +0.000 C 
ATOM      4  N   UNL     1       0.395  12.169  21.603  0.00  0.00    +0.000 NA
ATOM      5  C   UNL     1       1.216  11.744  20.456  0.00  0.00    +0.000 C 
ATOM      6  C   UNL     1       0.622  10.622  19.570  0.00  0.00    +0.000 C 
ENDROOT
BRANCH   1   7
ATOM      7  C   UNL     1       1.388   8.752  20.905  0.00  0.00    +0.000 C 
BRANCH   7  12
ATOM      8  C   UNL     1       2.968   6.361  18.389  0.00  0.00    +0.000 A 
ATOM      9  C   UNL     1       2.624   5.113  18.902  0.00  0.00    +0.000 A 
ATOM     10  C   UNL     1       1.910   5.023  20.099  0.00  0.00    +0.000 A 
ATOM     11  C   UNL     1       1.529   6.183  20.789  0.00  0.00    +0.000 A 
ATOM     12  C   UNL     1       1.863   7.445  20.290  0.00  0.00    +0.000 A 
ATOM     13  C   UNL     1       2.572   7.517  19.071  0.00  0.00    +0.000 A 
BRANCH   8  14
ATOM     14  O   UNL     1       3.602   6.363  17.164  0.00  0.00    +0.000 OA
BRANCH  14  18
ATOM     15  C   UNL     1       7.414   4.712  16.830  0.00  0.00    +0.000 A 
ATOM     16  C   UNL     1       6.345   4.077  16.199  0.00  0.00    +0.000 A 
ATOM     17  C   UNL     1       5.060   4.613  16.293  0.00  0.00    +0.000 A 
ATOM     18  C   UNL     1       4.838   5.768  17.046  0.00  0.00    +0.000 A 
ATOM     19  C   UNL     1       5.915   6.424  17.646  0.00  0.00    +0.000 A 
ATOM     20  C   UNL     1       7.203   5.892  17.543  0.00  0.00    +0.000 A 
ENDBRANCH  14  18
ENDBRANCH   8  14
ENDBRANCH   7  12
ENDBRANCH   1   7
BRANCH   4  21
ATOM     21  C   UNL     1      -0.451  13.314  21.263  0.00  0.00    +0.000 C 
BRANCH  21  22
ATOM     22  C   UNL     1      -1.935  13.003  21.239  0.00  0.00    +0.000 A 
ATOM     23  C   UNL     1      -2.765  13.224  22.347  0.00  0.00    +0.000 A 
ATOM     24  C   UNL     1      -4.142  12.993  22.260  0.00  0.00    +0.000 A 
ATOM     25  C   UNL     1      -4.709  12.597  21.047  0.00  0.00    +0.000 A 
ATOM     26  C   UNL     1      -3.898  12.413  19.929  0.00  0.00    +0.000 A 
ATOM     27  C   UNL     1      -2.511  12.535  20.053  0.00  0.00    +0.000 A 
BRANCH  26  28
ATOM     28  O   UNL     1      -4.527  12.098  18.744  0.00  0.00    +0.000 OA
BRANCH  28  29
ATOM     29  C   UNL     1      -3.842  11.369  17.792  0.00  0.00    +0.000 A 
ATOM     30  C   UNL     1      -4.231  11.569  16.467  0.00  0.00    +0.000 A 
ATOM     31  C   UNL     1      -3.625  10.841  15.441  0.00  0.00    +0.000 A 
ATOM     32  C   UNL     1      -2.633   9.906  15.737  0.00  0.00    +0.000 A 
ATOM     33  C   UNL     1      -2.213   9.732  17.053  0.00  0.00    +0.000 A 
ATOM     34  C   UNL     1      -2.789  10.489  18.073  0.00  0.00    +0.000 A 
ENDBRANCH  28  29
ENDBRANCH  26  28
ENDBRANCH  21  22
ENDBRANCH   4  21
TORSDOF 8
ENDMDL
