MODEL 1
REMARK VINA RESULT:      -6.2      0.000      0.000
REMARK  Name = 
REMARK  4 active torsions:
REMARK  status: ('A' for Active; 'I' for Inactive)
REMARK    1  A    between atoms: C_1  and  C_2
REMARK    2  A    between atoms: C_6  and  C_7
REMARK    3  A    between atoms: C_8  and  C_9
REMARK    4  A    between atoms: C_17  and  C_18
REMARK                            x       y       z     vdW  Elec       q    Type
REMARK                         _______ _______ _______ _____ _____    ______ ____
ROOT
ATOM      1  C   UNL     1       1.722   8.495  18.742  0.00  0.00    +0.000 C 
ATOM      2  C   UNL     1       1.271   9.963  18.752  0.00  0.00    +0.000 C 
ATOM      3  C   UNL     1       2.297  10.798  17.980  0.00  0.00    +0.000 C 
ATOM      4  C   UNL     1       1.923  12.273  17.952  0.00  0.00    +0.000 C 
ATOM      5  C   UNL     1       1.809  12.846  19.375  0.00  0.00    +0.000 C 
ATOM      6  C   UNL     1       1.452  14.359  19.404  0.00  0.00    +0.000 C 
ATOM      7  C   UNL     1       2.428  15.193  18.565  0.00  0.00    +0.000 C 
ATOM      8  C   UNL     1      -0.022  14.584  19.012  0.00  0.00    +0.000 C 
ATOM      9  O   UNL     1      -0.891  13.834  19.858  0.00  0.00    +0.000 OA
ATOM     10  C   UNL     1      -0.660  12.424  19.836  0.00  0.00    +0.000 C 
ATOM     11  O   UNL     1      -1.630  11.817  20.699  0.00  0.00    +0.000 OA
ATOM     12  C   UNL     1      -1.117  11.711  22.029  0.00  0.00    +0.000 C 
ATOM     13  C   UNL     1      -2.273  11.947  22.998  0.00  0.00    +0.000 C 
ATOM     14  C   UNL     1      -0.519  10.305  22.241  0.00  0.00    +0.000 C 
ATOM     15  C   UNL     1       0.024   9.675  20.955  0.00  0.00    +0.000 C 
ATOM     16  C   UNL     1       1.078  10.510  20.190  0.00  0.00    +0.000 C 
ATOM     17  C   UNL     1       0.798  12.045  20.232  0.00  0.00    +0.000 C 
ATOM     18  O   UNL     1       1.089  12.411  21.610  0.00  0.00    +0.000 OA
ATOM     19  O   UNL     1      -0.157  12.741  22.299  0.00  0.00    +0.000 OA
ENDROOT
BRANCH   8  20
ATOM     20  C   UNL     1      -0.454  16.009  19.184  0.00  0.00    +0.000 A 
ATOM     21  C   UNL     1      -0.563  16.798  20.315  0.00  0.00    +0.000 A 
ATOM     22  C   UNL     1      -0.989  18.084  19.907  0.00  0.00    +0.000 A 
ATOM     23  C   UNL     1      -1.138  18.050  18.538  0.00  0.00    +0.000 A 
ATOM     24  N   UNL     1      -0.833  16.787  18.111  0.00  0.00    +0.000 N 
ATOM     25  H   UNL     1      -0.829  16.460  17.153  0.00  0.00    +0.000 HD
ENDBRANCH   8  20
TORSDOF 1
ENDMDL
MODEL 2
REMARK VINA RESULT:      -6.1      8.343     10.806
REMARK  Name = 
REMARK  4 active torsions:
REMARK  status: ('A' for Active; 'I' for Inactive)
REMARK    1  A    between atoms: C_1  and  C_2
REMARK    2  A    between atoms: C_6  and  C_7
REMARK    3  A    between atoms: C_8  and  C_9
REMARK    4  A    between atoms: C_17  and  C_18
REMARK                            x       y       z     vdW  Elec       q    Type
REMARK                         _______ _______ _______ _____ _____    ______ ____
ROOT
ATOM      1  C   UNL     1      11.380  17.484  17.316  0.00  0.00    +0.000 C 
ATOM      2  C   UNL     1      10.597  16.673  18.358  0.00  0.00    +0.000 C 
ATOM      3  C   UNL     1      10.562  17.460  19.671  0.00  0.00    +0.000 C 
ATOM      4  C   UNL     1       9.807  16.713  20.762  0.00  0.00    +0.000 C 
ATOM      5  C   UNL     1      10.444  15.341  21.041  0.00  0.00    +0.000 C 
ATOM      6  C   UNL     1       9.725  14.545  22.165  0.00  0.00    +0.000 C 
ATOM      7  C   UNL     1       9.613  15.358  23.461  0.00  0.00    +0.000 C 
ATOM      8  C   UNL     1       8.366  14.006  21.676  0.00  0.00    +0.000 C 
ATOM      9  O   UNL     1       8.531  13.208  20.505  0.00  0.00    +0.000 OA
ATOM     10  C   UNL     1       9.132  13.894  19.406  0.00  0.00    +0.000 C 
ATOM     11  O   UNL     1       9.190  12.976  18.306  0.00  0.00    +0.000 OA
ATOM     12  C   UNL     1      10.428  12.260  18.320  0.00  0.00    +0.000 C 
ATOM     13  C   UNL     1      10.151  10.837  17.844  0.00  0.00    +0.000 C 
ATOM     14  C   UNL     1      11.434  12.953  17.379  0.00  0.00    +0.000 C 
ATOM     15  C   UNL     1      11.206  14.462  17.248  0.00  0.00    +0.000 C 
ATOM     16  C   UNL     1      11.195  15.258  18.574  0.00  0.00    +0.000 C 
ATOM     17  C   UNL     1      10.532  14.483  19.754  0.00  0.00    +0.000 C 
ATOM     18  O   UNL     1      11.491  13.432  20.060  0.00  0.00    +0.000 OA
ATOM     19  O   UNL     1      10.944  12.140  19.652  0.00  0.00    +0.000 OA
ENDROOT
BRANCH   8  20
ATOM     20  C   UNL     1       7.713  13.095  22.672  0.00  0.00    +0.000 A 
ATOM     21  C   UNL     1       8.180  11.965  23.318  0.00  0.00    +0.000 A 
ATOM     22  C   UNL     1       7.159  11.507  24.183  0.00  0.00    +0.000 A 
ATOM     23  C   UNL     1       6.089  12.361  24.041  0.00  0.00    +0.000 A 
ATOM     24  N   UNL     1       6.423  13.307  23.110  0.00  0.00    +0.000 N 
ATOM     25  H   UNL     1       5.848  14.083  22.808  0.00  0.00    +0.000 HD
ENDBRANCH   8  20
TORSDOF 1
ENDMDL
MODEL 3
REMARK VINA RESULT:      -6.1      3.439      6.100
REMARK  Name = 
REMARK  4 active torsions:
REMARK  status: ('A' for Active; 'I' for Inactive)
REMARK    1  A    between atoms: C_1  and  C_2
REMARK    2  A    between atoms: C_6  and  C_7
REMARK    3  A    between atoms: C_8  and  C_9
REMARK    4  A    between atoms: C_17  and  C_18
REMARK                            x       y       z     vdW  Elec       q    Type
REMARK                         _______ _______ _______ _____ _____    ______ ____
ROOT
ATOM      1  C   UNL     1      -2.697  15.110  25.592  0.00  0.00    +0.000 C 
ATOM      2  C   UNL     1      -2.566  14.329  24.277  0.00  0.00    +0.000 C 
ATOM      3  C   UNL     1      -1.129  14.467  23.764  0.00  0.00    +0.000 C 
ATOM      4  C   UNL     1      -0.921  13.724  22.452  0.00  0.00    +0.000 C 
ATOM      5  C   UNL     1      -1.873  14.241  21.361  0.00  0.00    +0.000 C 
ATOM      6  C   UNL     1      -1.685  13.531  19.991  0.00  0.00    +0.000 C 
ATOM      7  C   UNL     1      -0.231  13.595  19.508  0.00  0.00    +0.000 C 
ATOM      8  C   UNL     1      -2.241  12.094  20.035  0.00  0.00    +0.000 C 
ATOM      9  O   UNL     1      -3.612  12.095  20.431  0.00  0.00    +0.000 OA
ATOM     10  C   UNL     1      -3.854  12.679  21.711  0.00  0.00    +0.000 C 
ATOM     11  O   UNL     1      -5.258  12.567  21.977  0.00  0.00    +0.000 OA
ATOM     12  C   UNL     1      -5.949  13.725  21.503  0.00  0.00    +0.000 C 
ATOM     13  C   UNL     1      -7.305  13.276  20.968  0.00  0.00    +0.000 C 
ATOM     14  C   UNL     1      -6.134  14.724  22.664  0.00  0.00    +0.000 C 
ATOM     15  C   UNL     1      -5.034  14.636  23.725  0.00  0.00    +0.000 C 
ATOM     16  C   UNL     1      -3.585  14.799  23.208  0.00  0.00    +0.000 C 
ATOM     17  C   UNL     1      -3.353  14.151  21.808  0.00  0.00    +0.000 C 
ATOM     18  O   UNL     1      -4.082  15.022  20.898  0.00  0.00    +0.000 OA
ATOM     19  O   UNL     1      -5.262  14.323  20.395  0.00  0.00    +0.000 OA
ENDROOT
BRANCH   8  20
ATOM     20  C   UNL     1      -2.231  11.429  18.691  0.00  0.00    +0.000 A 
ATOM     21  C   UNL     1      -1.606  10.277  18.249  0.00  0.00    +0.000 A 
ATOM     22  C   UNL     1      -1.958  10.086  16.892  0.00  0.00    +0.000 A 
ATOM     23  C   UNL     1      -2.782  11.129  16.533  0.00  0.00    +0.000 A 
ATOM     24  N   UNL     1      -2.926  11.948  17.620  0.00  0.00    +0.000 N 
ATOM     25  H   UNL     1      -3.491  12.786  17.671  0.00  0.00    +0.000 HD
ENDBRANCH   8  20
TORSDOF 1
ENDMDL
MODEL 4
REMARK VINA RESULT:      -6.1      2.368      4.553
REMARK  Name = 
REMARK  4 active torsions:
REMARK  status: ('A' for Active; 'I' for Inactive)
REMARK    1  A    between atoms: C_1  and  C_2
REMARK    2  A    between atoms: C_6  and  C_7
REMARK    3  A    between atoms: C_8  and  C_9
REMARK    4  A    between atoms: C_17  and  C_18
REMARK                            x       y       z     vdW  Elec       q    Type
REMARK                         _______ _______ _______ _____ _____    ______ ____
ROOT
ATOM      1  C   UNL     1       1.232   8.611  20.676  0.00  0.00    +0.000 C 
ATOM      2  C   UNL     1       0.657   9.839  21.395  0.00  0.00    +0.000 C 
ATOM      3  C   UNL     1      -0.403   9.373  22.397  0.00  0.00    +0.000 C 
ATOM      4  C   UNL     1      -1.030  10.540  23.147  0.00  0.00    +0.000 C 
ATOM      5  C   UNL     1      -1.690  11.534  22.177  0.00  0.00    +0.000 C 
ATOM      6  C   UNL     1      -2.368  12.737  22.893  0.00  0.00    +0.000 C 
ATOM      7  C   UNL     1      -3.372  12.276  23.957  0.00  0.00    +0.000 C 
ATOM      8  C   UNL     1      -1.312  13.714  23.447  0.00  0.00    +0.000 C 
ATOM      9  O   UNL     1      -0.441  14.158  22.408  0.00  0.00    +0.000 OA
ATOM     10  C   UNL     1       0.265  13.109  21.743  0.00  0.00    +0.000 C 
ATOM     11  O   UNL     1       1.118  13.717  20.765  0.00  0.00    +0.000 OA
ATOM     12  C   UNL     1       0.439  13.828  19.512  0.00  0.00    +0.000 C 
ATOM     13  C   UNL     1       0.880  15.132  18.854  0.00  0.00    +0.000 C 
ATOM     14  C   UNL     1       0.807  12.626  18.619  0.00  0.00    +0.000 C 
ATOM     15  C   UNL     1       1.148  11.360  19.411  0.00  0.00    +0.000 C 
ATOM     16  C   UNL     1       0.066  10.877  20.406  0.00  0.00    +0.000 C 
ATOM     17  C   UNL     1      -0.686  12.046  21.115  0.00  0.00    +0.000 C 
ATOM     18  O   UNL     1      -1.504  12.622  20.059  0.00  0.00    +0.000 OA
ATOM     19  O   UNL     1      -0.979  13.936  19.697  0.00  0.00    +0.000 OA
ENDROOT
BRANCH   8  20
ATOM     20  C   UNL     1      -1.919  14.968  24.000  0.00  0.00    +0.000 A 
ATOM     21  C   UNL     1      -1.945  15.478  25.285  0.00  0.00    +0.000 A 
ATOM     22  C   UNL     1      -2.627  16.717  25.246  0.00  0.00    +0.000 A 
ATOM     23  C   UNL     1      -3.010  16.932  23.941  0.00  0.00    +0.000 A 
ATOM     24  N   UNL     1      -2.597  15.860  23.197  0.00  0.00    +0.000 N 
ATOM     25  H   UNL     1      -2.714  15.740  22.199  0.00  0.00    +0.000 HD
ENDBRANCH   8  20
TORSDOF 1
ENDMDL
MODEL 5
REMARK VINA RESULT:      -6.0      4.005      7.262
REMARK  Name = 
REMARK  4 active torsions:
REMARK  status: ('A' for Active; 'I' for Inactive)
REMARK    1  A    between atoms: C_1  and  C_2
REMARK    2  A    between atoms: C_6  and  C_7
REMARK    3  A    between atoms: C_8  and  C_9
REMARK    4  A    between atoms: C_17  and  C_18
REMARK                            x       y       z     vdW  Elec       q    Type
REMARK                         _______ _______ _______ _____ _____    ______ ____
ROOT
ATOM      1  C   UNL     1      -5.115  17.406  25.135  0.00  0.00    +0.000 C 
ATOM      2  C   UNL     1      -4.322  16.166  24.698  0.00  0.00    +0.000 C 
ATOM      3  C   UNL     1      -2.835  16.525  24.643  0.00  0.00    +0.000 C 
ATOM      4  C   UNL     1      -1.980  15.344  24.206  0.00  0.00    +0.000 C 
ATOM      5  C   UNL     1      -2.403  14.834  22.818  0.00  0.00    +0.000 C 
ATOM      6  C   UNL     1      -1.545  13.640  22.312  0.00  0.00    +0.000 C 
ATOM      7  C   UNL     1      -0.046  13.964  22.331  0.00  0.00    +0.000 C 
ATOM      8  C   UNL     1      -1.891  12.349  23.081  0.00  0.00    +0.000 C 
ATOM      9  O   UNL     1      -3.284  12.060  22.982  0.00  0.00    +0.000 OA
ATOM     10  C   UNL     1      -4.136  13.090  23.486  0.00  0.00    +0.000 C 
ATOM     11  O   UNL     1      -5.487  12.634  23.353  0.00  0.00    +0.000 OA
ATOM     12  C   UNL     1      -6.027  13.035  22.091  0.00  0.00    +0.000 C 
ATOM     13  C   UNL     1      -6.943  11.919  21.596  0.00  0.00    +0.000 C 
ATOM     14  C   UNL     1      -6.824  14.344  22.265  0.00  0.00    +0.000 C 
ATOM     15  C   UNL     1      -6.307  15.225  23.407  0.00  0.00    +0.000 C 
ATOM     16  C   UNL     1      -4.809  15.606  23.336  0.00  0.00    +0.000 C 
ATOM     17  C   UNL     1      -3.906  14.461  22.782  0.00  0.00    +0.000 C 
ATOM     18  O   UNL     1      -4.252  14.400  21.370  0.00  0.00    +0.000 OA
ATOM     19  O   UNL     1      -4.996  13.170  21.104  0.00  0.00    +0.000 OA
ENDROOT
BRANCH   8  20
ATOM     20  C   UNL     1      -1.207  11.140  22.516  0.00  0.00    +0.000 A 
ATOM     21  C   UNL     1      -0.815  10.834  21.226  0.00  0.00    +0.000 A 
ATOM     22  C   UNL     1      -0.180   9.570  21.254  0.00  0.00    +0.000 A 
ATOM     23  C   UNL     1      -0.205   9.129  22.558  0.00  0.00    +0.000 A 
ATOM     24  N   UNL     1      -0.846  10.074  23.313  0.00  0.00    +0.000 N 
ATOM     25  H   UNL     1      -1.001  10.043  24.312  0.00  0.00    +0.000 HD
ENDBRANCH   8  20
TORSDOF 1
ENDMDL
MODEL 6
REMARK VINA RESULT:      -5.8      8.810     10.643
REMARK  Name = 
REMARK  4 active torsions:
REMARK  status: ('A' for Active; 'I' for Inactive)
REMARK    1  A    between atoms: C_1  and  C_2
REMARK    2  A    between atoms: C_6  and  C_7
REMARK    3  A    between atoms: C_8  and  C_9
REMARK    4  A    between atoms: C_17  and  C_18
REMARK                            x       y       z     vdW  Elec       q    Type
REMARK                         _______ _______ _______ _____ _____    ______ ____
ROOT
ATOM      1  C   UNL     1      10.693  17.014  16.967  0.00  0.00    +0.000 C 
ATOM      2  C   UNL     1      10.100  16.420  18.253  0.00  0.00    +0.000 C 
ATOM      3  C   UNL     1      10.298  17.421  19.395  0.00  0.00    +0.000 C 
ATOM      4  C   UNL     1       9.742  16.898  20.712  0.00  0.00    +0.000 C 
ATOM      5  C   UNL     1      10.412  15.573  21.113  0.00  0.00    +0.000 C 
ATOM      6  C   UNL     1       9.896  15.006  22.465  0.00  0.00    +0.000 C 
ATOM      7  C   UNL     1      10.016  16.032  23.598  0.00  0.00    +0.000 C 
ATOM      8  C   UNL     1       8.471  14.438  22.317  0.00  0.00    +0.000 C 
ATOM      9  O   UNL     1       8.426  13.446  21.292  0.00  0.00    +0.000 OA
ATOM     10  C   UNL     1       8.829  13.913  20.004  0.00  0.00    +0.000 C 
ATOM     11  O   UNL     1       8.692  12.820  19.088  0.00  0.00    +0.000 OA
ATOM     12  C   UNL     1       9.909  12.074  19.014  0.00  0.00    +0.000 C 
ATOM     13  C   UNL     1       9.548  10.601  18.849  0.00  0.00    +0.000 C 
ATOM     14  C   UNL     1      10.739  12.561  17.809  0.00  0.00    +0.000 C 
ATOM     15  C   UNL     1      10.497  14.032  17.458  0.00  0.00    +0.000 C 
ATOM     16  C   UNL     1      10.721  15.044  18.607  0.00  0.00    +0.000 C 
ATOM     17  C   UNL     1      10.271  14.505  20.000  0.00  0.00    +0.000 C 
ATOM     18  O   UNL     1      11.264  13.490  20.315  0.00  0.00    +0.000 OA
ATOM     19  O   UNL     1      10.649  12.166  20.239  0.00  0.00    +0.000 OA
ENDROOT
BRANCH   8  20
ATOM     20  C   UNL     1       7.998  13.734  23.553  0.00  0.00    +0.000 A 
ATOM     21  C   UNL     1       7.044  14.082  24.492  0.00  0.00    +0.000 A 
ATOM     22  C   UNL     1       6.970  13.037  25.442  0.00  0.00    +0.000 A 
ATOM     23  C   UNL     1       7.884  12.078  25.068  0.00  0.00    +0.000 A 
ATOM     24  N   UNL     1       8.517  12.516  23.936  0.00  0.00    +0.000 N 
ATOM     25  H   UNL     1       9.226  12.018  23.412  0.00  0.00    +0.000 HD
ENDBRANCH   8  20
TORSDOF 1
ENDMDL
MODEL 7
REMARK VINA RESULT:      -5.8      2.596      4.482
REMARK  Name = 
REMARK  4 active torsions:
REMARK  status: ('A' for Active; 'I' for Inactive)
REMARK    1  A    between atoms: C_1  and  C_2
REMARK    2  A    between atoms: C_6  and  C_7
REMARK    3  A    between atoms: C_8  and  C_9
REMARK    4  A    between atoms: C_17  and  C_18
REMARK                            x       y       z     vdW  Elec       q    Type
REMARK                         _______ _______ _______ _____ _____    ______ ____
ROOT
ATOM      1  C   UNL     1       1.933  10.046  17.870  0.00  0.00    +0.000 C 
ATOM      2  C   UNL     1       0.806  10.579  18.766  0.00  0.00    +0.000 C 
ATOM      3  C   UNL     1      -0.536  10.096  18.208  0.00  0.00    +0.000 C 
ATOM      4  C   UNL     1      -1.710  10.592  19.041  0.00  0.00    +0.000 C 
ATOM      5  C   UNL     1      -1.740  12.129  19.100  0.00  0.00    +0.000 C 
ATOM      6  C   UNL     1      -2.934  12.691  19.920  0.00  0.00    +0.000 C 
ATOM      7  C   UNL     1      -4.278  12.147  19.419  0.00  0.00    +0.000 C 
ATOM      8  C   UNL     1      -2.721  12.467  21.430  0.00  0.00    +0.000 C 
ATOM      9  O   UNL     1      -1.487  13.042  21.857  0.00  0.00    +0.000 OA
ATOM     10  C   UNL     1      -0.335  12.528  21.188  0.00  0.00    +0.000 C 
ATOM     11  O   UNL     1       0.814  13.172  21.752  0.00  0.00    +0.000 OA
ATOM     12  C   UNL     1       1.127  14.361  21.023  0.00  0.00    +0.000 C 
ATOM     13  C   UNL     1       1.632  15.402  22.018  0.00  0.00    +0.000 C 
ATOM     14  C   UNL     1       2.215  14.050  19.974  0.00  0.00    +0.000 C 
ATOM     15  C   UNL     1       2.182  12.603  19.473  0.00  0.00    +0.000 C 
ATOM     16  C   UNL     1       0.831  12.124  18.889  0.00  0.00    +0.000 C 
ATOM     17  C   UNL     1      -0.407  12.703  19.641  0.00  0.00    +0.000 C 
ATOM     18  O   UNL     1      -0.414  14.109  19.264  0.00  0.00    +0.000 OA
ATOM     19  O   UNL     1      -0.045  14.925  20.419  0.00  0.00    +0.000 OA
ENDROOT
BRANCH   8  20
ATOM     20  C   UNL     1      -3.767  13.137  22.268  0.00  0.00    +0.000 A 
ATOM     21  C   UNL     1      -4.130  14.467  22.382  0.00  0.00    +0.000 A 
ATOM     22  C   UNL     1      -5.207  14.545  23.296  0.00  0.00    +0.000 A 
ATOM     23  C   UNL     1      -5.473  13.265  23.726  0.00  0.00    +0.000 A 
ATOM     24  N   UNL     1      -4.585  12.421  23.116  0.00  0.00    +0.000 N 
ATOM     25  H   UNL     1      -4.545  11.414  23.216  0.00  0.00    +0.000 HD
ENDBRANCH   8  20
TORSDOF 1
ENDMDL
MODEL 8
REMARK VINA RESULT:      -5.7      3.123      4.515
REMARK  Name = 
REMARK  4 active torsions:
REMARK  status: ('A' for Active; 'I' for Inactive)
REMARK    1  A    between atoms: C_1  and  C_2
REMARK    2  A    between atoms: C_6  and  C_7
REMARK    3  A    between atoms: C_8  and  C_9
REMARK    4  A    between atoms: C_17  and  C_18
REMARK                            x       y       z     vdW  Elec       q    Type
REMARK                         _______ _______ _______ _____ _____    ______ ____
ROOT
ATOM      1  C   UNL     1       1.945   9.306  18.206  0.00  0.00    +0.000 C 
ATOM      2  C   UNL     1       0.540   9.848  18.507  0.00  0.00    +0.000 C 
ATOM      3  C   UNL     1      -0.426   9.333  17.437  0.00  0.00    +0.000 C 
ATOM      4  C   UNL     1      -1.845   9.837  17.662  0.00  0.00    +0.000 C 
ATOM      5  C   UNL     1      -1.897  11.373  17.656  0.00  0.00    +0.000 C 
ATOM      6  C   UNL     1      -3.329  11.943  17.858  0.00  0.00    +0.000 C 
ATOM      7  C   UNL     1      -4.322  11.368  16.840  0.00  0.00    +0.000 C 
ATOM      8  C   UNL     1      -3.793  11.762  19.317  0.00  0.00    +0.000 C 
ATOM      9  O   UNL     1      -2.867  12.365  20.220  0.00  0.00    +0.000 OA
ATOM     10  C   UNL     1      -1.539  11.848  20.133  0.00  0.00    +0.000 C 
ATOM     11  O   UNL     1      -0.749  12.522  21.120  0.00  0.00    +0.000 OA
ATOM     12  C   UNL     1      -0.150  13.694  20.564  0.00  0.00    +0.000 C 
ATOM     13  C   UNL     1      -0.127  14.769  21.648  0.00  0.00    +0.000 C 
ATOM     14  C   UNL     1       1.285  13.369  20.102  0.00  0.00    +0.000 C 
ATOM     15  C   UNL     1       1.473  11.909  19.680  0.00  0.00    +0.000 C 
ATOM     16  C   UNL     1       0.511  11.397  18.582  0.00  0.00    +0.000 C 
ATOM     17  C   UNL     1      -0.931  11.980  18.704  0.00  0.00    +0.000 C 
ATOM     18  O   UNL     1      -0.774  13.374  18.319  0.00  0.00    +0.000 OA
ATOM     19  O   UNL     1      -0.943  14.226  19.495  0.00  0.00    +0.000 OA
ENDROOT
BRANCH   8  20
ATOM     20  C   UNL     1      -5.099  12.442  19.597  0.00  0.00    +0.000 A 
ATOM     21  C   UNL     1      -6.291  11.954  20.100  0.00  0.00    +0.000 A 
ATOM     22  C   UNL     1      -7.198  13.037  20.194  0.00  0.00    +0.000 A 
ATOM     23  C   UNL     1      -6.543  14.159  19.738  0.00  0.00    +0.000 A 
ATOM     24  N   UNL     1      -5.281  13.788  19.359  0.00  0.00    +0.000 N 
ATOM     25  H   UNL     1      -4.556  14.398  19.003  0.00  0.00    +0.000 HD
ENDBRANCH   8  20
TORSDOF 1
ENDMDL
MODEL 9
REMARK VINA RESULT:      -5.6      3.130      4.603
REMARK  Name = 
REMARK  4 active torsions:
REMARK  status: ('A' for Active; 'I' for Inactive)
REMARK    1  A    between atoms: C_1  and  C_2
REMARK    2  A    between atoms: C_6  and  C_7
REMARK    3  A    between atoms: C_8  and  C_9
REMARK    4  A    between atoms: C_17  and  C_18
REMARK                            x       y       z     vdW  Elec       q    Type
REMARK                         _______ _______ _______ _____ _____    ______ ____
ROOT
ATOM      1  C   UNL     1       1.672   9.572  18.145  0.00  0.00    +0.000 C 
ATOM      2  C   UNL     1       0.328  10.103  18.663  0.00  0.00    +0.000 C 
ATOM      3  C   UNL     1      -0.780   9.664  17.700  0.00  0.00    +0.000 C 
ATOM      4  C   UNL     1      -2.148  10.162  18.143  0.00  0.00    +0.000 C 
ATOM      5  C   UNL     1      -2.178  11.696  18.242  0.00  0.00    +0.000 C 
ATOM      6  C   UNL     1      -3.562  12.261  18.669  0.00  0.00    +0.000 C 
ATOM      7  C   UNL     1      -4.689  11.760  17.757  0.00  0.00    +0.000 C 
ATOM      8  C   UNL     1      -3.831  11.988  20.162  0.00  0.00    +0.000 C 
ATOM      9  O   UNL     1      -2.785  12.525  20.970  0.00  0.00    +0.000 OA
ATOM     10  C   UNL     1      -1.488  12.006  20.675  0.00  0.00    +0.000 C 
ATOM     11  O   UNL     1      -0.565  12.609  21.590  0.00  0.00    +0.000 OA
ATOM     12  C   UNL     1      -0.026  13.811  21.035  0.00  0.00    +0.000 C 
ATOM     13  C   UNL     1       0.156  14.813  22.172  0.00  0.00    +0.000 C 
ATOM     14  C   UNL     1       1.330  13.507  20.366  0.00  0.00    +0.000 C 
ATOM     15  C   UNL     1       1.438  12.076  19.831  0.00  0.00    +0.000 C 
ATOM     16  C   UNL     1       0.331  11.643  18.840  0.00  0.00    +0.000 C 
ATOM     17  C   UNL     1      -1.073  12.227  19.189  0.00  0.00    +0.000 C 
ATOM     18  O   UNL     1      -0.946  13.642  18.877  0.00  0.00    +0.000 OA
ATOM     19  O   UNL     1      -0.946  14.417  20.116  0.00  0.00    +0.000 OA
ENDROOT
BRANCH   8  20
ATOM     20  C   UNL     1      -5.079  12.657  20.656  0.00  0.00    +0.000 A 
ATOM     21  C   UNL     1      -5.472  13.982  20.636  0.00  0.00    +0.000 A 
ATOM     22  C   UNL     1      -6.765  14.060  21.205  0.00  0.00    +0.000 A 
ATOM     23  C   UNL     1      -7.129  12.783  21.568  0.00  0.00    +0.000 A 
ATOM     24  N   UNL     1      -6.096  11.942  21.252  0.00  0.00    +0.000 N 
ATOM     25  H   UNL     1      -6.077  10.938  21.379  0.00  0.00    +0.000 HD
ENDBRANCH   8  20
TORSDOF 1
ENDMDL
