MODEL 1
REMARK VINA RESULT:      -6.5      0.000      0.000
REMARK  Name = 
REMARK  6 active torsions:
REMARK  status: ('A' for Active; 'I' for Inactive)
REMARK    1  A    between atoms: C_1  and  C_2
REMARK    2  A    between atoms: C_3  and  C_4
REMARK    3  A    between atoms: C_3  and  C_6
REMARK    4  A    between atoms: C_18  and  O_19
REMARK    5  A    between atoms: O_19  and  C_20
REMARK    6  A    between atoms: N_24  and  C_25
REMARK                            x       y       z     vdW  Elec       q    Type
REMARK                         _______ _______ _______ _____ _____    ______ ____
ROOT
ATOM      1  C   UNL     1      -3.083  12.958  23.022  0.00  0.00    +0.000 C 
ATOM      2  C   UNL     1      -1.949  11.934  22.986  0.00  0.00    +0.000 C 
ATOM      3  C   UNL     1      -1.111  11.672  21.732  0.00  0.00    +0.000 C 
ATOM      4  C   UNL     1      -1.747  11.495  20.401  0.00  0.00    +0.000 A 
ATOM      5  C   UNL     1      -1.036  10.836  19.418  0.00  0.00    +0.000 A 
ATOM      6  C   UNL     1      -1.880  10.708  18.300  0.00  0.00    +0.000 A 
ATOM      7  C   UNL     1      -1.762  10.014  17.079  0.00  0.00    +0.000 A 
ATOM      8  C   UNL     1      -2.762  10.133  16.115  0.00  0.00    +0.000 A 
ATOM      9  C   UNL     1      -3.844  10.973  16.334  0.00  0.00    +0.000 A 
ATOM     10  C   UNL     1      -3.975  11.681  17.536  0.00  0.00    +0.000 A 
ATOM     11  C   UNL     1      -3.005  11.515  18.545  0.00  0.00    +0.000 A 
ATOM     12  N   UNL     1      -2.886  12.031  19.843  0.00  0.00    +0.000 N 
ATOM     13  C   UNL     1      -3.746  13.045  20.498  0.00  0.00    +0.000 C 
ATOM     14  C   UNL     1      -4.121  12.629  21.926  0.00  0.00    +0.000 C 
ATOM     15  C   UNL     1       0.393  10.434  19.642  0.00  0.00    +0.000 C 
ATOM     16  C   UNL     1       1.069  11.229  20.825  0.00  0.00    +0.000 C 
ATOM     17  N   UNL     1       0.243  12.263  21.550  0.00  0.00    +0.000 NA
ATOM     18  C   UNL     1       0.279  13.496  20.744  0.00  0.00    +0.000 C 
ENDROOT
BRANCH   1  21
ATOM     19  C   UNL     1      -5.068  15.405  23.389  0.00  0.00    +0.000 C 
ATOM     20  C   UNL     1      -3.580  15.452  23.339  0.00  0.00    +0.000 C 
ATOM     21  C   UNL     1      -2.718  14.420  23.205  0.00  0.00    +0.000 C 
BRANCH  21  22
ATOM     22  C   UNL     1      -1.295  14.815  23.442  0.00  0.00    +0.000 C 
ATOM     23  O   UNL     1      -0.789  14.879  24.556  0.00  0.00    +0.000 OA
ENDBRANCH  21  22
ENDBRANCH   1  21
BRANCH  13  24
ATOM     24  O   UNL     1      -4.950  13.206  19.731  0.00  0.00    +0.000 OA
ATOM     25  C   UNL     1      -6.119  13.504  20.476  0.00  0.00    +0.000 C 
ENDBRANCH  13  24
TORSDOF 3
ENDMDL
MODEL 2
REMARK VINA RESULT:      -6.1      1.349      1.651
REMARK  Name = 
REMARK  6 active torsions:
REMARK  status: ('A' for Active; 'I' for Inactive)
REMARK    1  A    between atoms: C_1  and  C_2
REMARK    2  A    between atoms: C_3  and  C_4
REMARK    3  A    between atoms: C_3  and  C_6
REMARK    4  A    between atoms: C_18  and  O_19
REMARK    5  A    between atoms: O_19  and  C_20
REMARK    6  A    between atoms: N_24  and  C_25
REMARK                            x       y       z     vdW  Elec       q    Type
REMARK                         _______ _______ _______ _____ _____    ______ ____
ROOT
ATOM      1  C   UNL     1      -1.408  12.401  22.594  0.00  0.00    +0.000 C 
ATOM      2  C   UNL     1      -0.487  11.277  22.121  0.00  0.00    +0.000 C 
ATOM      3  C   UNL     1      -0.141  11.058  20.647  0.00  0.00    +0.000 C 
ATOM      4  C   UNL     1      -1.190  11.077  19.595  0.00  0.00    +0.000 A 
ATOM      5  C   UNL     1      -0.926  10.451  18.393  0.00  0.00    +0.000 A 
ATOM      6  C   UNL     1      -2.095  10.520  17.615  0.00  0.00    +0.000 A 
ATOM      7  C   UNL     1      -2.468   9.942  16.385  0.00  0.00    +0.000 A 
ATOM      8  C   UNL     1      -3.703  10.255  15.818  0.00  0.00    +0.000 A 
ATOM      9  C   UNL     1      -4.538  11.174  16.435  0.00  0.00    +0.000 A 
ATOM     10  C   UNL     1      -4.183  11.768  17.652  0.00  0.00    +0.000 A 
ATOM     11  C   UNL     1      -2.968  11.407  18.268  0.00  0.00    +0.000 A 
ATOM     12  N   UNL     1      -2.370  11.778  19.481  0.00  0.00    +0.000 N 
ATOM     13  C   UNL     1      -2.836  12.803  20.445  0.00  0.00    +0.000 C 
ATOM     14  C   UNL     1      -2.777  12.288  21.889  0.00  0.00    +0.000 C 
ATOM     15  C   UNL     1       0.435   9.888  18.104  0.00  0.00    +0.000 C 
ATOM     16  C   UNL     1       1.553  10.489  19.040  0.00  0.00    +0.000 C 
ATOM     17  N   UNL     1       1.146  11.524  20.060  0.00  0.00    +0.000 NA
ATOM     18  C   UNL     1       1.076  12.822  19.363  0.00  0.00    +0.000 C 
ENDROOT
BRANCH   1  21
ATOM     19  C   UNL     1      -2.352  14.700  24.566  0.00  0.00    +0.000 C 
ATOM     20  C   UNL     1      -1.251  14.768  23.565  0.00  0.00    +0.000 C 
ATOM     21  C   UNL     1      -0.820  13.794  22.733  0.00  0.00    +0.000 C 
BRANCH  21  22
ATOM     22  C   UNL     1       0.461  14.140  22.045  0.00  0.00    +0.000 C 
ATOM     23  O   UNL     1       0.922  15.275  22.008  0.00  0.00    +0.000 OA
ENDBRANCH  21  22
ENDBRANCH   1  21
BRANCH  13  24
ATOM     24  O   UNL     1      -4.192  13.159  20.134  0.00  0.00    +0.000 OA
ATOM     25  C   UNL     1      -5.129  12.990  21.185  0.00  0.00    +0.000 C 
ENDBRANCH  13  24
TORSDOF 3
ENDMDL
MODEL 3
REMARK VINA RESULT:      -6.1      0.989      1.106
REMARK  Name = 
REMARK  6 active torsions:
REMARK  status: ('A' for Active; 'I' for Inactive)
REMARK    1  A    between atoms: C_1  and  C_2
REMARK    2  A    between atoms: C_3  and  C_4
REMARK    3  A    between atoms: C_3  and  C_6
REMARK    4  A    between atoms: C_18  and  O_19
REMARK    5  A    between atoms: O_19  and  C_20
REMARK    6  A    between atoms: N_24  and  C_25
REMARK                            x       y       z     vdW  Elec       q    Type
REMARK                         _______ _______ _______ _____ _____    ______ ____
ROOT
ATOM      1  C   UNL     1      -3.133  13.227  22.961  0.00  0.00    +0.000 C 
ATOM      2  C   UNL     1      -1.945  12.266  22.990  0.00  0.00    +0.000 C 
ATOM      3  C   UNL     1      -1.094  11.968  21.755  0.00  0.00    +0.000 C 
ATOM      4  C   UNL     1      -1.717  11.669  20.440  0.00  0.00    +0.000 A 
ATOM      5  C   UNL     1      -0.971  10.986  19.500  0.00  0.00    +0.000 A 
ATOM      6  C   UNL     1      -1.805  10.740  18.395  0.00  0.00    +0.000 A 
ATOM      7  C   UNL     1      -1.648   9.974  17.222  0.00  0.00    +0.000 A 
ATOM      8  C   UNL     1      -2.653   9.974  16.255  0.00  0.00    +0.000 A 
ATOM      9  C   UNL     1      -3.778  10.768  16.421  0.00  0.00    +0.000 A 
ATOM     10  C   UNL     1      -3.949  11.545  17.574  0.00  0.00    +0.000 A 
ATOM     11  C   UNL     1      -2.973  11.498  18.589  0.00  0.00    +0.000 A 
ATOM     12  N   UNL     1      -2.883  12.105  19.850  0.00  0.00    +0.000 N 
ATOM     13  C   UNL     1      -3.798  13.112  20.439  0.00  0.00    +0.000 C 
ATOM     14  C   UNL     1      -4.150  12.772  21.892  0.00  0.00    +0.000 C 
ATOM     15  C   UNL     1       0.478  10.678  19.746  0.00  0.00    +0.000 C 
ATOM     16  C   UNL     1       1.108  11.584  20.873  0.00  0.00    +0.000 C 
ATOM     17  N   UNL     1       0.227  12.617  21.531  0.00  0.00    +0.000 NA
ATOM     18  C   UNL     1       0.198  13.795  20.644  0.00  0.00    +0.000 C 
ENDROOT
BRANCH   1  21
ATOM     19  C   UNL     1      -2.710  14.956  25.587  0.00  0.00    +0.000 C 
ATOM     20  C   UNL     1      -2.692  15.440  24.178  0.00  0.00    +0.000 C 
ATOM     21  C   UNL     1      -2.848  14.716  23.047  0.00  0.00    +0.000 C 
BRANCH  21  22
ATOM     22  C   UNL     1      -2.526  15.492  21.810  0.00  0.00    +0.000 C 
ATOM     23  O   UNL     1      -2.068  16.629  21.827  0.00  0.00    +0.000 OA
ENDBRANCH  21  22
ENDBRANCH   1  21
BRANCH  13  24
ATOM     24  O   UNL     1      -5.008  13.156  19.666  0.00  0.00    +0.000 OA
ATOM     25  C   UNL     1      -6.186  12.755  20.344  0.00  0.00    +0.000 C 
ENDBRANCH  13  24
TORSDOF 3
ENDMDL
MODEL 4
REMARK VINA RESULT:      -6.1      2.020      5.048
REMARK  Name = 
REMARK  6 active torsions:
REMARK  status: ('A' for Active; 'I' for Inactive)
REMARK    1  A    between atoms: C_1  and  C_2
REMARK    2  A    between atoms: C_3  and  C_4
REMARK    3  A    between atoms: C_3  and  C_6
REMARK    4  A    between atoms: C_18  and  O_19
REMARK    5  A    between atoms: O_19  and  C_20
REMARK    6  A    between atoms: N_24  and  C_25
REMARK                            x       y       z     vdW  Elec       q    Type
REMARK                         _______ _______ _______ _____ _____    ______ ____
ROOT
ATOM      1  C   UNL     1      -0.063  11.933  18.968  0.00  0.00    +0.000 C 
ATOM      2  C   UNL     1      -0.435  13.212  19.718  0.00  0.00    +0.000 C 
ATOM      3  C   UNL     1      -1.720  13.346  20.537  0.00  0.00    +0.000 C 
ATOM      4  C   UNL     1      -3.030  12.897  19.999  0.00  0.00    +0.000 A 
ATOM      5  C   UNL     1      -4.181  13.425  20.549  0.00  0.00    +0.000 A 
ATOM      6  C   UNL     1      -5.270  12.927  19.810  0.00  0.00    +0.000 A 
ATOM      7  C   UNL     1      -6.648  13.221  19.810  0.00  0.00    +0.000 A 
ATOM      8  C   UNL     1      -7.511  12.497  18.988  0.00  0.00    +0.000 A 
ATOM      9  C   UNL     1      -7.023  11.455  18.214  0.00  0.00    +0.000 A 
ATOM     10  C   UNL     1      -5.659  11.139  18.207  0.00  0.00    +0.000 A 
ATOM     11  C   UNL     1      -4.767  11.909  18.981  0.00  0.00    +0.000 A 
ATOM     12  N   UNL     1      -3.375  11.875  19.143  0.00  0.00    +0.000 N 
ATOM     13  C   UNL     1      -2.423  10.880  18.593  0.00  0.00    +0.000 C 
ATOM     14  C   UNL     1      -1.190  11.557  17.982  0.00  0.00    +0.000 C 
ATOM     15  C   UNL     1      -4.116  14.322  21.751  0.00  0.00    +0.000 C 
ATOM     16  C   UNL     1      -2.755  14.187  22.536  0.00  0.00    +0.000 C 
ATOM     17  N   UNL     1      -1.730  13.207  22.020  0.00  0.00    +0.000 NA
ATOM     18  C   UNL     1      -2.112  11.873  22.516  0.00  0.00    +0.000 C 
ENDROOT
BRANCH   1  21
ATOM     19  C   UNL     1       1.217   9.265  17.825  0.00  0.00    +0.000 C 
ATOM     20  C   UNL     1       1.083   9.658  19.255  0.00  0.00    +0.000 C 
ATOM     21  C   UNL     1       0.562  10.798  19.761  0.00  0.00    +0.000 C 
BRANCH  21  22
ATOM     22  C   UNL     1       0.817  10.956  21.225  0.00  0.00    +0.000 C 
ATOM     23  O   UNL     1       1.085  10.019  21.969  0.00  0.00    +0.000 OA
ENDBRANCH  21  22
ENDBRANCH   1  21
BRANCH  13  24
ATOM     24  O   UNL     1      -3.082  10.111  17.575  0.00  0.00    +0.000 OA
ATOM     25  C   UNL     1      -2.515  10.191  16.278  0.00  0.00    +0.000 C 
ENDBRANCH  13  24
TORSDOF 3
ENDMDL
MODEL 5
REMARK VINA RESULT:      -6.1      2.082      4.428
REMARK  Name = 
REMARK  6 active torsions:
REMARK  status: ('A' for Active; 'I' for Inactive)
REMARK    1  A    between atoms: C_1  and  C_2
REMARK    2  A    between atoms: C_3  and  C_4
REMARK    3  A    between atoms: C_3  and  C_6
REMARK    4  A    between atoms: C_18  and  O_19
REMARK    5  A    between atoms: O_19  and  C_20
REMARK    6  A    between atoms: N_24  and  C_25
REMARK                            x       y       z     vdW  Elec       q    Type
REMARK                         _______ _______ _______ _____ _____    ______ ____
ROOT
ATOM      1  C   UNL     1      -3.877  14.392  21.496  0.00  0.00    +0.000 C 
ATOM      2  C   UNL     1      -5.027  14.641  20.520  0.00  0.00    +0.000 C 
ATOM      3  C   UNL     1      -5.610  13.542  19.631  0.00  0.00    +0.000 C 
ATOM      4  C   UNL     1      -4.732  12.621  18.864  0.00  0.00    +0.000 A 
ATOM      5  C   UNL     1      -5.263  11.970  17.768  0.00  0.00    +0.000 A 
ATOM      6  C   UNL     1      -4.220  11.247  17.160  0.00  0.00    +0.000 A 
ATOM      7  C   UNL     1      -4.126  10.527  15.953  0.00  0.00    +0.000 A 
ATOM      8  C   UNL     1      -2.949   9.844  15.644  0.00  0.00    +0.000 A 
ATOM      9  C   UNL     1      -1.896   9.830  16.546  0.00  0.00    +0.000 A 
ATOM     10  C   UNL     1      -1.974  10.529  17.756  0.00  0.00    +0.000 A 
ATOM     11  C   UNL     1      -3.131  11.279  18.048  0.00  0.00    +0.000 A 
ATOM     12  N   UNL     1      -3.482  12.106  19.124  0.00  0.00    +0.000 N 
ATOM     13  C   UNL     1      -2.723  12.334  20.378  0.00  0.00    +0.000 C 
ATOM     14  C   UNL     1      -2.659  13.824  20.736  0.00  0.00    +0.000 C 
ATOM     15  C   UNL     1      -6.725  12.078  17.444  0.00  0.00    +0.000 C 
ATOM     16  C   UNL     1      -7.585  12.563  18.674  0.00  0.00    +0.000 C 
ATOM     17  N   UNL     1      -6.874  12.834  19.977  0.00  0.00    +0.000 NA
ATOM     18  C   UNL     1      -6.693  11.537  20.655  0.00  0.00    +0.000 C 
ENDROOT
BRANCH   1  21
ATOM     19  C   UNL     1      -1.925  13.997  23.965  0.00  0.00    +0.000 C 
ATOM     20  C   UNL     1      -3.352  13.581  23.870  0.00  0.00    +0.000 C 
ATOM     21  C   UNL     1      -4.205  13.760  22.837  0.00  0.00    +0.000 C 
BRANCH  21  22
ATOM     22  C   UNL     1      -5.621  13.436  23.188  0.00  0.00    +0.000 C 
ATOM     23  O   UNL     1      -5.946  12.450  23.841  0.00  0.00    +0.000 OA
ENDBRANCH  21  22
ENDBRANCH   1  21
BRANCH  13  24
ATOM     24  O   UNL     1      -1.385  11.838  20.214  0.00  0.00    +0.000 OA
ATOM     25  C   UNL     1      -0.848  11.137  21.323  0.00  0.00    +0.000 C 
ENDBRANCH  13  24
TORSDOF 3
ENDMDL
MODEL 6
REMARK VINA RESULT:      -6.0      2.054      5.189
REMARK  Name = 
REMARK  6 active torsions:
REMARK  status: ('A' for Active; 'I' for Inactive)
REMARK    1  A    between atoms: C_1  and  C_2
REMARK    2  A    between atoms: C_3  and  C_4
REMARK    3  A    between atoms: C_3  and  C_6
REMARK    4  A    between atoms: C_18  and  O_19
REMARK    5  A    between atoms: O_19  and  C_20
REMARK    6  A    between atoms: N_24  and  C_25
REMARK                            x       y       z     vdW  Elec       q    Type
REMARK                         _______ _______ _______ _____ _____    ______ ____
ROOT
ATOM      1  C   UNL     1       0.826  10.756  19.592  0.00  0.00    +0.000 C 
ATOM      2  C   UNL     1       0.819  12.027  20.442  0.00  0.00    +0.000 C 
ATOM      3  C   UNL     1      -0.404  12.478  21.244  0.00  0.00    +0.000 C 
ATOM      4  C   UNL     1      -1.762  12.487  20.642  0.00  0.00    +0.000 A 
ATOM      5  C   UNL     1      -2.727  13.294  21.212  0.00  0.00    +0.000 A 
ATOM      6  C   UNL     1      -3.880  13.204  20.411  0.00  0.00    +0.000 A 
ATOM      7  C   UNL     1      -5.106  13.899  20.409  0.00  0.00    +0.000 A 
ATOM      8  C   UNL     1      -6.108  13.533  19.510  0.00  0.00    +0.000 A 
ATOM      9  C   UNL     1      -5.918  12.455  18.658  0.00  0.00    +0.000 A 
ATOM     10  C   UNL     1      -4.712  11.744  18.652  0.00  0.00    +0.000 A 
ATOM     11  C   UNL     1      -3.667  12.148  19.508  0.00  0.00    +0.000 A 
ATOM     12  N   UNL     1      -2.358  11.685  19.694  0.00  0.00    +0.000 N 
ATOM     13  C   UNL     1      -1.721  10.495  19.079  0.00  0.00    +0.000 C 
ATOM     14  C   UNL     1      -0.316  10.814  18.554  0.00  0.00    +0.000 C 
ATOM     15  C   UNL     1      -2.452  14.034  22.489  0.00  0.00    +0.000 C 
ATOM     16  C   UNL     1      -1.230  13.436  23.286  0.00  0.00    +0.000 C 
ATOM     17  N   UNL     1      -0.522  12.236  22.708  0.00  0.00    +0.000 NA
ATOM     18  C   UNL     1      -1.306  11.044  23.079  0.00  0.00    +0.000 C 
ENDROOT
BRANCH   1  21
ATOM     19  C   UNL     1       2.163   8.143  18.391  0.00  0.00    +0.000 C 
ATOM     20  C   UNL     1       1.600   8.319  19.759  0.00  0.00    +0.000 C 
ATOM     21  C   UNL     1       1.048   9.429  20.295  0.00  0.00    +0.000 C 
BRANCH  21  22
ATOM     22  C   UNL     1       0.817   9.312  21.768  0.00  0.00    +0.000 C 
ATOM     23  O   UNL     1       1.716   9.377  22.599  0.00  0.00    +0.000 OA
ENDBRANCH  21  22
ENDBRANCH   1  21
BRANCH  13  24
ATOM     24  O   UNL     1      -2.533  10.040  17.985  0.00  0.00    +0.000 OA
ATOM     25  C   UNL     1      -1.979  10.216  16.692  0.00  0.00    +0.000 C 
ENDBRANCH  13  24
TORSDOF 3
ENDMDL
MODEL 7
REMARK VINA RESULT:      -5.9      1.996      4.157
REMARK  Name = 
REMARK  6 active torsions:
REMARK  status: ('A' for Active; 'I' for Inactive)
REMARK    1  A    between atoms: C_1  and  C_2
REMARK    2  A    between atoms: C_3  and  C_4
REMARK    3  A    between atoms: C_3  and  C_6
REMARK    4  A    between atoms: C_18  and  O_19
REMARK    5  A    between atoms: O_19  and  C_20
REMARK    6  A    between atoms: N_24  and  C_25
REMARK                            x       y       z     vdW  Elec       q    Type
REMARK                         _______ _______ _______ _____ _____    ______ ____
ROOT
ATOM      1  C   UNL     1      -3.347  14.577  22.065  0.00  0.00    +0.000 C 
ATOM      2  C   UNL     1      -4.530  14.918  21.159  0.00  0.00    +0.000 C 
ATOM      3  C   UNL     1      -5.241  13.872  20.298  0.00  0.00    +0.000 C 
ATOM      4  C   UNL     1      -4.477  12.898  19.477  0.00  0.00    +0.000 A 
ATOM      5  C   UNL     1      -5.116  12.297  18.410  0.00  0.00    +0.000 A 
ATOM      6  C   UNL     1      -4.165  11.506  17.740  0.00  0.00    +0.000 A 
ATOM      7  C   UNL     1      -4.191  10.792  16.525  0.00  0.00    +0.000 A 
ATOM      8  C   UNL     1      -3.087  10.029  16.145  0.00  0.00    +0.000 A 
ATOM      9  C   UNL     1      -1.988   9.930  16.986  0.00  0.00    +0.000 A 
ATOM     10  C   UNL     1      -1.946  10.623  18.202  0.00  0.00    +0.000 A 
ATOM     11  C   UNL     1      -3.027  11.451  18.564  0.00  0.00    +0.000 A 
ATOM     12  N   UNL     1      -3.255  12.291  19.663  0.00  0.00    +0.000 N 
ATOM     13  C   UNL     1      -2.412  12.452  20.872  0.00  0.00    +0.000 C 
ATOM     14  C   UNL     1      -2.219  13.929  21.233  0.00  0.00    +0.000 C 
ATOM     15  C   UNL     1      -6.582  12.514  18.171  0.00  0.00    +0.000 C 
ATOM     16  C   UNL     1      -7.333  13.048  19.451  0.00  0.00    +0.000 C 
ATOM     17  N   UNL     1      -6.531  13.254  20.712  0.00  0.00    +0.000 NA
ATOM     18  C   UNL     1      -6.407  11.941  21.372  0.00  0.00    +0.000 C 
ENDROOT
BRANCH   1  21
ATOM     19  C   UNL     1      -3.845  16.094  24.806  0.00  0.00    +0.000 C 
ATOM     20  C   UNL     1      -3.831  14.622  24.582  0.00  0.00    +0.000 C 
ATOM     21  C   UNL     1      -3.644  13.958  23.420  0.00  0.00    +0.000 C 
BRANCH  21  22
ATOM     22  C   UNL     1      -3.940  12.496  23.529  0.00  0.00    +0.000 C 
ATOM     23  O   UNL     1      -4.491  11.990  24.500  0.00  0.00    +0.000 OA
ENDBRANCH  21  22
ENDBRANCH   1  21
BRANCH  13  24
ATOM     24  O   UNL     1      -1.125  11.862  20.628  0.00  0.00    +0.000 OA
ATOM     25  C   UNL     1      -0.488  11.287  21.757  0.00  0.00    +0.000 C 
ENDBRANCH  13  24
TORSDOF 3
ENDMDL
MODEL 8
REMARK VINA RESULT:      -5.8      0.951      1.071
REMARK  Name = 
REMARK  6 active torsions:
REMARK  status: ('A' for Active; 'I' for Inactive)
REMARK    1  A    between atoms: C_1  and  C_2
REMARK    2  A    between atoms: C_3  and  C_4
REMARK    3  A    between atoms: C_3  and  C_6
REMARK    4  A    between atoms: C_18  and  O_19
REMARK    5  A    between atoms: O_19  and  C_20
REMARK    6  A    between atoms: N_24  and  C_25
REMARK                            x       y       z     vdW  Elec       q    Type
REMARK                         _______ _______ _______ _____ _____    ______ ____
ROOT
ATOM      1  C   UNL     1      -4.124  13.233  22.633  0.00  0.00    +0.000 C 
ATOM      2  C   UNL     1      -2.831  12.428  22.766  0.00  0.00    +0.000 C 
ATOM      3  C   UNL     1      -1.850  12.243  21.606  0.00  0.00    +0.000 C 
ATOM      4  C   UNL     1      -2.321  11.873  20.247  0.00  0.00    +0.000 A 
ATOM      5  C   UNL     1      -1.420  11.293  19.376  0.00  0.00    +0.000 A 
ATOM      6  C   UNL     1      -2.123  10.948  18.208  0.00  0.00    +0.000 A 
ATOM      7  C   UNL     1      -1.776  10.212  17.057  0.00  0.00    +0.000 A 
ATOM      8  C   UNL     1      -2.689  10.091  16.010  0.00  0.00    +0.000 A 
ATOM      9  C   UNL     1      -3.915  10.737  16.079  0.00  0.00    +0.000 A 
ATOM     10  C   UNL     1      -4.276  11.482  17.208  0.00  0.00    +0.000 A 
ATOM     11  C   UNL     1      -3.388  11.554  18.300  0.00  0.00    +0.000 A 
ATOM     12  N   UNL     1      -3.479  12.162  19.560  0.00  0.00    +0.000 N 
ATOM     13  C   UNL     1      -4.558  13.045  20.066  0.00  0.00    +0.000 C 
ATOM     14  C   UNL     1      -4.984  12.658  21.487  0.00  0.00    +0.000 C 
ATOM     15  C   UNL     1       0.031  11.168  19.743  0.00  0.00    +0.000 C 
ATOM     16  C   UNL     1       0.448  12.141  20.912  0.00  0.00    +0.000 C 
ATOM     17  N   UNL     1      -0.607  13.054  21.487  0.00  0.00    +0.000 NA
ATOM     18  C   UNL     1      -0.710  14.222  20.594  0.00  0.00    +0.000 C 
ENDROOT
BRANCH   1  21
ATOM     19  C   UNL     1      -6.499  15.321  22.382  0.00  0.00    +0.000 C 
ATOM     20  C   UNL     1      -5.056  15.620  22.600  0.00  0.00    +0.000 C 
ATOM     21  C   UNL     1      -4.035  14.746  22.732  0.00  0.00    +0.000 C 
BRANCH  21  22
ATOM     22  C   UNL     1      -2.766  15.395  23.184  0.00  0.00    +0.000 C 
ATOM     23  O   UNL     1      -2.470  15.549  24.364  0.00  0.00    +0.000 OA
ENDBRANCH  21  22
ENDBRANCH   1  21
BRANCH  13  24
ATOM     24  O   UNL     1      -5.696  12.940  19.196  0.00  0.00    +0.000 OA
ATOM     25  C   UNL     1      -6.897  12.494  19.803  0.00  0.00    +0.000 C 
ENDBRANCH  13  24
TORSDOF 3
ENDMDL
MODEL 9
REMARK VINA RESULT:      -5.8      1.708      2.656
REMARK  Name = 
REMARK  6 active torsions:
REMARK  status: ('A' for Active; 'I' for Inactive)
REMARK    1  A    between atoms: C_1  and  C_2
REMARK    2  A    between atoms: C_3  and  C_4
REMARK    3  A    between atoms: C_3  and  C_6
REMARK    4  A    between atoms: C_18  and  O_19
REMARK    5  A    between atoms: O_19  and  C_20
REMARK    6  A    between atoms: N_24  and  C_25
REMARK                            x       y       z     vdW  Elec       q    Type
REMARK                         _______ _______ _______ _____ _____    ______ ____
ROOT
ATOM      1  C   UNL     1      -1.607  12.966  23.289  0.00  0.00    +0.000 C 
ATOM      2  C   UNL     1      -0.920  12.154  22.191  0.00  0.00    +0.000 C 
ATOM      3  C   UNL     1      -1.297  12.278  20.713  0.00  0.00    +0.000 C 
ATOM      4  C   UNL     1      -2.716  12.274  20.275  0.00  0.00    +0.000 A 
ATOM      5  C   UNL     1      -2.997  11.940  18.965  0.00  0.00    +0.000 A 
ATOM      6  C   UNL     1      -4.397  11.910  18.827  0.00  0.00    +0.000 A 
ATOM      7  C   UNL     1      -5.253  11.499  17.786  0.00  0.00    +0.000 A 
ATOM      8  C   UNL     1      -6.632  11.653  17.921  0.00  0.00    +0.000 A 
ATOM      9  C   UNL     1      -7.157  12.259  19.053  0.00  0.00    +0.000 A 
ATOM     10  C   UNL     1      -6.323  12.685  20.095  0.00  0.00    +0.000 A 
ATOM     11  C   UNL     1      -4.933  12.471  19.999  0.00  0.00    +0.000 A 
ATOM     12  N   UNL     1      -3.869  12.731  20.874  0.00  0.00    +0.000 N 
ATOM     13  C   UNL     1      -3.915  13.451  22.169  0.00  0.00    +0.000 C 
ATOM     14  C   UNL     1      -3.130  12.708  23.256  0.00  0.00    +0.000 C 
ATOM     15  C   UNL     1      -1.891  11.724  17.974  0.00  0.00    +0.000 C 
ATOM     16  C   UNL     1      -0.525  12.360  18.440  0.00  0.00    +0.000 C 
ATOM     17  N   UNL     1      -0.495  13.092  19.759  0.00  0.00    +0.000 NA
ATOM     18  C   UNL     1      -1.010  14.452  19.518  0.00  0.00    +0.000 C 
ENDROOT
BRANCH   1  21
ATOM     19  C   UNL     1      -2.557  14.962  25.564  0.00  0.00    +0.000 C 
ATOM     20  C   UNL     1      -1.592  15.243  24.466  0.00  0.00    +0.000 C 
ATOM     21  C   UNL     1      -1.158  14.401  23.502  0.00  0.00    +0.000 C 
BRANCH  21  22
ATOM     22  C   UNL     1      -0.009  14.952  22.720  0.00  0.00    +0.000 C 
ATOM     23  O   UNL     1       0.830  15.708  23.197  0.00  0.00    +0.000 OA
ENDBRANCH  21  22
ENDBRANCH   1  21
BRANCH  13  24
ATOM     24  O   UNL     1      -5.283  13.576  22.589  0.00  0.00    +0.000 OA
ATOM     25  C   UNL     1      -5.589  14.728  23.357  0.00  0.00    +0.000 C 
ENDBRANCH  13  24
TORSDOF 3
ENDMDL
