MODEL 1
REMARK VINA RESULT:      -7.7      0.000      0.000
REMARK  Name = 
REMARK  7 active torsions:
REMARK  status: ('A' for Active; 'I' for Inactive)
REMARK    1  A    between atoms: C_1  and  C_2
REMARK    2  A    between atoms: C_2  and  N_3
REMARK    3  A    between atoms: C_4  and  C_5
REMARK    4  A    between atoms: C_9  and  C_10
REMARK    5  A    between atoms: C_10  and  N_11
REMARK    6  A    between atoms: C_16  and  C_17
REMARK    7  A    between atoms: C_19  and  C_20
REMARK                            x       y       z     vdW  Elec       q    Type
REMARK                         _______ _______ _______ _____ _____    ______ ____
ROOT
ATOM      1  C   UNL     1       2.685   6.355  20.045  0.00  0.00    +0.000 C 
ENDROOT
BRANCH   1   2
ATOM      2  N   UNL     1       1.683   7.381  19.696  0.00  0.00    +0.000 NA
ATOM      3  C   UNL     1       2.193   8.334  18.703  0.00  0.00    +0.000 C 
ATOM      4  C   UNL     1       1.109   9.340  18.300  0.00  0.00    +0.000 C 
ATOM      5  C   UNL     1       0.481  10.009  19.493  0.00  0.00    +0.000 A 
ATOM      6  C   UNL     1      -0.185  11.233  19.332  0.00  0.00    +0.000 A 
ATOM      7  C   UNL     1      -0.775  11.874  20.423  0.00  0.00    +0.000 A 
ATOM      8  C   UNL     1      -1.479  13.189  20.255  0.00  0.00    +0.000 C 
ATOM      9  C   UNL     1      -0.696  11.280  21.685  0.00  0.00    +0.000 A 
ATOM     10  C   UNL     1      -0.045  10.048  21.868  0.00  0.00    +0.000 A 
ATOM     11  C   UNL     1       0.047   9.471  23.255  0.00  0.00    +0.000 C 
ATOM     12  C   UNL     1       0.533   9.392  20.756  0.00  0.00    +0.000 A 
ATOM     13  C   UNL     1       1.273   8.078  20.938  0.00  0.00    +0.000 C 
ENDBRANCH   1   2
BRANCH   1  20
ATOM     14  N   UNL     1       5.689   4.903  16.496  0.00  0.00    +0.000 N 
ATOM     15  C   UNL     1       6.601   5.966  16.532  0.00  0.00    +0.000 C 
ATOM     16  C   UNL     1       6.296   7.300  17.210  0.00  0.00    +0.000 C 
ATOM     17  O   UNL     1       7.693   5.886  15.950  0.00  0.00    +0.000 OA
ATOM     18  C   UNL     1       4.543   4.929  17.291  0.00  0.00    +0.000 A 
ATOM     19  N   UNL     1       4.326   5.714  18.316  0.00  0.00    +0.000 NA
ATOM     20  C   UNL     1       3.076   5.502  18.867  0.00  0.00    +0.000 A 
ATOM     21  C   UNL     1       2.364   4.498  18.270  0.00  0.00    +0.000 A 
ATOM     22  S   UNL     1       3.262   3.825  16.980  0.00  0.00    +0.000 S 
BRANCH  14  24
ATOM     23  C   UNL     1       5.887   3.896  14.205  0.00  0.00    +0.000 C 
ATOM     24  C   UNL     1       6.061   3.706  15.712  0.00  0.00    +0.000 C 
ENDBRANCH  14  24
ENDBRANCH   1  20
TORSDOF 3
ENDMDL
MODEL 2
REMARK VINA RESULT:      -7.3      2.675      3.817
REMARK  Name = 
REMARK  7 active torsions:
REMARK  status: ('A' for Active; 'I' for Inactive)
REMARK    1  A    between atoms: C_1  and  C_2
REMARK    2  A    between atoms: C_2  and  N_3
REMARK    3  A    between atoms: C_4  and  C_5
REMARK    4  A    between atoms: C_9  and  C_10
REMARK    5  A    between atoms: C_10  and  N_11
REMARK    6  A    between atoms: C_16  and  C_17
REMARK    7  A    between atoms: C_19  and  C_20
REMARK                            x       y       z     vdW  Elec       q    Type
REMARK                         _______ _______ _______ _____ _____    ______ ____
ROOT
ATOM      1  C   UNL     1       2.121   8.052  17.822  0.00  0.00    +0.000 C 
ENDROOT
BRANCH   1   2
ATOM      2  N   UNL     1       1.831   8.869  19.016  0.00  0.00    +0.000 NA
ATOM      3  C   UNL     1       1.510   8.042  20.185  0.00  0.00    +0.000 C 
ATOM      4  C   UNL     1       1.291   8.911  21.429  0.00  0.00    +0.000 C 
ATOM      5  C   UNL     1       0.289  10.008  21.188  0.00  0.00    +0.000 A 
ATOM      6  C   UNL     1      -0.359  10.608  22.278  0.00  0.00    +0.000 A 
ATOM      7  C   UNL     1      -1.293  11.627  22.081  0.00  0.00    +0.000 A 
ATOM      8  C   UNL     1      -1.995  12.263  23.245  0.00  0.00    +0.000 C 
ATOM      9  C   UNL     1      -1.576  12.048  20.778  0.00  0.00    +0.000 A 
ATOM     10  C   UNL     1      -0.929  11.471  19.673  0.00  0.00    +0.000 A 
ATOM     11  C   UNL     1      -1.300  11.932  18.289  0.00  0.00    +0.000 C 
ATOM     12  C   UNL     1       0.031  10.453  19.878  0.00  0.00    +0.000 A 
ATOM     13  C   UNL     1       0.715   9.790  18.695  0.00  0.00    +0.000 C 
ENDBRANCH   1   2
BRANCH   1  20
ATOM     14  N   UNL     1       3.123   3.584  19.484  0.00  0.00    +0.000 N 
ATOM     15  C   UNL     1       1.932   3.337  20.180  0.00  0.00    +0.000 C 
ATOM     16  C   UNL     1       0.956   4.442  20.576  0.00  0.00    +0.000 C 
ATOM     17  O   UNL     1       1.647   2.192  20.563  0.00  0.00    +0.000 OA
ATOM     18  C   UNL     1       3.358   4.833  18.908  0.00  0.00    +0.000 A 
ATOM     19  N   UNL     1       2.464   5.762  18.678  0.00  0.00    +0.000 NA
ATOM     20  C   UNL     1       3.033   6.892  18.120  0.00  0.00    +0.000 A 
ATOM     21  C   UNL     1       4.376   6.781  17.880  0.00  0.00    +0.000 A 
ATOM     22  S   UNL     1       4.941   5.250  18.386  0.00  0.00    +0.000 S 
BRANCH  14  24
ATOM     23  C   UNL     1       3.668   1.608  18.035  0.00  0.00    +0.000 C 
ATOM     24  C   UNL     1       4.037   2.444  19.260  0.00  0.00    +0.000 C 
ENDBRANCH  14  24
ENDBRANCH   1  20
TORSDOF 3
ENDMDL
MODEL 3
REMARK VINA RESULT:      -7.1      3.613      8.364
REMARK  Name = 
REMARK  7 active torsions:
REMARK  status: ('A' for Active; 'I' for Inactive)
REMARK    1  A    between atoms: C_1  and  C_2
REMARK    2  A    between atoms: C_2  and  N_3
REMARK    3  A    between atoms: C_4  and  C_5
REMARK    4  A    between atoms: C_9  and  C_10
REMARK    5  A    between atoms: C_10  and  N_11
REMARK    6  A    between atoms: C_16  and  C_17
REMARK    7  A    between atoms: C_19  and  C_20
REMARK                            x       y       z     vdW  Elec       q    Type
REMARK                         _______ _______ _______ _____ _____    ______ ____
ROOT
ATOM      1  C   UNL     1       0.990   7.753  20.795  0.00  0.00    +0.000 C 
ENDROOT
BRANCH   1   2
ATOM      2  N   UNL     1       2.171   7.506  19.945  0.00  0.00    +0.000 NA
ATOM      3  C   UNL     1       2.031   8.112  18.616  0.00  0.00    +0.000 C 
ATOM      4  C   UNL     1       3.301   7.908  17.783  0.00  0.00    +0.000 C 
ATOM      5  C   UNL     1       3.724   6.465  17.732  0.00  0.00    +0.000 A 
ATOM      6  C   UNL     1       4.565   6.023  16.700  0.00  0.00    +0.000 A 
ATOM      7  C   UNL     1       4.970   4.689  16.629  0.00  0.00    +0.000 A 
ATOM      8  C   UNL     1       5.861   4.212  15.520  0.00  0.00    +0.000 C 
ATOM      9  C   UNL     1       4.528   3.792  17.605  0.00  0.00    +0.000 A 
ATOM     10  C   UNL     1       3.696   4.214  18.656  0.00  0.00    +0.000 A 
ATOM     11  C   UNL     1       3.215   3.199  19.658  0.00  0.00    +0.000 C 
ATOM     12  C   UNL     1       3.304   5.571  18.734  0.00  0.00    +0.000 A 
ATOM     13  C   UNL     1       2.376   6.042  19.841  0.00  0.00    +0.000 C 
ENDBRANCH   1   2
BRANCH   1  20
ATOM     14  N   UNL     1      -1.545  11.653  19.349  0.00  0.00    +0.000 N 
ATOM     15  C   UNL     1      -2.079  11.139  18.160  0.00  0.00    +0.000 C 
ATOM     16  C   UNL     1      -1.526   9.894  17.471  0.00  0.00    +0.000 C 
ATOM     17  O   UNL     1      -3.007  11.721  17.577  0.00  0.00    +0.000 OA
ATOM     18  C   UNL     1      -0.626  10.909  20.090  0.00  0.00    +0.000 A 
ATOM     19  N   UNL     1      -0.390   9.626  19.971  0.00  0.00    +0.000 NA
ATOM     20  C   UNL     1       0.602   9.207  20.838  0.00  0.00    +0.000 A 
ATOM     21  C   UNL     1       1.080  10.191  21.660  0.00  0.00    +0.000 A 
ATOM     22  S   UNL     1       0.296  11.672  21.324  0.00  0.00    +0.000 S 
BRANCH  14  24
ATOM     23  C   UNL     1      -3.273  12.736  20.813  0.00  0.00    +0.000 C 
ATOM     24  C   UNL     1      -2.097  12.927  19.855  0.00  0.00    +0.000 C 
ENDBRANCH  14  24
ENDBRANCH   1  20
TORSDOF 3
ENDMDL
MODEL 4
REMARK VINA RESULT:      -7.1      4.115      8.477
REMARK  Name = 
REMARK  7 active torsions:
REMARK  status: ('A' for Active; 'I' for Inactive)
REMARK    1  A    between atoms: C_1  and  C_2
REMARK    2  A    between atoms: C_2  and  N_3
REMARK    3  A    between atoms: C_4  and  C_5
REMARK    4  A    between atoms: C_9  and  C_10
REMARK    5  A    between atoms: C_10  and  N_11
REMARK    6  A    between atoms: C_16  and  C_17
REMARK    7  A    between atoms: C_19  and  C_20
REMARK                            x       y       z     vdW  Elec       q    Type
REMARK                         _______ _______ _______ _____ _____    ______ ____
ROOT
ATOM      1  C   UNL     1       2.052   9.483  17.967  0.00  0.00    +0.000 C 
ENDROOT
BRANCH   1   2
ATOM      2  N   UNL     1       1.668   8.246  18.676  0.00  0.00    +0.000 NA
ATOM      3  C   UNL     1       1.764   8.393  20.133  0.00  0.00    +0.000 C 
ATOM      4  C   UNL     1       1.285   7.123  20.845  0.00  0.00    +0.000 C 
ATOM      5  C   UNL     1       1.973   5.887  20.330  0.00  0.00    +0.000 A 
ATOM      6  C   UNL     1       2.005   4.729  21.121  0.00  0.00    +0.000 A 
ATOM      7  C   UNL     1       2.638   3.571  20.667  0.00  0.00    +0.000 A 
ATOM      8  C   UNL     1       2.684   2.335  21.516  0.00  0.00    +0.000 C 
ATOM      9  C   UNL     1       3.240   3.575  19.405  0.00  0.00    +0.000 A 
ATOM     10  C   UNL     1       3.209   4.719  18.590  0.00  0.00    +0.000 A 
ATOM     11  C   UNL     1       3.907   4.684  17.257  0.00  0.00    +0.000 C 
ATOM     12  C   UNL     1       2.549   5.884  19.046  0.00  0.00    +0.000 A 
ATOM     13  C   UNL     1       2.534   7.143  18.196  0.00  0.00    +0.000 C 
ENDBRANCH   1   2
BRANCH   1  20
ATOM     14  N   UNL     1      -2.014  11.978  18.947  0.00  0.00    +0.000 N 
ATOM     15  C   UNL     1      -2.937  11.166  18.275  0.00  0.00    +0.000 C 
ATOM     16  C   UNL     1      -2.528  10.138  17.222  0.00  0.00    +0.000 C 
ATOM     17  O   UNL     1      -4.156  11.293  18.471  0.00  0.00    +0.000 OA
ATOM     18  C   UNL     1      -0.647  11.717  18.856  0.00  0.00    +0.000 A 
ATOM     19  N   UNL     1      -0.094  10.606  18.437  0.00  0.00    +0.000 NA
ATOM     20  C   UNL     1       1.285  10.687  18.446  0.00  0.00    +0.000 A 
ATOM     21  C   UNL     1       1.774  11.868  18.934  0.00  0.00    +0.000 A 
ATOM     22  S   UNL     1       0.486  12.907  19.363  0.00  0.00    +0.000 S 
BRANCH  14  24
ATOM     23  C   UNL     1      -2.635  12.543  21.313  0.00  0.00    +0.000 C 
ATOM     24  C   UNL     1      -2.547  13.011  19.861  0.00  0.00    +0.000 C 
ENDBRANCH  14  24
ENDBRANCH   1  20
TORSDOF 3
ENDMDL
MODEL 5
REMARK VINA RESULT:      -7.1      1.452      2.645
REMARK  Name = 
REMARK  7 active torsions:
REMARK  status: ('A' for Active; 'I' for Inactive)
REMARK    1  A    between atoms: C_1  and  C_2
REMARK    2  A    between atoms: C_2  and  N_3
REMARK    3  A    between atoms: C_4  and  C_5
REMARK    4  A    between atoms: C_9  and  C_10
REMARK    5  A    between atoms: C_10  and  N_11
REMARK    6  A    between atoms: C_16  and  C_17
REMARK    7  A    between atoms: C_19  and  C_20
REMARK                            x       y       z     vdW  Elec       q    Type
REMARK                         _______ _______ _______ _____ _____    ______ ____
ROOT
ATOM      1  C   UNL     1       1.891   7.837  18.266  0.00  0.00    +0.000 C 
ENDROOT
BRANCH   1   2
ATOM      2  N   UNL     1       1.639   8.749  19.399  0.00  0.00    +0.000 NA
ATOM      3  C   UNL     1       1.216   8.027  20.604  0.00  0.00    +0.000 C 
ATOM      4  C   UNL     1       1.038   8.988  21.785  0.00  0.00    +0.000 C 
ATOM      5  C   UNL     1       0.140  10.147  21.445  0.00  0.00    +0.000 A 
ATOM      6  C   UNL     1      -0.484  10.867  22.475  0.00  0.00    +0.000 A 
ATOM      7  C   UNL     1      -1.322  11.945  22.186  0.00  0.00    +0.000 A 
ATOM      8  C   UNL     1      -2.001  12.710  23.285  0.00  0.00    +0.000 C 
ATOM      9  C   UNL     1      -1.532  12.305  20.852  0.00  0.00    +0.000 A 
ATOM     10  C   UNL     1      -0.907  11.608  19.805  0.00  0.00    +0.000 A 
ATOM     11  C   UNL     1      -1.198  12.010  18.384  0.00  0.00    +0.000 C 
ATOM     12  C   UNL     1      -0.043  10.528  20.103  0.00  0.00    +0.000 A 
ATOM     13  C   UNL     1       0.615   9.737  18.986  0.00  0.00    +0.000 C 
ENDBRANCH   1   2
BRANCH   1  20
ATOM     14  N   UNL     1       6.075   5.476  17.461  0.00  0.00    +0.000 N 
ATOM     15  C   UNL     1       6.331   5.922  16.157  0.00  0.00    +0.000 C 
ATOM     16  C   UNL     1       5.262   6.557  15.271  0.00  0.00    +0.000 C 
ATOM     17  O   UNL     1       7.446   5.760  15.638  0.00  0.00    +0.000 OA
ATOM     18  C   UNL     1       4.881   5.811  18.100  0.00  0.00    +0.000 A 
ATOM     19  N   UNL     1       4.047   6.755  17.741  0.00  0.00    +0.000 NA
ATOM     20  C   UNL     1       2.946   6.807  18.575  0.00  0.00    +0.000 A 
ATOM     21  C   UNL     1       2.985   5.914  19.611  0.00  0.00    +0.000 A 
ATOM     22  S   UNL     1       4.411   4.975  19.526  0.00  0.00    +0.000 S 
BRANCH  14  24
ATOM     23  C   UNL     1       7.976   5.696  19.086  0.00  0.00    +0.000 C 
ATOM     24  C   UNL     1       7.166   4.777  18.173  0.00  0.00    +0.000 C 
ENDBRANCH  14  24
ENDBRANCH   1  20
TORSDOF 3
ENDMDL
MODEL 6
REMARK VINA RESULT:      -6.9      4.152      8.948
REMARK  Name = 
REMARK  7 active torsions:
REMARK  status: ('A' for Active; 'I' for Inactive)
REMARK    1  A    between atoms: C_1  and  C_2
REMARK    2  A    between atoms: C_2  and  N_3
REMARK    3  A    between atoms: C_4  and  C_5
REMARK    4  A    between atoms: C_9  and  C_10
REMARK    5  A    between atoms: C_10  and  N_11
REMARK    6  A    between atoms: C_16  and  C_17
REMARK    7  A    between atoms: C_19  and  C_20
REMARK                            x       y       z     vdW  Elec       q    Type
REMARK                         _______ _______ _______ _____ _____    ______ ____
ROOT
ATOM      1  C   UNL     1       1.355  10.069  18.774  0.00  0.00    +0.000 C 
ENDROOT
BRANCH   1   2
ATOM      2  N   UNL     1       1.418   8.609  18.987  0.00  0.00    +0.000 NA
ATOM      3  C   UNL     1       1.535   8.264  20.408  0.00  0.00    +0.000 C 
ATOM      4  C   UNL     1       1.520   6.744  20.606  0.00  0.00    +0.000 C 
ATOM      5  C   UNL     1       2.537   6.046  19.743  0.00  0.00    +0.000 A 
ATOM      6  C   UNL     1       2.974   4.759  20.088  0.00  0.00    +0.000 A 
ATOM      7  C   UNL     1       3.918   4.091  19.305  0.00  0.00    +0.000 A 
ATOM      8  C   UNL     1       4.396   2.719  19.678  0.00  0.00    +0.000 C 
ATOM      9  C   UNL     1       4.424   4.722  18.165  0.00  0.00    +0.000 A 
ATOM     10  C   UNL     1       3.991   6.006  17.793  0.00  0.00    +0.000 A 
ATOM     11  C   UNL     1       4.597   6.657  16.579  0.00  0.00    +0.000 C 
ATOM     12  C   UNL     1       3.020   6.670  18.579  0.00  0.00    +0.000 A 
ATOM     13  C   UNL     1       2.564   8.073  18.215  0.00  0.00    +0.000 C 
ENDBRANCH   1   2
BRANCH   1  20
ATOM     14  N   UNL     1      -2.424  12.378  20.803  0.00  0.00    +0.000 N 
ATOM     15  C   UNL     1      -1.959  12.441  22.123  0.00  0.00    +0.000 C 
ATOM     16  C   UNL     1      -0.819  11.570  22.646  0.00  0.00    +0.000 C 
ATOM     17  O   UNL     1      -2.506  13.182  22.954  0.00  0.00    +0.000 OA
ATOM     18  C   UNL     1      -1.704  11.680  19.833  0.00  0.00    +0.000 A 
ATOM     19  N   UNL     1      -0.457  11.289  19.924  0.00  0.00    +0.000 NA
ATOM     20  C   UNL     1      -0.055  10.596  18.797  0.00  0.00    +0.000 A 
ATOM     21  C   UNL     1      -1.011  10.515  17.821  0.00  0.00    +0.000 A 
ATOM     22  S   UNL     1      -2.444  11.293  18.331  0.00  0.00    +0.000 S 
BRANCH  14  24
ATOM     23  C   UNL     1      -4.929  12.536  20.846  0.00  0.00    +0.000 C 
ATOM     24  C   UNL     1      -3.607  13.193  20.452  0.00  0.00    +0.000 C 
ENDBRANCH  14  24
ENDBRANCH   1  20
TORSDOF 3
ENDMDL
MODEL 7
REMARK VINA RESULT:      -6.9      3.634      8.694
REMARK  Name = 
REMARK  7 active torsions:
REMARK  status: ('A' for Active; 'I' for Inactive)
REMARK    1  A    between atoms: C_1  and  C_2
REMARK    2  A    between atoms: C_2  and  N_3
REMARK    3  A    between atoms: C_4  and  C_5
REMARK    4  A    between atoms: C_9  and  C_10
REMARK    5  A    between atoms: C_10  and  N_11
REMARK    6  A    between atoms: C_16  and  C_17
REMARK    7  A    between atoms: C_19  and  C_20
REMARK                            x       y       z     vdW  Elec       q    Type
REMARK                         _______ _______ _______ _____ _____    ______ ____
ROOT
ATOM      1  C   UNL     1       2.276   8.914  18.675  0.00  0.00    +0.000 C 
ENDROOT
BRANCH   1   2
ATOM      2  N   UNL     1       2.072   7.453  18.678  0.00  0.00    +0.000 NA
ATOM      3  C   UNL     1       2.064   6.899  20.037  0.00  0.00    +0.000 C 
ATOM      4  C   UNL     1       1.773   5.395  20.015  0.00  0.00    +0.000 C 
ATOM      5  C   UNL     1       2.687   4.650  19.079  0.00  0.00    +0.000 A 
ATOM      6  C   UNL     1       2.875   3.270  19.244  0.00  0.00    +0.000 A 
ATOM      7  C   UNL     1       3.719   2.557  18.391  0.00  0.00    +0.000 A 
ATOM      8  C   UNL     1       3.931   1.082  18.572  0.00  0.00    +0.000 C 
ATOM      9  C   UNL     1       4.378   3.237  17.362  0.00  0.00    +0.000 A 
ATOM     10  C   UNL     1       4.194   4.616  17.170  0.00  0.00    +0.000 A 
ATOM     11  C   UNL     1       4.958   5.308  16.073  0.00  0.00    +0.000 C 
ATOM     12  C   UNL     1       3.323   5.331  18.025  0.00  0.00    +0.000 A 
ATOM     13  C   UNL     1       3.138   6.829  17.857  0.00  0.00    +0.000 C 
ENDBRANCH   1   2
BRANCH   1  20
ATOM     14  N   UNL     1      -1.119  11.272  21.252  0.00  0.00    +0.000 N 
ATOM     15  C   UNL     1      -0.727  10.881  22.540  0.00  0.00    +0.000 C 
ATOM     16  C   UNL     1       0.199   9.696  22.803  0.00  0.00    +0.000 C 
ATOM     17  O   UNL     1      -1.174  11.459  23.542  0.00  0.00    +0.000 OA
ATOM     18  C   UNL     1      -0.486  10.738  20.130  0.00  0.00    +0.000 A 
ATOM     19  N   UNL     1       0.660  10.103  20.112  0.00  0.00    +0.000 NA
ATOM     20  C   UNL     1       0.990   9.679  18.839  0.00  0.00    +0.000 A 
ATOM     21  C   UNL     1       0.094  10.054  17.875  0.00  0.00    +0.000 A 
ATOM     22  S   UNL     1      -1.197  10.927  18.576  0.00  0.00    +0.000 S 
BRANCH  14  24
ATOM     23  C   UNL     1      -1.467  13.743  20.981  0.00  0.00    +0.000 C 
ATOM     24  C   UNL     1      -2.108  12.364  21.138  0.00  0.00    +0.000 C 
ENDBRANCH  14  24
ENDBRANCH   1  20
TORSDOF 3
ENDMDL
MODEL 8
REMARK VINA RESULT:      -6.9      3.935      8.905
REMARK  Name = 
REMARK  7 active torsions:
REMARK  status: ('A' for Active; 'I' for Inactive)
REMARK    1  A    between atoms: C_1  and  C_2
REMARK    2  A    between atoms: C_2  and  N_3
REMARK    3  A    between atoms: C_4  and  C_5
REMARK    4  A    between atoms: C_9  and  C_10
REMARK    5  A    between atoms: C_10  and  N_11
REMARK    6  A    between atoms: C_16  and  C_17
REMARK    7  A    between atoms: C_19  and  C_20
REMARK                            x       y       z     vdW  Elec       q    Type
REMARK                         _______ _______ _______ _____ _____    ______ ____
ROOT
ATOM      1  C   UNL     1       1.864   9.084  19.854  0.00  0.00    +0.000 C 
ENDROOT
BRANCH   1   2
ATOM      2  N   UNL     1       1.684   7.652  19.548  0.00  0.00    +0.000 NA
ATOM      3  C   UNL     1       1.659   6.827  20.762  0.00  0.00    +0.000 C 
ATOM      4  C   UNL     1       1.393   5.357  20.421  0.00  0.00    +0.000 C 
ATOM      5  C   UNL     1       2.337   4.835  19.371  0.00  0.00    +0.000 A 
ATOM      6  C   UNL     1       2.544   3.453  19.249  0.00  0.00    +0.000 A 
ATOM      7  C   UNL     1       3.416   2.943  18.285  0.00  0.00    +0.000 A 
ATOM      8  C   UNL     1       3.648   1.466  18.160  0.00  0.00    +0.000 C 
ATOM      9  C   UNL     1       4.083   3.830  17.435  0.00  0.00    +0.000 A 
ATOM     10  C   UNL     1       3.881   5.217  17.530  0.00  0.00    +0.000 A 
ATOM     11  C   UNL     1       4.654   6.131  16.618  0.00  0.00    +0.000 C 
ATOM     12  C   UNL     1       2.981   5.727  18.495  0.00  0.00    +0.000 A 
ATOM     13  C   UNL     1       2.775   7.226  18.640  0.00  0.00    +0.000 C 
ENDBRANCH   1   2
BRANCH   1  20
ATOM     14  N   UNL     1      -1.844  12.031  20.990  0.00  0.00    +0.000 N 
ATOM     15  C   UNL     1      -1.799  11.913  22.386  0.00  0.00    +0.000 C 
ATOM     16  C   UNL     1      -1.057  10.785  23.100  0.00  0.00    +0.000 C 
ATOM     17  O   UNL     1      -2.422  12.703  23.110  0.00  0.00    +0.000 OA
ATOM     18  C   UNL     1      -1.009  11.253  20.188  0.00  0.00    +0.000 A 
ATOM     19  N   UNL     1       0.054  10.596  20.581  0.00  0.00    +0.000 NA
ATOM     20  C   UNL     1       0.640   9.902  19.539  0.00  0.00    +0.000 A 
ATOM     21  C   UNL     1       0.029  10.088  18.329  0.00  0.00    +0.000 A 
ATOM     22  S   UNL     1      -1.318  11.126  18.502  0.00  0.00    +0.000 S 
BRANCH  14  24
ATOM     23  C   UNL     1      -4.155  12.698  20.270  0.00  0.00    +0.000 C 
ATOM     24  C   UNL     1      -2.689  13.102  20.419  0.00  0.00    +0.000 C 
ENDBRANCH  14  24
ENDBRANCH   1  20
TORSDOF 3
ENDMDL
MODEL 9
REMARK VINA RESULT:      -6.7      4.089      8.781
REMARK  Name = 
REMARK  7 active torsions:
REMARK  status: ('A' for Active; 'I' for Inactive)
REMARK    1  A    between atoms: C_1  and  C_2
REMARK    2  A    between atoms: C_2  and  N_3
REMARK    3  A    between atoms: C_4  and  C_5
REMARK    4  A    between atoms: C_9  and  C_10
REMARK    5  A    between atoms: C_10  and  N_11
REMARK    6  A    between atoms: C_16  and  C_17
REMARK    7  A    between atoms: C_19  and  C_20
REMARK                            x       y       z     vdW  Elec       q    Type
REMARK                         _______ _______ _______ _____ _____    ______ ____
ROOT
ATOM      1  C   UNL     1       1.842   9.859  18.150  0.00  0.00    +0.000 C 
ENDROOT
BRANCH   1   2
ATOM      2  N   UNL     1       1.785   8.435  18.534  0.00  0.00    +0.000 NA
ATOM      3  C   UNL     1       1.848   8.253  19.989  0.00  0.00    +0.000 C 
ATOM      4  C   UNL     1       1.707   6.774  20.364  0.00  0.00    +0.000 C 
ATOM      5  C   UNL     1       2.679   5.901  19.617  0.00  0.00    +0.000 A 
ATOM      6  C   UNL     1       3.005   4.634  20.122  0.00  0.00    +0.000 A 
ATOM      7  C   UNL     1       3.906   3.806  19.449  0.00  0.00    +0.000 A 
ATOM      8  C   UNL     1       4.265   2.455  19.993  0.00  0.00    +0.000 C 
ATOM      9  C   UNL     1       4.481   4.255  18.257  0.00  0.00    +0.000 A 
ATOM     10  C   UNL     1       4.160   5.515  17.725  0.00  0.00    +0.000 A 
ATOM     11  C   UNL     1       4.838   5.968  16.460  0.00  0.00    +0.000 C 
ATOM     12  C   UNL     1       3.232   6.342  18.400  0.00  0.00    +0.000 A 
ATOM     13  C   UNL     1       2.897   7.723  17.862  0.00  0.00    +0.000 C 
ENDBRANCH   1   2
BRANCH   1  20
ATOM     14  N   UNL     1      -2.414  11.873  19.398  0.00  0.00    +0.000 N 
ATOM     15  C   UNL     1      -3.141  11.585  18.236  0.00  0.00    +0.000 C 
ATOM     16  C   UNL     1      -2.480  11.187  16.918  0.00  0.00    +0.000 C 
ATOM     17  O   UNL     1      -4.376  11.702  18.215  0.00  0.00    +0.000 OA
ATOM     18  C   UNL     1      -1.053  11.576  19.470  0.00  0.00    +0.000 A 
ATOM     19  N   UNL     1      -0.388  10.779  18.672  0.00  0.00    +0.000 NA
ATOM     20  C   UNL     1       0.953  10.725  19.002  0.00  0.00    +0.000 A 
ATOM     21  C   UNL     1       1.286  11.460  20.107  0.00  0.00    +0.000 A 
ATOM     22  S   UNL     1      -0.095  12.253  20.727  0.00  0.00    +0.000 S 
BRANCH  14  24
ATOM     23  C   UNL     1      -3.294  13.876  20.628  0.00  0.00    +0.000 C 
ATOM     24  C   UNL     1      -3.165  12.355  20.577  0.00  0.00    +0.000 C 
ENDBRANCH  14  24
ENDBRANCH   1  20
TORSDOF 3
ENDMDL
