MODEL 1
REMARK VINA RESULT:      -6.7      0.000      0.000
REMARK  Name = 
REMARK  12 active torsions:
REMARK  status: ('A' for Active; 'I' for Inactive)
REMARK    1  A    between atoms: C_1  and  C_2
REMARK    2  A    between atoms: C_2  and  C_3
REMARK    3  A    between atoms: C_3  and  C_5
REMARK    4  A    between atoms: C_5  and  C_6
REMARK    5  A    between atoms: C_5  and  C_12
REMARK    6  A    between atoms: C_5  and  C_18
REMARK    7  A    between atoms: C_18  and  C_19
REMARK    8  A    between atoms: C_18  and  C_20
REMARK    9  A    between atoms: C_20  and  C_21
REMARK   10  A    between atoms: C_20  and  N_22
REMARK   11  A    between atoms: N_22  and  C_23
REMARK   12  A    between atoms: N_22  and  C_24
REMARK                            x       y       z     vdW  Elec       q    Type
REMARK                         _______ _______ _______ _____ _____    ______ ____
ROOT
ATOM      1  C   UNL     1       5.038   5.060  18.069  0.00  0.00    +0.000 C 
ENDROOT
BRANCH   1   2
ATOM      2  C   UNL     1       4.006   6.241  18.367  0.00  0.00    +0.000 A 
ATOM      3  C   UNL     1       3.209   6.238  19.534  0.00  0.00    +0.000 A 
ATOM      4  C   UNL     1       2.252   7.229  19.801  0.00  0.00    +0.000 A 
ATOM      5  C   UNL     1       2.036   8.251  18.889  0.00  0.00    +0.000 A 
ATOM      6  C   UNL     1       2.779   8.281  17.722  0.00  0.00    +0.000 A 
ATOM      7  C   UNL     1       3.755   7.309  17.480  0.00  0.00    +0.000 A 
ENDBRANCH   1   2
BRANCH   1   8
ATOM      8  C   UNL     1       5.390   4.876  16.536  0.00  0.00    +0.000 A 
ATOM      9  C   UNL     1       5.906   3.645  16.058  0.00  0.00    +0.000 A 
ATOM     10  C   UNL     1       6.219   3.428  14.711  0.00  0.00    +0.000 A 
ATOM     11  C   UNL     1       6.026   4.438  13.783  0.00  0.00    +0.000 A 
ATOM     12  C   UNL     1       5.515   5.660  14.208  0.00  0.00    +0.000 A 
ATOM     13  C   UNL     1       5.198   5.873  15.560  0.00  0.00    +0.000 A 
ENDBRANCH   1   8
BRANCH   1  14
ATOM     14  C   UNL     1       6.458   5.482  18.758  0.00  0.00    +0.000 C 
ATOM     15  O   UNL     1       6.648   5.422  19.978  0.00  0.00    +0.000 OA
BRANCH  14  17
ATOM     16  C   UNL     1       7.577   7.580  17.824  0.00  0.00    +0.000 C 
ATOM     17  C   UNL     1       7.579   6.061  17.881  0.00  0.00    +0.000 C 
ENDBRANCH  14  17
ENDBRANCH   1  14
BRANCH   1  18
ATOM     18  C   UNL     1       4.548   3.644  18.720  0.00  0.00    +0.000 C 
ATOM     19  C   UNL     1       4.287   3.799  20.255  0.00  0.00    +0.000 C 
BRANCH  18  20
ATOM     20  C   UNL     1       3.369   2.832  17.999  0.00  0.00    +0.000 C 
ATOM     21  C   UNL     1       3.513   1.302  18.064  0.00  0.00    +0.000 C 
BRANCH  20  22
ATOM     22  N   UNL     1       2.009   3.263  18.454  0.00  0.00    +0.000 NA
ATOM     23  C   UNL     1       1.327   4.122  17.479  0.00  0.00    +0.000 C 
ATOM     24  C   UNL     1       1.119   2.178  18.864  0.00  0.00    +0.000 C 
ENDBRANCH  20  22
ENDBRANCH  18  20
ENDBRANCH   1  18
TORSDOF 7
ENDMDL
MODEL 2
REMARK VINA RESULT:      -6.6      1.997      4.638
REMARK  Name = 
REMARK  12 active torsions:
REMARK  status: ('A' for Active; 'I' for Inactive)
REMARK    1  A    between atoms: C_1  and  C_2
REMARK    2  A    between atoms: C_2  and  C_3
REMARK    3  A    between atoms: C_3  and  C_5
REMARK    4  A    between atoms: C_5  and  C_6
REMARK    5  A    between atoms: C_5  and  C_12
REMARK    6  A    between atoms: C_5  and  C_18
REMARK    7  A    between atoms: C_18  and  C_19
REMARK    8  A    between atoms: C_18  and  C_20
REMARK    9  A    between atoms: C_20  and  C_21
REMARK   10  A    between atoms: C_20  and  N_22
REMARK   11  A    between atoms: N_22  and  C_23
REMARK   12  A    between atoms: N_22  and  C_24
REMARK                            x       y       z     vdW  Elec       q    Type
REMARK                         _______ _______ _______ _____ _____    ______ ____
ROOT
ATOM      1  C   UNL     1       3.952   5.045  18.143  0.00  0.00    +0.000 C 
ENDROOT
BRANCH   1   2
ATOM      2  C   UNL     1       3.522   4.212  19.435  0.00  0.00    +0.000 A 
ATOM      3  C   UNL     1       3.974   2.888  19.633  0.00  0.00    +0.000 A 
ATOM      4  C   UNL     1       3.572   2.106  20.728  0.00  0.00    +0.000 A 
ATOM      5  C   UNL     1       2.675   2.615  21.653  0.00  0.00    +0.000 A 
ATOM      6  C   UNL     1       2.189   3.901  21.486  0.00  0.00    +0.000 A 
ATOM      7  C   UNL     1       2.622   4.685  20.412  0.00  0.00    +0.000 A 
ENDBRANCH   1   2
BRANCH   1   8
ATOM      8  C   UNL     1       5.388   5.706  18.243  0.00  0.00    +0.000 A 
ATOM      9  C   UNL     1       6.289   5.320  19.267  0.00  0.00    +0.000 A 
ATOM     10  C   UNL     1       7.573   5.864  19.389  0.00  0.00    +0.000 A 
ATOM     11  C   UNL     1       8.011   6.818  18.486  0.00  0.00    +0.000 A 
ATOM     12  C   UNL     1       7.161   7.221  17.461  0.00  0.00    +0.000 A 
ATOM     13  C   UNL     1       5.874   6.670  17.340  0.00  0.00    +0.000 A 
ENDBRANCH   1   8
BRANCH   1  14
ATOM     14  C   UNL     1       4.087   3.980  16.912  0.00  0.00    +0.000 C 
ATOM     15  O   UNL     1       3.147   3.264  16.547  0.00  0.00    +0.000 OA
BRANCH  14  17
ATOM     16  C   UNL     1       5.469   4.245  14.780  0.00  0.00    +0.000 C 
ATOM     17  C   UNL     1       5.449   3.784  16.229  0.00  0.00    +0.000 C 
ENDBRANCH  14  17
ENDBRANCH   1  14
BRANCH   1  18
ATOM     18  C   UNL     1       2.833   6.165  17.738  0.00  0.00    +0.000 C 
ATOM     19  C   UNL     1       1.394   5.553  17.787  0.00  0.00    +0.000 C 
BRANCH  18  20
ATOM     20  C   UNL     1       2.889   7.601  18.447  0.00  0.00    +0.000 C 
ATOM     21  C   UNL     1       3.325   8.753  17.524  0.00  0.00    +0.000 C 
BRANCH  20  22
ATOM     22  N   UNL     1       1.621   7.940  19.167  0.00  0.00    +0.000 NA
ATOM     23  C   UNL     1       1.762   7.883  20.626  0.00  0.00    +0.000 C 
ATOM     24  C   UNL     1       1.008   9.209  18.780  0.00  0.00    +0.000 C 
ENDBRANCH  20  22
ENDBRANCH  18  20
ENDBRANCH   1  18
TORSDOF 7
ENDMDL
MODEL 3
REMARK VINA RESULT:      -6.5      5.793      9.438
REMARK  Name = 
REMARK  12 active torsions:
REMARK  status: ('A' for Active; 'I' for Inactive)
REMARK    1  A    between atoms: C_1  and  C_2
REMARK    2  A    between atoms: C_2  and  C_3
REMARK    3  A    between atoms: C_3  and  C_5
REMARK    4  A    between atoms: C_5  and  C_6
REMARK    5  A    between atoms: C_5  and  C_12
REMARK    6  A    between atoms: C_5  and  C_18
REMARK    7  A    between atoms: C_18  and  C_19
REMARK    8  A    between atoms: C_18  and  C_20
REMARK    9  A    between atoms: C_20  and  C_21
REMARK   10  A    between atoms: C_20  and  N_22
REMARK   11  A    between atoms: N_22  and  C_23
REMARK   12  A    between atoms: N_22  and  C_24
REMARK                            x       y       z     vdW  Elec       q    Type
REMARK                         _______ _______ _______ _____ _____    ______ ____
ROOT
ATOM      1  C   UNL     1      -0.388  11.551  19.149  0.00  0.00    +0.000 C 
ENDROOT
BRANCH   1   2
ATOM      2  C   UNL     1      -1.130  11.913  20.515  0.00  0.00    +0.000 A 
ATOM      3  C   UNL     1      -2.501  12.259  20.531  0.00  0.00    +0.000 A 
ATOM      4  C   UNL     1      -3.173  12.637  21.704  0.00  0.00    +0.000 A 
ATOM      5  C   UNL     1      -2.486  12.712  22.905  0.00  0.00    +0.000 A 
ATOM      6  C   UNL     1      -1.137  12.403  22.931  0.00  0.00    +0.000 A 
ATOM      7  C   UNL     1      -0.483  11.993  21.765  0.00  0.00    +0.000 A 
ENDBRANCH   1   2
BRANCH   1   8
ATOM      8  C   UNL     1       0.488  10.233  19.215  0.00  0.00    +0.000 A 
ATOM      9  C   UNL     1       1.138   9.742  18.056  0.00  0.00    +0.000 A 
ATOM     10  C   UNL     1       1.935   8.590  18.066  0.00  0.00    +0.000 A 
ATOM     11  C   UNL     1       2.115   7.882  19.243  0.00  0.00    +0.000 A 
ATOM     12  C   UNL     1       1.500   8.334  20.406  0.00  0.00    +0.000 A 
ATOM     13  C   UNL     1       0.705   9.492  20.392  0.00  0.00    +0.000 A 
ENDBRANCH   1   8
BRANCH   1  14
ATOM     14  C   UNL     1      -1.548  11.206  18.052  0.00  0.00    +0.000 C 
ATOM     15  O   UNL     1      -1.913  12.018  17.193  0.00  0.00    +0.000 OA
BRANCH  14  17
ATOM     16  C   UNL     1      -3.702   9.915  17.581  0.00  0.00    +0.000 C 
ATOM     17  C   UNL     1      -2.285   9.860  18.132  0.00  0.00    +0.000 C 
ENDBRANCH  14  17
ENDBRANCH   1  14
BRANCH   1  18
ATOM     18  C   UNL     1       0.500  12.802  18.586  0.00  0.00    +0.000 C 
ATOM     19  C   UNL     1      -0.283  14.149  18.736  0.00  0.00    +0.000 C 
BRANCH  18  20
ATOM     20  C   UNL     1       2.021  12.946  19.070  0.00  0.00    +0.000 C 
ATOM     21  C   UNL     1       3.068  12.712  17.967  0.00  0.00    +0.000 C 
BRANCH  20  22
ATOM     22  N   UNL     1       2.279  14.233  19.791  0.00  0.00    +0.000 NA
ATOM     23  C   UNL     1       2.576  14.039  21.215  0.00  0.00    +0.000 C 
ATOM     24  C   UNL     1       3.298  15.090  19.186  0.00  0.00    +0.000 C 
ENDBRANCH  20  22
ENDBRANCH  18  20
ENDBRANCH   1  18
TORSDOF 7
ENDMDL
MODEL 4
REMARK VINA RESULT:      -6.4      2.137      4.753
REMARK  Name = 
REMARK  12 active torsions:
REMARK  status: ('A' for Active; 'I' for Inactive)
REMARK    1  A    between atoms: C_1  and  C_2
REMARK    2  A    between atoms: C_2  and  C_3
REMARK    3  A    between atoms: C_3  and  C_5
REMARK    4  A    between atoms: C_5  and  C_6
REMARK    5  A    between atoms: C_5  and  C_12
REMARK    6  A    between atoms: C_5  and  C_18
REMARK    7  A    between atoms: C_18  and  C_19
REMARK    8  A    between atoms: C_18  and  C_20
REMARK    9  A    between atoms: C_20  and  C_21
REMARK   10  A    between atoms: C_20  and  N_22
REMARK   11  A    between atoms: N_22  and  C_23
REMARK   12  A    between atoms: N_22  and  C_24
REMARK                            x       y       z     vdW  Elec       q    Type
REMARK                         _______ _______ _______ _____ _____    ______ ____
ROOT
ATOM      1  C   UNL     1       3.364   5.805  18.853  0.00  0.00    +0.000 C 
ENDROOT
BRANCH   1   2
ATOM      2  C   UNL     1       4.923   5.981  18.560  0.00  0.00    +0.000 A 
ATOM      3  C   UNL     1       5.894   5.354  19.375  0.00  0.00    +0.000 A 
ATOM      4  C   UNL     1       7.273   5.531  19.182  0.00  0.00    +0.000 A 
ATOM      5  C   UNL     1       7.733   6.370  18.179  0.00  0.00    +0.000 A 
ATOM      6  C   UNL     1       6.816   7.022  17.371  0.00  0.00    +0.000 A 
ATOM      7  C   UNL     1       5.445   6.812  17.548  0.00  0.00    +0.000 A 
ENDBRANCH   1   2
BRANCH   1   8
ATOM      8  C   UNL     1       2.551   7.164  18.882  0.00  0.00    +0.000 A 
ATOM      9  C   UNL     1       2.330   7.896  17.689  0.00  0.00    +0.000 A 
ATOM     10  C   UNL     1       1.606   9.094  17.661  0.00  0.00    +0.000 A 
ATOM     11  C   UNL     1       1.069   9.608  18.830  0.00  0.00    +0.000 A 
ATOM     12  C   UNL     1       1.256   8.917  20.022  0.00  0.00    +0.000 A 
ATOM     13  C   UNL     1       1.981   7.714  20.046  0.00  0.00    +0.000 A 
ENDBRANCH   1   8
BRANCH   1  14
ATOM     14  C   UNL     1       2.731   4.986  17.590  0.00  0.00    +0.000 C 
ATOM     15  O   UNL     1       1.511   4.865  17.421  0.00  0.00    +0.000 OA
BRANCH  14  17
ATOM     16  C   UNL     1       4.015   2.844  17.052  0.00  0.00    +0.000 C 
ATOM     17  C   UNL     1       3.669   4.259  16.615  0.00  0.00    +0.000 C 
ENDBRANCH  14  17
ENDBRANCH   1  14
BRANCH   1  18
ATOM     18  C   UNL     1       3.092   4.944  20.216  0.00  0.00    +0.000 C 
ATOM     19  C   UNL     1       1.954   5.599  21.067  0.00  0.00    +0.000 C 
BRANCH  18  20
ATOM     20  C   UNL     1       2.903   3.357  20.099  0.00  0.00    +0.000 C 
ATOM     21  C   UNL     1       3.967   2.530  20.843  0.00  0.00    +0.000 C 
BRANCH  20  22
ATOM     22  N   UNL     1       1.522   2.911  20.467  0.00  0.00    +0.000 NA
ATOM     23  C   UNL     1       0.906   2.061  19.441  0.00  0.00    +0.000 C 
ATOM     24  C   UNL     1       1.405   2.269  21.774  0.00  0.00    +0.000 C 
ENDBRANCH  20  22
ENDBRANCH  18  20
ENDBRANCH   1  18
TORSDOF 7
ENDMDL
MODEL 5
REMARK VINA RESULT:      -6.4      0.836      1.577
REMARK  Name = 
REMARK  12 active torsions:
REMARK  status: ('A' for Active; 'I' for Inactive)
REMARK    1  A    between atoms: C_1  and  C_2
REMARK    2  A    between atoms: C_2  and  C_3
REMARK    3  A    between atoms: C_3  and  C_5
REMARK    4  A    between atoms: C_5  and  C_6
REMARK    5  A    between atoms: C_5  and  C_12
REMARK    6  A    between atoms: C_5  and  C_18
REMARK    7  A    between atoms: C_18  and  C_19
REMARK    8  A    between atoms: C_18  and  C_20
REMARK    9  A    between atoms: C_20  and  C_21
REMARK   10  A    between atoms: C_20  and  N_22
REMARK   11  A    between atoms: N_22  and  C_23
REMARK   12  A    between atoms: N_22  and  C_24
REMARK                            x       y       z     vdW  Elec       q    Type
REMARK                         _______ _______ _______ _____ _____    ______ ____
ROOT
ATOM      1  C   UNL     1       4.524   4.984  18.052  0.00  0.00    +0.000 C 
ENDROOT
BRANCH   1   2
ATOM      2  C   UNL     1       3.589   6.250  18.314  0.00  0.00    +0.000 A 
ATOM      3  C   UNL     1       3.513   7.308  17.379  0.00  0.00    +0.000 A 
ATOM      4  C   UNL     1       2.746   8.462  17.601  0.00  0.00    +0.000 A 
ATOM      5  C   UNL     1       2.045   8.613  18.787  0.00  0.00    +0.000 A 
ATOM      6  C   UNL     1       2.109   7.612  19.741  0.00  0.00    +0.000 A 
ATOM      7  C   UNL     1       2.847   6.450  19.497  0.00  0.00    +0.000 A 
ENDBRANCH   1   2
BRANCH   1   8
ATOM      8  C   UNL     1       5.064   4.870  16.567  0.00  0.00    +0.000 A 
ATOM      9  C   UNL     1       5.421   3.611  16.024  0.00  0.00    +0.000 A 
ATOM     10  C   UNL     1       5.889   3.457  14.714  0.00  0.00    +0.000 A 
ATOM     11  C   UNL     1       6.018   4.563  13.889  0.00  0.00    +0.000 A 
ATOM     12  C   UNL     1       5.673   5.817  14.380  0.00  0.00    +0.000 A 
ATOM     13  C   UNL     1       5.200   5.967  15.694  0.00  0.00    +0.000 A 
ENDBRANCH   1   8
BRANCH   1  14
ATOM     14  C   UNL     1       5.871   5.191  18.952  0.00  0.00    +0.000 C 
ATOM     15  O   UNL     1       5.835   5.316  20.183  0.00  0.00    +0.000 OA
BRANCH  14  17
ATOM     16  C   UNL     1       7.743   6.758  18.200  0.00  0.00    +0.000 C 
ATOM     17  C   UNL     1       7.232   5.326  18.254  0.00  0.00    +0.000 C 
ENDBRANCH  14  17
ENDBRANCH   1  14
BRANCH   1  18
ATOM     18  C   UNL     1       3.806   3.589  18.509  0.00  0.00    +0.000 C 
ATOM     19  C   UNL     1       4.634   2.881  19.632  0.00  0.00    +0.000 C 
BRANCH  18  20
ATOM     20  C   UNL     1       2.240   3.605  18.851  0.00  0.00    +0.000 C 
ATOM     21  C   UNL     1       1.320   3.772  17.629  0.00  0.00    +0.000 C 
BRANCH  20  22
ATOM     22  N   UNL     1       1.819   2.435  19.685  0.00  0.00    +0.000 NA
ATOM     23  C   UNL     1       1.330   2.828  21.012  0.00  0.00    +0.000 C 
ATOM     24  C   UNL     1       0.857   1.536  19.051  0.00  0.00    +0.000 C 
ENDBRANCH  20  22
ENDBRANCH  18  20
ENDBRANCH   1  18
TORSDOF 7
ENDMDL
MODEL 6
REMARK VINA RESULT:      -6.4      1.318      1.872
REMARK  Name = 
REMARK  12 active torsions:
REMARK  status: ('A' for Active; 'I' for Inactive)
REMARK    1  A    between atoms: C_1  and  C_2
REMARK    2  A    between atoms: C_2  and  C_3
REMARK    3  A    between atoms: C_3  and  C_5
REMARK    4  A    between atoms: C_5  and  C_6
REMARK    5  A    between atoms: C_5  and  C_12
REMARK    6  A    between atoms: C_5  and  C_18
REMARK    7  A    between atoms: C_18  and  C_19
REMARK    8  A    between atoms: C_18  and  C_20
REMARK    9  A    between atoms: C_20  and  C_21
REMARK   10  A    between atoms: C_20  and  N_22
REMARK   11  A    between atoms: N_22  and  C_23
REMARK   12  A    between atoms: N_22  and  C_24
REMARK                            x       y       z     vdW  Elec       q    Type
REMARK                         _______ _______ _______ _____ _____    ______ ____
ROOT
ATOM      1  C   UNL     1       4.232   4.747  17.823  0.00  0.00    +0.000 C 
ENDROOT
BRANCH   1   2
ATOM      2  C   UNL     1       3.551   6.169  18.066  0.00  0.00    +0.000 A 
ATOM      3  C   UNL     1       2.764   6.415  19.214  0.00  0.00    +0.000 A 
ATOM      4  C   UNL     1       2.104   7.634  19.433  0.00  0.00    +0.000 A 
ATOM      5  C   UNL     1       2.183   8.647  18.490  0.00  0.00    +0.000 A 
ATOM      6  C   UNL     1       2.925   8.441  17.340  0.00  0.00    +0.000 A 
ATOM      7  C   UNL     1       3.608   7.237  17.146  0.00  0.00    +0.000 A 
ENDBRANCH   1   2
BRANCH   1   8
ATOM      8  C   UNL     1       5.064   4.645  16.478  0.00  0.00    +0.000 A 
ATOM      9  C   UNL     1       6.453   4.928  16.467  0.00  0.00    +0.000 A 
ATOM     10  C   UNL     1       7.233   4.839  15.308  0.00  0.00    +0.000 A 
ATOM     11  C   UNL     1       6.653   4.459  14.109  0.00  0.00    +0.000 A 
ATOM     12  C   UNL     1       5.294   4.166  14.077  0.00  0.00    +0.000 A 
ATOM     13  C   UNL     1       4.515   4.254  15.242  0.00  0.00    +0.000 A 
ENDBRANCH   1   8
BRANCH   1  14
ATOM     14  C   UNL     1       5.348   4.545  18.999  0.00  0.00    +0.000 C 
ATOM     15  O   UNL     1       5.514   3.466  19.579  0.00  0.00    +0.000 OA
BRANCH  14  17
ATOM     16  C   UNL     1       7.663   5.481  19.538  0.00  0.00    +0.000 C 
ATOM     17  C   UNL     1       6.168   5.753  19.476  0.00  0.00    +0.000 C 
ENDBRANCH  14  17
ENDBRANCH   1  14
BRANCH   1  18
ATOM     18  C   UNL     1       3.151   3.526  17.922  0.00  0.00    +0.000 C 
ATOM     19  C   UNL     1       3.878   2.140  17.926  0.00  0.00    +0.000 C 
BRANCH  18  20
ATOM     20  C   UNL     1       2.009   3.598  19.044  0.00  0.00    +0.000 C 
ATOM     21  C   UNL     1       0.707   2.863  18.680  0.00  0.00    +0.000 C 
BRANCH  20  22
ATOM     22  N   UNL     1       2.500   3.181  20.396  0.00  0.00    +0.000 NA
ATOM     23  C   UNL     1       2.413   4.256  21.390  0.00  0.00    +0.000 C 
ATOM     24  C   UNL     1       1.892   1.964  20.929  0.00  0.00    +0.000 C 
ENDBRANCH  20  22
ENDBRANCH  18  20
ENDBRANCH   1  18
TORSDOF 7
ENDMDL
MODEL 7
REMARK VINA RESULT:      -6.4      0.715      1.243
REMARK  Name = 
REMARK  12 active torsions:
REMARK  status: ('A' for Active; 'I' for Inactive)
REMARK    1  A    between atoms: C_1  and  C_2
REMARK    2  A    between atoms: C_2  and  C_3
REMARK    3  A    between atoms: C_3  and  C_5
REMARK    4  A    between atoms: C_5  and  C_6
REMARK    5  A    between atoms: C_5  and  C_12
REMARK    6  A    between atoms: C_5  and  C_18
REMARK    7  A    between atoms: C_18  and  C_19
REMARK    8  A    between atoms: C_18  and  C_20
REMARK    9  A    between atoms: C_20  and  C_21
REMARK   10  A    between atoms: C_20  and  N_22
REMARK   11  A    between atoms: N_22  and  C_23
REMARK   12  A    between atoms: N_22  and  C_24
REMARK                            x       y       z     vdW  Elec       q    Type
REMARK                         _______ _______ _______ _____ _____    ______ ____
ROOT
ATOM      1  C   UNL     1       5.128   5.038  18.035  0.00  0.00    +0.000 C 
ENDROOT
BRANCH   1   2
ATOM      2  C   UNL     1       4.007   6.157  18.232  0.00  0.00    +0.000 A 
ATOM      3  C   UNL     1       3.808   7.168  17.266  0.00  0.00    +0.000 A 
ATOM      4  C   UNL     1       2.871   8.201  17.432  0.00  0.00    +0.000 A 
ATOM      5  C   UNL     1       2.116   8.274  18.591  0.00  0.00    +0.000 A 
ATOM      6  C   UNL     1       2.295   7.316  19.575  0.00  0.00    +0.000 A 
ATOM      7  C   UNL     1       3.205   6.272  19.386  0.00  0.00    +0.000 A 
ENDBRANCH   1   2
BRANCH   1   8
ATOM      8  C   UNL     1       5.538   4.787  16.526  0.00  0.00    +0.000 A 
ATOM      9  C   UNL     1       6.887   4.925  16.113  0.00  0.00    +0.000 A 
ATOM     10  C   UNL     1       7.301   4.701  14.794  0.00  0.00    +0.000 A 
ATOM     11  C   UNL     1       6.378   4.326  13.832  0.00  0.00    +0.000 A 
ATOM     12  C   UNL     1       5.045   4.172  14.195  0.00  0.00    +0.000 A 
ATOM     13  C   UNL     1       4.633   4.395  15.520  0.00  0.00    +0.000 A 
ENDBRANCH   1   8
BRANCH   1  14
ATOM     14  C   UNL     1       6.493   5.602  18.732  0.00  0.00    +0.000 C 
ATOM     15  O   UNL     1       6.941   5.137  19.787  0.00  0.00    +0.000 OA
BRANCH  14  17
ATOM     16  C   UNL     1       8.412   7.277  18.924  0.00  0.00    +0.000 C 
ATOM     17  C   UNL     1       7.212   6.811  18.114  0.00  0.00    +0.000 C 
ENDBRANCH  14  17
ENDBRANCH   1  14
BRANCH   1  18
ATOM     18  C   UNL     1       4.721   3.631  18.760  0.00  0.00    +0.000 C 
ATOM     19  C   UNL     1       4.495   3.842  20.293  0.00  0.00    +0.000 C 
BRANCH  18  20
ATOM     20  C   UNL     1       3.560   2.738  18.109  0.00  0.00    +0.000 C 
ATOM     21  C   UNL     1       3.770   1.219  18.243  0.00  0.00    +0.000 C 
BRANCH  20  22
ATOM     22  N   UNL     1       2.194   3.134  18.578  0.00  0.00    +0.000 NA
ATOM     23  C   UNL     1       1.418   3.834  17.548  0.00  0.00    +0.000 C 
ATOM     24  C   UNL     1       1.395   2.051  19.147  0.00  0.00    +0.000 C 
ENDBRANCH  20  22
ENDBRANCH  18  20
ENDBRANCH   1  18
TORSDOF 7
ENDMDL
MODEL 8
REMARK VINA RESULT:      -6.3      5.484      9.573
REMARK  Name = 
REMARK  12 active torsions:
REMARK  status: ('A' for Active; 'I' for Inactive)
REMARK    1  A    between atoms: C_1  and  C_2
REMARK    2  A    between atoms: C_2  and  C_3
REMARK    3  A    between atoms: C_3  and  C_5
REMARK    4  A    between atoms: C_5  and  C_6
REMARK    5  A    between atoms: C_5  and  C_12
REMARK    6  A    between atoms: C_5  and  C_18
REMARK    7  A    between atoms: C_18  and  C_19
REMARK    8  A    between atoms: C_18  and  C_20
REMARK    9  A    between atoms: C_20  and  C_21
REMARK   10  A    between atoms: C_20  and  N_22
REMARK   11  A    between atoms: N_22  and  C_23
REMARK   12  A    between atoms: N_22  and  C_24
REMARK                            x       y       z     vdW  Elec       q    Type
REMARK                         _______ _______ _______ _____ _____    ______ ____
ROOT
ATOM      1  C   UNL     1      -0.155  11.315  19.413  0.00  0.00    +0.000 C 
ENDROOT
BRANCH   1   2
ATOM      2  C   UNL     1       0.697   9.981  19.211  0.00  0.00    +0.000 A 
ATOM      3  C   UNL     1       1.016   9.146  20.306  0.00  0.00    +0.000 A 
ATOM      4  C   UNL     1       1.810   7.995  20.176  0.00  0.00    +0.000 A 
ATOM      5  C   UNL     1       2.340   7.653  18.942  0.00  0.00    +0.000 A 
ATOM      6  C   UNL     1       2.071   8.455  17.846  0.00  0.00    +0.000 A 
ATOM      7  C   UNL     1       1.251   9.580  17.978  0.00  0.00    +0.000 A 
ENDBRANCH   1   2
BRANCH   1   8
ATOM      8  C   UNL     1      -1.668  11.195  18.960  0.00  0.00    +0.000 A 
ATOM      9  C   UNL     1      -2.633  12.126  19.418  0.00  0.00    +0.000 A 
ATOM     10  C   UNL     1      -3.979  12.071  19.035  0.00  0.00    +0.000 A 
ATOM     11  C   UNL     1      -4.414  11.079  18.171  0.00  0.00    +0.000 A 
ATOM     12  C   UNL     1      -3.498  10.149  17.692  0.00  0.00    +0.000 A 
ATOM     13  C   UNL     1      -2.148  10.209  18.076  0.00  0.00    +0.000 A 
ENDBRANCH   1   8
BRANCH   1  14
ATOM     14  C   UNL     1      -0.240  11.588  21.022  0.00  0.00    +0.000 C 
ATOM     15  O   UNL     1       0.618  12.237  21.632  0.00  0.00    +0.000 OA
BRANCH  14  17
ATOM     16  C   UNL     1      -0.907  10.353  23.156  0.00  0.00    +0.000 C 
ATOM     17  C   UNL     1      -1.374  10.947  21.837  0.00  0.00    +0.000 C 
ENDBRANCH  14  17
ENDBRANCH   1  14
BRANCH   1  18
ATOM     18  C   UNL     1       0.555  12.606  18.707  0.00  0.00    +0.000 C 
ATOM     19  C   UNL     1      -0.310  13.894  18.908  0.00  0.00    +0.000 C 
BRANCH  18  20
ATOM     20  C   UNL     1       2.107  12.886  18.996  0.00  0.00    +0.000 C 
ATOM     21  C   UNL     1       3.047  12.544  17.827  0.00  0.00    +0.000 C 
BRANCH  20  22
ATOM     22  N   UNL     1       2.359  14.272  19.502  0.00  0.00    +0.000 NA
ATOM     23  C   UNL     1       3.130  14.292  20.751  0.00  0.00    +0.000 C 
ATOM     24  C   UNL     1       2.965  15.185  18.534  0.00  0.00    +0.000 C 
ENDBRANCH  20  22
ENDBRANCH  18  20
ENDBRANCH   1  18
TORSDOF 7
ENDMDL
MODEL 9
REMARK VINA RESULT:      -6.2      5.570      9.504
REMARK  Name = 
REMARK  12 active torsions:
REMARK  status: ('A' for Active; 'I' for Inactive)
REMARK    1  A    between atoms: C_1  and  C_2
REMARK    2  A    between atoms: C_2  and  C_3
REMARK    3  A    between atoms: C_3  and  C_5
REMARK    4  A    between atoms: C_5  and  C_6
REMARK    5  A    between atoms: C_5  and  C_12
REMARK    6  A    between atoms: C_5  and  C_18
REMARK    7  A    between atoms: C_18  and  C_19
REMARK    8  A    between atoms: C_18  and  C_20
REMARK    9  A    between atoms: C_20  and  C_21
REMARK   10  A    between atoms: C_20  and  N_22
REMARK   11  A    between atoms: N_22  and  C_23
REMARK   12  A    between atoms: N_22  and  C_24
REMARK                            x       y       z     vdW  Elec       q    Type
REMARK                         _______ _______ _______ _____ _____    ______ ____
ROOT
ATOM      1  C   UNL     1       0.121  11.228  19.235  0.00  0.00    +0.000 C 
ENDROOT
BRANCH   1   2
ATOM      2  C   UNL     1      -1.239  11.042  18.421  0.00  0.00    +0.000 A 
ATOM      3  C   UNL     1      -2.448  11.614  18.878  0.00  0.00    +0.000 A 
ATOM      4  C   UNL     1      -3.673  11.425  18.219  0.00  0.00    +0.000 A 
ATOM      5  C   UNL     1      -3.737  10.628  17.087  0.00  0.00    +0.000 A 
ATOM      6  C   UNL     1      -2.580  10.030  16.616  0.00  0.00    +0.000 A 
ATOM      7  C   UNL     1      -1.359  10.252  17.259  0.00  0.00    +0.000 A 
ENDBRANCH   1   2
BRANCH   1   8
ATOM      8  C   UNL     1       0.090  10.621  20.698  0.00  0.00    +0.000 A 
ATOM      9  C   UNL     1       1.081   9.698  21.116  0.00  0.00    +0.000 A 
ATOM     10  C   UNL     1       1.105   9.145  22.402  0.00  0.00    +0.000 A 
ATOM     11  C   UNL     1       0.135   9.497  23.327  0.00  0.00    +0.000 A 
ATOM     12  C   UNL     1      -0.851  10.406  22.961  0.00  0.00    +0.000 A 
ATOM     13  C   UNL     1      -0.871  10.961  21.670  0.00  0.00    +0.000 A 
ENDBRANCH   1   8
BRANCH   1  14
ATOM     14  C   UNL     1       1.263  10.352  18.463  0.00  0.00    +0.000 C 
ATOM     15  O   UNL     1       2.296  10.860  18.010  0.00  0.00    +0.000 OA
BRANCH  14  17
ATOM     16  C   UNL     1       2.300   8.074  17.953  0.00  0.00    +0.000 C 
ATOM     17  C   UNL     1       1.021   8.858  18.203  0.00  0.00    +0.000 C 
ENDBRANCH  14  17
ENDBRANCH   1  14
BRANCH   1  18
ATOM     18  C   UNL     1       0.603  12.789  19.272  0.00  0.00    +0.000 C 
ATOM     19  C   UNL     1      -0.461  13.714  18.592  0.00  0.00    +0.000 C 
BRANCH  18  20
ATOM     20  C   UNL     1       1.118  13.403  20.660  0.00  0.00    +0.000 C 
ATOM     21  C   UNL     1       2.644  13.576  20.755  0.00  0.00    +0.000 C 
BRANCH  20  22
ATOM     22  N   UNL     1       0.410  14.670  21.030  0.00  0.00    +0.000 NA
ATOM     23  C   UNL     1      -0.331  14.560  22.291  0.00  0.00    +0.000 C 
ATOM     24  C   UNL     1       1.250  15.866  21.053  0.00  0.00    +0.000 C 
ENDBRANCH  20  22
ENDBRANCH  18  20
ENDBRANCH   1  18
TORSDOF 7
ENDMDL
