MODEL 1
REMARK VINA RESULT:      -7.5      0.000      0.000
REMARK  Name = 
REMARK  8 active torsions:
REMARK  status: ('A' for Active; 'I' for Inactive)
REMARK    1  A    between atoms: C_1  and  O_2
REMARK    2  A    between atoms: O_2  and  C_3
REMARK    3  A    between atoms: C_6  and  O_7
REMARK    4  A    between atoms: C_8  and  C_9
REMARK    5  A    between atoms: N_11  and  C_12
REMARK    6  A    between atoms: C_12  and  C_13
REMARK    7  A    between atoms: C_13  and  C_14
REMARK    8  A    between atoms: C_17  and  O_18
REMARK                            x       y       z     vdW  Elec       q    Type
REMARK                         _______ _______ _______ _____ _____    ______ ____
ROOT
ATOM      1  C   UNL     1       6.726   5.124  15.504  0.00  0.00    +0.000 C 
ATOM      2  O   UNL     1       7.520   4.677  16.328  0.00  0.00    +0.000 OA
ATOM      3  N   UNL     1       5.729   6.010  15.849  0.00  0.00    +0.000 N 
ATOM      4  H   UNL     1       5.105   6.334  15.115  0.00  0.00    +0.000 HD
ENDROOT
BRANCH   1   9
ATOM      5  C   UNL     1       5.843   3.374  12.279  0.00  0.00    +0.000 A 
ATOM      6  C   UNL     1       6.841   3.818  11.412  0.00  0.00    +0.000 A 
ATOM      7  C   UNL     1       7.829   4.699  11.856  0.00  0.00    +0.000 A 
ATOM      8  C   UNL     1       7.823   5.144  13.182  0.00  0.00    +0.000 A 
ATOM      9  C   UNL     1       6.826   4.712  14.067  0.00  0.00    +0.000 A 
ATOM     10  C   UNL     1       5.839   3.824  13.599  0.00  0.00    +0.000 A 
BRANCH   5  12
ATOM     11  C   UNL     1       3.815   3.096  11.076  0.00  0.00    +0.000 C 
ATOM     12  O   UNL     1       4.937   2.509  11.727  0.00  0.00    +0.000 OA
ENDBRANCH   5  12
BRANCH   8  13
ATOM     13  O   UNL     1       8.808   6.005  13.591  0.00  0.00    +0.000 OA
ATOM     14  H   UNL     1       9.666   5.668  13.279  0.00  0.00    +0.000 HD
ENDBRANCH   8  13
ENDBRANCH   1   9
BRANCH   3  15
ATOM     15  C   UNL     1       5.570   6.449  17.221  0.00  0.00    +0.000 C 
BRANCH  15  16
ATOM     16  C   UNL     1       4.108   6.552  17.652  0.00  0.00    +0.000 C 
BRANCH  16  17
ATOM     17  C   UNL     1       3.513   5.194  17.936  0.00  0.00    +0.000 A 
ATOM     18  C   UNL     1       4.340   4.093  18.207  0.00  0.00    +0.000 A 
ATOM     19  C   UNL     1       3.789   2.830  18.440  0.00  0.00    +0.000 A 
ATOM     20  C   UNL     1       2.408   2.666  18.398  0.00  0.00    +0.000 A 
ATOM     21  C   UNL     1       1.574   3.744  18.127  0.00  0.00    +0.000 A 
ATOM     22  C   UNL     1       2.124   5.005  17.893  0.00  0.00    +0.000 A 
BRANCH  20  23
ATOM     23  O   UNL     1       1.829   1.451  18.617  0.00  0.00    +0.000 OA
ATOM     24  H   UNL     1       2.280   1.024  19.363  0.00  0.00    +0.000 HD
ENDBRANCH  20  23
ENDBRANCH  16  17
ENDBRANCH  15  16
ENDBRANCH   3  15
TORSDOF 7
ENDMDL
MODEL 2
REMARK VINA RESULT:      -7.4      1.823      2.087
REMARK  Name = 
REMARK  8 active torsions:
REMARK  status: ('A' for Active; 'I' for Inactive)
REMARK    1  A    between atoms: C_1  and  O_2
REMARK    2  A    between atoms: O_2  and  C_3
REMARK    3  A    between atoms: C_6  and  O_7
REMARK    4  A    between atoms: C_8  and  C_9
REMARK    5  A    between atoms: N_11  and  C_12
REMARK    6  A    between atoms: C_12  and  C_13
REMARK    7  A    between atoms: C_13  and  C_14
REMARK    8  A    between atoms: C_17  and  O_18
REMARK                            x       y       z     vdW  Elec       q    Type
REMARK                         _______ _______ _______ _____ _____    ______ ____
ROOT
ATOM      1  C   UNL     1       5.127   4.554  16.107  0.00  0.00    +0.000 C 
ATOM      2  O   UNL     1       4.928   3.553  16.791  0.00  0.00    +0.000 OA
ATOM      3  N   UNL     1       4.737   5.811  16.513  0.00  0.00    +0.000 N 
ATOM      4  H   UNL     1       4.930   6.593  15.892  0.00  0.00    +0.000 HD
ENDROOT
BRANCH   1   9
ATOM      5  C   UNL     1       5.766   3.419  12.565  0.00  0.00    +0.000 A 
ATOM      6  C   UNL     1       6.960   4.068  12.251  0.00  0.00    +0.000 A 
ATOM      7  C   UNL     1       7.589   4.892  13.187  0.00  0.00    +0.000 A 
ATOM      8  C   UNL     1       7.021   5.073  14.452  0.00  0.00    +0.000 A 
ATOM      9  C   UNL     1       5.820   4.432  14.785  0.00  0.00    +0.000 A 
ATOM     10  C   UNL     1       5.202   3.606  13.827  0.00  0.00    +0.000 A 
BRANCH   5  12
ATOM     11  C   UNL     1       5.965   1.439  11.271  0.00  0.00    +0.000 C 
ATOM     12  O   UNL     1       5.252   2.635  11.567  0.00  0.00    +0.000 OA
ENDBRANCH   5  12
BRANCH   8  13
ATOM     13  O   UNL     1       7.662   5.884  15.351  0.00  0.00    +0.000 OA
ATOM     14  H   UNL     1       7.846   5.371  16.158  0.00  0.00    +0.000 HD
ENDBRANCH   8  13
ENDBRANCH   1   9
BRANCH   3  15
ATOM     15  C   UNL     1       4.057   6.004  17.778  0.00  0.00    +0.000 C 
BRANCH  15  16
ATOM     16  C   UNL     1       2.582   5.611  17.733  0.00  0.00    +0.000 C 
BRANCH  16  17
ATOM     17  C   UNL     1       2.190   4.781  18.932  0.00  0.00    +0.000 A 
ATOM     18  C   UNL     1       2.665   5.104  20.213  0.00  0.00    +0.000 A 
ATOM     19  C   UNL     1       2.324   4.317  21.316  0.00  0.00    +0.000 A 
ATOM     20  C   UNL     1       1.511   3.204  21.140  0.00  0.00    +0.000 A 
ATOM     21  C   UNL     1       1.034   2.866  19.879  0.00  0.00    +0.000 A 
ATOM     22  C   UNL     1       1.375   3.650  18.776  0.00  0.00    +0.000 A 
BRANCH  20  23
ATOM     23  O   UNL     1       1.158   2.407  22.189  0.00  0.00    +0.000 OA
ATOM     24  H   UNL     1       1.547   1.528  22.054  0.00  0.00    +0.000 HD
ENDBRANCH  20  23
ENDBRANCH  16  17
ENDBRANCH  15  16
ENDBRANCH   3  15
TORSDOF 7
ENDMDL
MODEL 3
REMARK VINA RESULT:      -7.3      1.406      1.653
REMARK  Name = 
REMARK  8 active torsions:
REMARK  status: ('A' for Active; 'I' for Inactive)
REMARK    1  A    between atoms: C_1  and  O_2
REMARK    2  A    between atoms: O_2  and  C_3
REMARK    3  A    between atoms: C_6  and  O_7
REMARK    4  A    between atoms: C_8  and  C_9
REMARK    5  A    between atoms: N_11  and  C_12
REMARK    6  A    between atoms: C_12  and  C_13
REMARK    7  A    between atoms: C_13  and  C_14
REMARK    8  A    between atoms: C_17  and  O_18
REMARK                            x       y       z     vdW  Elec       q    Type
REMARK                         _______ _______ _______ _____ _____    ______ ____
ROOT
ATOM      1  C   UNL     1       5.634   4.753  15.892  0.00  0.00    +0.000 C 
ATOM      2  O   UNL     1       5.460   3.815  16.666  0.00  0.00    +0.000 OA
ATOM      3  N   UNL     1       5.383   6.059  16.252  0.00  0.00    +0.000 N 
ATOM      4  H   UNL     1       5.544   6.784  15.557  0.00  0.00    +0.000 HD
ENDROOT
BRANCH   1   9
ATOM      5  C   UNL     1       5.756   3.312  12.406  0.00  0.00    +0.000 A 
ATOM      6  C   UNL     1       6.916   3.885  11.883  0.00  0.00    +0.000 A 
ATOM      7  C   UNL     1       7.688   4.755  12.654  0.00  0.00    +0.000 A 
ATOM      8  C   UNL     1       7.301   5.060  13.963  0.00  0.00    +0.000 A 
ATOM      9  C   UNL     1       6.138   4.497  14.505  0.00  0.00    +0.000 A 
ATOM     10  C   UNL     1       5.373   3.622  13.710  0.00  0.00    +0.000 A 
BRANCH   5  12
ATOM     11  C   UNL     1       5.782   1.292  11.158  0.00  0.00    +0.000 C 
ATOM     12  O   UNL     1       5.090   2.471  11.555  0.00  0.00    +0.000 OA
ENDBRANCH   5  12
BRANCH   8  13
ATOM     13  O   UNL     1       8.082   5.914  14.698  0.00  0.00    +0.000 OA
ATOM     14  H   UNL     1       7.502   6.540  15.168  0.00  0.00    +0.000 HD
ENDBRANCH   8  13
ENDBRANCH   1   9
BRANCH   3  15
ATOM     15  C   UNL     1       4.889   6.381  17.575  0.00  0.00    +0.000 C 
BRANCH  15  16
ATOM     16  C   UNL     1       3.395   6.698  17.597  0.00  0.00    +0.000 C 
BRANCH  16  17
ATOM     17  C   UNL     1       2.619   5.674  18.392  0.00  0.00    +0.000 A 
ATOM     18  C   UNL     1       2.104   4.526  17.771  0.00  0.00    +0.000 A 
ATOM     19  C   UNL     1       1.362   3.595  18.503  0.00  0.00    +0.000 A 
ATOM     20  C   UNL     1       1.130   3.814  19.856  0.00  0.00    +0.000 A 
ATOM     21  C   UNL     1       1.628   4.947  20.487  0.00  0.00    +0.000 A 
ATOM     22  C   UNL     1       2.369   5.878  19.757  0.00  0.00    +0.000 A 
BRANCH  20  23
ATOM     23  O   UNL     1       0.407   2.933  20.606  0.00  0.00    +0.000 OA
ATOM     24  H   UNL     1      -0.252   2.509  20.033  0.00  0.00    +0.000 HD
ENDBRANCH  20  23
ENDBRANCH  16  17
ENDBRANCH  15  16
ENDBRANCH   3  15
TORSDOF 7
ENDMDL
MODEL 4
REMARK VINA RESULT:      -7.3      0.956      1.413
REMARK  Name = 
REMARK  8 active torsions:
REMARK  status: ('A' for Active; 'I' for Inactive)
REMARK    1  A    between atoms: C_1  and  O_2
REMARK    2  A    between atoms: O_2  and  C_3
REMARK    3  A    between atoms: C_6  and  O_7
REMARK    4  A    between atoms: C_8  and  C_9
REMARK    5  A    between atoms: N_11  and  C_12
REMARK    6  A    between atoms: C_12  and  C_13
REMARK    7  A    between atoms: C_13  and  C_14
REMARK    8  A    between atoms: C_17  and  O_18
REMARK                            x       y       z     vdW  Elec       q    Type
REMARK                         _______ _______ _______ _____ _____    ______ ____
ROOT
ATOM      1  C   UNL     1       6.718   5.147  15.677  0.00  0.00    +0.000 C 
ATOM      2  O   UNL     1       7.142   6.254  15.998  0.00  0.00    +0.000 OA
ATOM      3  N   UNL     1       6.251   4.241  16.604  0.00  0.00    +0.000 N 
ATOM      4  H   UNL     1       5.920   3.341  16.265  0.00  0.00    +0.000 HD
ENDROOT
BRANCH   1   9
ATOM      5  C   UNL     1       5.499   3.499  12.508  0.00  0.00    +0.000 A 
ATOM      6  C   UNL     1       6.466   3.881  11.578  0.00  0.00    +0.000 A 
ATOM      7  C   UNL     1       7.541   4.686  11.960  0.00  0.00    +0.000 A 
ATOM      8  C   UNL     1       7.655   5.115  13.286  0.00  0.00    +0.000 A 
ATOM      9  C   UNL     1       6.692   4.745  14.234  0.00  0.00    +0.000 A 
ATOM     10  C   UNL     1       5.615   3.934  13.827  0.00  0.00    +0.000 A 
BRANCH   5  12
ATOM     11  C   UNL     1       3.783   3.215  10.892  0.00  0.00    +0.000 C 
ATOM     12  O   UNL     1       4.499   2.706  12.012  0.00  0.00    +0.000 OA
ENDBRANCH   5  12
BRANCH   8  13
ATOM     13  O   UNL     1       8.724   5.900  13.634  0.00  0.00    +0.000 OA
ATOM     14  H   UNL     1       9.463   5.323  13.895  0.00  0.00    +0.000 HD
ENDBRANCH   8  13
ENDBRANCH   1   9
BRANCH   3  15
ATOM     15  C   UNL     1       6.250   4.561  18.017  0.00  0.00    +0.000 C 
BRANCH  15  16
ATOM     16  C   UNL     1       4.988   5.294  18.465  0.00  0.00    +0.000 C 
BRANCH  16  17
ATOM     17  C   UNL     1       3.774   4.397  18.413  0.00  0.00    +0.000 A 
ATOM     18  C   UNL     1       2.604   4.814  17.761  0.00  0.00    +0.000 A 
ATOM     19  C   UNL     1       1.472   3.995  17.739  0.00  0.00    +0.000 A 
ATOM     20  C   UNL     1       1.508   2.758  18.376  0.00  0.00    +0.000 A 
ATOM     21  C   UNL     1       2.656   2.331  19.031  0.00  0.00    +0.000 A 
ATOM     22  C   UNL     1       3.787   3.149  19.053  0.00  0.00    +0.000 A 
BRANCH  20  23
ATOM     23  O   UNL     1       0.425   1.930  18.382  0.00  0.00    +0.000 OA
ATOM     24  H   UNL     1      -0.339   2.419  18.036  0.00  0.00    +0.000 HD
ENDBRANCH  20  23
ENDBRANCH  16  17
ENDBRANCH  15  16
ENDBRANCH   3  15
TORSDOF 7
ENDMDL
MODEL 5
REMARK VINA RESULT:      -7.2      1.480      1.522
REMARK  Name = 
REMARK  8 active torsions:
REMARK  status: ('A' for Active; 'I' for Inactive)
REMARK    1  A    between atoms: C_1  and  O_2
REMARK    2  A    between atoms: O_2  and  C_3
REMARK    3  A    between atoms: C_6  and  O_7
REMARK    4  A    between atoms: C_8  and  C_9
REMARK    5  A    between atoms: N_11  and  C_12
REMARK    6  A    between atoms: C_12  and  C_13
REMARK    7  A    between atoms: C_13  and  C_14
REMARK    8  A    between atoms: C_17  and  O_18
REMARK                            x       y       z     vdW  Elec       q    Type
REMARK                         _______ _______ _______ _____ _____    ______ ____
ROOT
ATOM      1  C   UNL     1       6.517   5.063  15.506  0.00  0.00    +0.000 C 
ATOM      2  O   UNL     1       7.393   5.734  16.045  0.00  0.00    +0.000 OA
ATOM      3  N   UNL     1       5.383   4.659  16.176  0.00  0.00    +0.000 N 
ATOM      4  H   UNL     1       4.702   4.101  15.668  0.00  0.00    +0.000 HD
ENDROOT
BRANCH   1   9
ATOM      5  C   UNL     1       5.714   3.350  12.240  0.00  0.00    +0.000 A 
ATOM      6  C   UNL     1       6.749   3.783  11.410  0.00  0.00    +0.000 A 
ATOM      7  C   UNL     1       7.736   4.643  11.895  0.00  0.00    +0.000 A 
ATOM      8  C   UNL     1       7.692   5.079  13.223  0.00  0.00    +0.000 A 
ATOM      9  C   UNL     1       6.659   4.659  14.071  0.00  0.00    +0.000 A 
ATOM     10  C   UNL     1       5.673   3.791  13.562  0.00  0.00    +0.000 A 
BRANCH   5  12
ATOM     11  C   UNL     1       3.738   3.116  10.945  0.00  0.00    +0.000 C 
ATOM     12  O   UNL     1       4.813   2.505  11.650  0.00  0.00    +0.000 OA
ENDBRANCH   5  12
BRANCH   8  13
ATOM     13  O   UNL     1       8.677   5.920  13.672  0.00  0.00    +0.000 OA
ATOM     14  H   UNL     1       8.838   6.601  12.995  0.00  0.00    +0.000 HD
ENDBRANCH   8  13
ENDBRANCH   1   9
BRANCH   3  15
ATOM     15  C   UNL     1       5.181   5.010  17.568  0.00  0.00    +0.000 C 
BRANCH  15  16
ATOM     16  C   UNL     1       3.742   5.412  17.882  0.00  0.00    +0.000 C 
BRANCH  16  17
ATOM     17  C   UNL     1       3.187   4.630  19.049  0.00  0.00    +0.000 A 
ATOM     18  C   UNL     1       3.786   3.427  19.454  0.00  0.00    +0.000 A 
ATOM     19  C   UNL     1       3.253   2.690  20.516  0.00  0.00    +0.000 A 
ATOM     20  C   UNL     1       2.117   3.154  21.171  0.00  0.00    +0.000 A 
ATOM     21  C   UNL     1       1.508   4.340  20.781  0.00  0.00    +0.000 A 
ATOM     22  C   UNL     1       2.039   5.076  19.720  0.00  0.00    +0.000 A 
BRANCH  20  23
ATOM     23  O   UNL     1       1.563   2.464  22.208  0.00  0.00    +0.000 OA
ATOM     24  H   UNL     1       2.279   2.104  22.756  0.00  0.00    +0.000 HD
ENDBRANCH  20  23
ENDBRANCH  16  17
ENDBRANCH  15  16
ENDBRANCH   3  15
TORSDOF 7
ENDMDL
MODEL 6
REMARK VINA RESULT:      -7.2      0.969      1.083
REMARK  Name = 
REMARK  8 active torsions:
REMARK  status: ('A' for Active; 'I' for Inactive)
REMARK    1  A    between atoms: C_1  and  O_2
REMARK    2  A    between atoms: O_2  and  C_3
REMARK    3  A    between atoms: C_6  and  O_7
REMARK    4  A    between atoms: C_8  and  C_9
REMARK    5  A    between atoms: N_11  and  C_12
REMARK    6  A    between atoms: C_12  and  C_13
REMARK    7  A    between atoms: C_13  and  C_14
REMARK    8  A    between atoms: C_17  and  O_18
REMARK                            x       y       z     vdW  Elec       q    Type
REMARK                         _______ _______ _______ _____ _____    ______ ____
ROOT
ATOM      1  C   UNL     1       6.569   5.128  15.645  0.00  0.00    +0.000 C 
ATOM      2  O   UNL     1       6.659   6.315  15.950  0.00  0.00    +0.000 OA
ATOM      3  N   UNL     1       6.393   4.139  16.588  0.00  0.00    +0.000 N 
ATOM      4  H   UNL     1       6.333   3.177  16.263  0.00  0.00    +0.000 HD
ENDROOT
BRANCH   1   9
ATOM      5  C   UNL     1       5.595   3.435  12.417  0.00  0.00    +0.000 A 
ATOM      6  C   UNL     1       6.613   3.831  11.549  0.00  0.00    +0.000 A 
ATOM      7  C   UNL     1       7.644   4.660  11.994  0.00  0.00    +0.000 A 
ATOM      8  C   UNL     1       7.662   5.101  13.322  0.00  0.00    +0.000 A 
ATOM      9  C   UNL     1       6.646   4.716  14.207  0.00  0.00    +0.000 A 
ATOM     10  C   UNL     1       5.615   3.880  13.737  0.00  0.00    +0.000 A 
BRANCH   5  12
ATOM     11  C   UNL     1       3.767   3.216  10.917  0.00  0.00    +0.000 C 
ATOM     12  O   UNL     1       4.646   2.617  11.863  0.00  0.00    +0.000 OA
ENDBRANCH   5  12
BRANCH   8  13
ATOM     13  O   UNL     1       8.689   5.911  13.732  0.00  0.00    +0.000 OA
ATOM     14  H   UNL     1       9.136   6.269  12.945  0.00  0.00    +0.000 HD
ENDBRANCH   8  13
ENDBRANCH   1   9
BRANCH   3  15
ATOM     15  C   UNL     1       6.315   4.464  17.997  0.00  0.00    +0.000 C 
BRANCH  15  16
ATOM     16  C   UNL     1       5.056   5.248  18.363  0.00  0.00    +0.000 C 
BRANCH  16  17
ATOM     17  C   UNL     1       3.835   4.359  18.392  0.00  0.00    +0.000 A 
ATOM     18  C   UNL     1       3.890   3.086  18.980  0.00  0.00    +0.000 A 
ATOM     19  C   UNL     1       2.767   2.254  18.980  0.00  0.00    +0.000 A 
ATOM     20  C   UNL     1       1.589   2.693  18.386  0.00  0.00    +0.000 A 
ATOM     21  C   UNL     1       1.516   3.948  17.795  0.00  0.00    +0.000 A 
ATOM     22  C   UNL     1       2.637   4.779  17.794  0.00  0.00    +0.000 A 
BRANCH  20  23
ATOM     23  O   UNL     1       0.472   1.911  18.361  0.00  0.00    +0.000 OA
ATOM     24  H   UNL     1       0.548   1.288  17.620  0.00  0.00    +0.000 HD
ENDBRANCH  20  23
ENDBRANCH  16  17
ENDBRANCH  15  16
ENDBRANCH   3  15
TORSDOF 7
ENDMDL
MODEL 7
REMARK VINA RESULT:      -7.2      0.561      1.211
REMARK  Name = 
REMARK  8 active torsions:
REMARK  status: ('A' for Active; 'I' for Inactive)
REMARK    1  A    between atoms: C_1  and  O_2
REMARK    2  A    between atoms: O_2  and  C_3
REMARK    3  A    between atoms: C_6  and  O_7
REMARK    4  A    between atoms: C_8  and  C_9
REMARK    5  A    between atoms: N_11  and  C_12
REMARK    6  A    between atoms: C_12  and  C_13
REMARK    7  A    between atoms: C_13  and  C_14
REMARK    8  A    between atoms: C_17  and  O_18
REMARK                            x       y       z     vdW  Elec       q    Type
REMARK                         _______ _______ _______ _____ _____    ______ ____
ROOT
ATOM      1  C   UNL     1       6.778   5.095  15.549  0.00  0.00    +0.000 C 
ATOM      2  O   UNL     1       7.497   4.561  16.389  0.00  0.00    +0.000 OA
ATOM      3  N   UNL     1       5.852   6.059  15.880  0.00  0.00    +0.000 N 
ATOM      4  H   UNL     1       5.287   6.454  15.132  0.00  0.00    +0.000 HD
ENDROOT
BRANCH   1   9
ATOM      5  C   UNL     1       5.987   3.327  12.310  0.00  0.00    +0.000 A 
ATOM      6  C   UNL     1       6.949   3.845  11.441  0.00  0.00    +0.000 A 
ATOM      7  C   UNL     1       7.881   4.783  11.890  0.00  0.00    +0.000 A 
ATOM      8  C   UNL     1       7.855   5.212  13.221  0.00  0.00    +0.000 A 
ATOM      9  C   UNL     1       6.895   4.706  14.107  0.00  0.00    +0.000 A 
ATOM     10  C   UNL     1       5.964   3.762  13.634  0.00  0.00    +0.000 A 
BRANCH   5  12
ATOM     11  C   UNL     1       5.734   1.246  11.196  0.00  0.00    +0.000 C 
ATOM     12  O   UNL     1       5.136   2.412  11.753  0.00  0.00    +0.000 OA
ENDBRANCH   5  12
BRANCH   8  13
ATOM     13  O   UNL     1       8.785   6.130  13.634  0.00  0.00    +0.000 OA
ATOM     14  H   UNL     1       9.602   5.659  13.878  0.00  0.00    +0.000 HD
ENDBRANCH   8  13
ENDBRANCH   1   9
BRANCH   3  15
ATOM     15  C   UNL     1       5.681   6.481  17.256  0.00  0.00    +0.000 C 
BRANCH  15  16
ATOM     16  C   UNL     1       4.215   6.591  17.672  0.00  0.00    +0.000 C 
BRANCH  16  17
ATOM     17  C   UNL     1       3.590   5.231  17.873  0.00  0.00    +0.000 A 
ATOM     18  C   UNL     1       2.196   5.071  17.827  0.00  0.00    +0.000 A 
ATOM     19  C   UNL     1       1.618   3.817  18.043  0.00  0.00    +0.000 A 
ATOM     20  C   UNL     1       2.433   2.722  18.309  0.00  0.00    +0.000 A 
ATOM     21  C   UNL     1       3.815   2.862  18.362  0.00  0.00    +0.000 A 
ATOM     22  C   UNL     1       4.393   4.115  18.148  0.00  0.00    +0.000 A 
BRANCH  20  23
ATOM     23  O   UNL     1       1.910   1.482  18.529  0.00  0.00    +0.000 OA
ATOM     24  H   UNL     1       0.946   1.531  18.424  0.00  0.00    +0.000 HD
ENDBRANCH  20  23
ENDBRANCH  16  17
ENDBRANCH  15  16
ENDBRANCH   3  15
TORSDOF 7
ENDMDL
MODEL 8
REMARK VINA RESULT:      -7.1      1.344      1.483
REMARK  Name = 
REMARK  8 active torsions:
REMARK  status: ('A' for Active; 'I' for Inactive)
REMARK    1  A    between atoms: C_1  and  O_2
REMARK    2  A    between atoms: O_2  and  C_3
REMARK    3  A    between atoms: C_6  and  O_7
REMARK    4  A    between atoms: C_8  and  C_9
REMARK    5  A    between atoms: N_11  and  C_12
REMARK    6  A    between atoms: C_12  and  C_13
REMARK    7  A    between atoms: C_13  and  C_14
REMARK    8  A    between atoms: C_17  and  O_18
REMARK                            x       y       z     vdW  Elec       q    Type
REMARK                         _______ _______ _______ _____ _____    ______ ____
ROOT
ATOM      1  C   UNL     1       6.819   5.081  15.553  0.00  0.00    +0.000 C 
ATOM      2  O   UNL     1       7.416   6.072  15.966  0.00  0.00    +0.000 OA
ATOM      3  N   UNL     1       6.041   4.296  16.376  0.00  0.00    +0.000 N 
ATOM      4  H   UNL     1       5.581   3.487  15.967  0.00  0.00    +0.000 HD
ENDROOT
BRANCH   1   9
ATOM      5  C   UNL     1       5.989   3.317  12.322  0.00  0.00    +0.000 A 
ATOM      6  C   UNL     1       6.942   3.833  11.443  0.00  0.00    +0.000 A 
ATOM      7  C   UNL     1       7.881   4.768  11.882  0.00  0.00    +0.000 A 
ATOM      8  C   UNL     1       7.871   5.197  13.213  0.00  0.00    +0.000 A 
ATOM      9  C   UNL     1       6.919   4.693  14.110  0.00  0.00    +0.000 A 
ATOM     10  C   UNL     1       5.981   3.750  13.647  0.00  0.00    +0.000 A 
BRANCH   5  12
ATOM     11  C   UNL     1       5.719   1.237  11.209  0.00  0.00    +0.000 C 
ATOM     12  O   UNL     1       5.129   2.404  11.773  0.00  0.00    +0.000 OA
ENDBRANCH   5  12
BRANCH   8  13
ATOM     13  O   UNL     1       8.807   6.113  13.617  0.00  0.00    +0.000 OA
ATOM     14  H   UNL     1       9.606   6.002  13.072  0.00  0.00    +0.000 HD
ENDBRANCH   8  13
ENDBRANCH   1   9
BRANCH   3  15
ATOM     15  C   UNL     1       5.903   4.609  17.784  0.00  0.00    +0.000 C 
BRANCH  15  16
ATOM     16  C   UNL     1       4.806   5.634  18.065  0.00  0.00    +0.000 C 
BRANCH  16  17
ATOM     17  C   UNL     1       3.562   4.980  18.619  0.00  0.00    +0.000 A 
ATOM     18  C   UNL     1       3.239   5.093  19.980  0.00  0.00    +0.000 A 
ATOM     19  C   UNL     1       2.103   4.462  20.495  0.00  0.00    +0.000 A 
ATOM     20  C   UNL     1       1.291   3.715  19.650  0.00  0.00    +0.000 A 
ATOM     21  C   UNL     1       1.596   3.588  18.300  0.00  0.00    +0.000 A 
ATOM     22  C   UNL     1       2.731   4.217  17.785  0.00  0.00    +0.000 A 
BRANCH  20  23
ATOM     23  O   UNL     1       0.175   3.081  20.112  0.00  0.00    +0.000 OA
ATOM     24  H   UNL     1      -0.014   3.404  21.007  0.00  0.00    +0.000 HD
ENDBRANCH  20  23
ENDBRANCH  16  17
ENDBRANCH  15  16
ENDBRANCH   3  15
TORSDOF 7
ENDMDL
MODEL 9
REMARK VINA RESULT:      -7.1      1.643      2.035
REMARK  Name = 
REMARK  8 active torsions:
REMARK  status: ('A' for Active; 'I' for Inactive)
REMARK    1  A    between atoms: C_1  and  O_2
REMARK    2  A    between atoms: O_2  and  C_3
REMARK    3  A    between atoms: C_6  and  O_7
REMARK    4  A    between atoms: C_8  and  C_9
REMARK    5  A    between atoms: N_11  and  C_12
REMARK    6  A    between atoms: C_12  and  C_13
REMARK    7  A    between atoms: C_13  and  C_14
REMARK    8  A    between atoms: C_17  and  O_18
REMARK                            x       y       z     vdW  Elec       q    Type
REMARK                         _______ _______ _______ _____ _____    ______ ____
ROOT
ATOM      1  C   UNL     1       5.361   4.433  15.984  0.00  0.00    +0.000 C 
ATOM      2  O   UNL     1       5.259   3.422  16.675  0.00  0.00    +0.000 OA
ATOM      3  N   UNL     1       4.979   5.675  16.440  0.00  0.00    +0.000 N 
ATOM      4  H   UNL     1       5.086   6.467  15.810  0.00  0.00    +0.000 HD
ENDROOT
BRANCH   1   9
ATOM      5  C   UNL     1       5.633   3.388  12.368  0.00  0.00    +0.000 A 
ATOM      6  C   UNL     1       6.799   4.033  11.955  0.00  0.00    +0.000 A 
ATOM      7  C   UNL     1       7.527   4.825  12.845  0.00  0.00    +0.000 A 
ATOM      8  C   UNL     1       7.089   4.977  14.164  0.00  0.00    +0.000 A 
ATOM      9  C   UNL     1       5.918   4.339  14.597  0.00  0.00    +0.000 A 
ATOM     10  C   UNL     1       5.199   3.546  13.683  0.00  0.00    +0.000 A 
BRANCH   5  12
ATOM     11  C   UNL     1       3.773   3.133  10.915  0.00  0.00    +0.000 C 
ATOM     12  O   UNL     1       5.014   2.637  11.406  0.00  0.00    +0.000 OA
ENDBRANCH   5  12
BRANCH   8  13
ATOM     13  O   UNL     1       7.826   5.757  15.017  0.00  0.00    +0.000 OA
ATOM     14  H   UNL     1       8.757   5.735  14.733  0.00  0.00    +0.000 HD
ENDBRANCH   8  13
ENDBRANCH   1   9
BRANCH   3  15
ATOM     15  C   UNL     1       4.427   5.840  17.769  0.00  0.00    +0.000 C 
BRANCH  15  16
ATOM     16  C   UNL     1       2.924   5.577  17.831  0.00  0.00    +0.000 C 
BRANCH  16  17
ATOM     17  C   UNL     1       2.565   4.660  18.976  0.00  0.00    +0.000 A 
ATOM     18  C   UNL     1       1.263   4.647  19.502  0.00  0.00    +0.000 A 
ATOM     19  C   UNL     1       0.942   3.819  20.581  0.00  0.00    +0.000 A 
ATOM     20  C   UNL     1       1.923   3.006  21.138  0.00  0.00    +0.000 A 
ATOM     21  C   UNL     1       3.217   3.009  20.634  0.00  0.00    +0.000 A 
ATOM     22  C   UNL     1       3.540   3.836  19.557  0.00  0.00    +0.000 A 
BRANCH  20  23
ATOM     23  O   UNL     1       1.652   2.187  22.194  0.00  0.00    +0.000 OA
ATOM     24  H   UNL     1       2.359   2.287  22.851  0.00  0.00    +0.000 HD
ENDBRANCH  20  23
ENDBRANCH  16  17
ENDBRANCH  15  16
ENDBRANCH   3  15
TORSDOF 7
ENDMDL
