MODEL 1
REMARK VINA RESULT:      -8.2      0.000      0.000
REMARK  Name = 
REMARK  8 active torsions:
REMARK  status: ('A' for Active; 'I' for Inactive)
REMARK    1  A    between atoms: C_1  and  O_2
REMARK    2  A    between atoms: O_2  and  C_3
REMARK    3  A    between atoms: C_6  and  C_7
REMARK    4  A    between atoms: C_8  and  C_9
REMARK    5  A    between atoms: C_15  and  C_16
REMARK    6  A    between atoms: C_15  and  C_17
REMARK    7  A    between atoms: C_20  and  C_21
REMARK    8  A    between atoms: C_20  and  C_22
REMARK                            x       y       z     vdW  Elec       q    Type
REMARK                         _______ _______ _______ _____ _____    ______ ____
ROOT
ATOM      1  C   UNL     1       2.599   7.346  18.667  0.00  0.00    +0.000 A 
ATOM      2  C   UNL     1       1.868   7.156  19.835  0.00  0.00    +0.000 A 
ATOM      3  C   UNL     1       1.749   5.847  20.448  0.00  0.00    +0.000 A 
ATOM      4  C   UNL     1       2.315   4.686  19.899  0.00  0.00    +0.000 A 
ATOM      5  C   UNL     1       3.048   4.928  18.752  0.00  0.00    +0.000 A 
ATOM      6  C   UNL     1       3.250   6.236  18.184  0.00  0.00    +0.000 A 
ATOM      7  C   UNL     1       3.574   3.756  17.936  0.00  0.00    +0.000 C 
ATOM      8  C   UNL     1       4.946   4.027  18.694  0.00  0.00    +0.000 C 
ATOM      9  C   UNL     1       2.255   3.952  17.041  0.00  0.00    +0.000 C 
ATOM     10  C   UNL     1       3.437   2.276  18.168  0.00  0.00    +0.000 C 
ATOM     11  C   UNL     1       2.667   2.013  19.437  0.00  0.00    +0.000 C 
ATOM     12  C   UNL     1       2.058   3.212  20.313  0.00  0.00    +0.000 C 
ATOM     13  C   UNL     1       0.523   3.056  20.328  0.00  0.00    +0.000 C 
ATOM     14  C   UNL     1       2.569   2.860  21.725  0.00  0.00    +0.000 C 
ENDROOT
BRANCH   1  16
ATOM     15  C   UNL     1       2.043   9.682  17.748  0.00  0.00    +0.000 C 
ATOM     16  C   UNL     1       2.749   8.545  17.811  0.00  0.00    +0.000 C 
BRANCH  15  20
ATOM     17  C   UNL     1      -0.801  11.077  20.606  0.00  0.00    +0.000 A 
ATOM     18  C   UNL     1       0.565  11.163  20.844  0.00  0.00    +0.000 A 
ATOM     19  C   UNL     1       1.472  10.704  19.899  0.00  0.00    +0.000 A 
ATOM     20  C   UNL     1       1.020  10.143  18.699  0.00  0.00    +0.000 A 
ATOM     21  C   UNL     1      -0.356  10.039  18.450  0.00  0.00    +0.000 A 
ATOM     22  C   UNL     1      -1.262  10.517  19.393  0.00  0.00    +0.000 A 
BRANCH  17  24
ATOM     23  C   UNL     1      -1.216  11.307  22.950  0.00  0.00    +0.000 C 
ATOM     24  O   UNL     1      -1.613  11.586  21.588  0.00  0.00    +0.000 OA
ENDBRANCH  17  24
ENDBRANCH  15  20
ENDBRANCH   1  16
TORSDOF 3
ENDMDL
MODEL 2
REMARK VINA RESULT:      -8.0      3.180      7.763
REMARK  Name = 
REMARK  8 active torsions:
REMARK  status: ('A' for Active; 'I' for Inactive)
REMARK    1  A    between atoms: C_1  and  O_2
REMARK    2  A    between atoms: O_2  and  C_3
REMARK    3  A    between atoms: C_6  and  C_7
REMARK    4  A    between atoms: C_8  and  C_9
REMARK    5  A    between atoms: C_15  and  C_16
REMARK    6  A    between atoms: C_15  and  C_17
REMARK    7  A    between atoms: C_20  and  C_21
REMARK    8  A    between atoms: C_20  and  C_22
REMARK                            x       y       z     vdW  Elec       q    Type
REMARK                         _______ _______ _______ _____ _____    ______ ____
ROOT
ATOM      1  C   UNL     1       2.320   6.527  19.710  0.00  0.00    +0.000 A 
ATOM      2  C   UNL     1       2.400   7.257  18.527  0.00  0.00    +0.000 A 
ATOM      3  C   UNL     1       1.897   8.614  18.440  0.00  0.00    +0.000 A 
ATOM      4  C   UNL     1       1.265   9.270  19.509  0.00  0.00    +0.000 A 
ATOM      5  C   UNL     1       1.228   8.515  20.665  0.00  0.00    +0.000 A 
ATOM      6  C   UNL     1       1.805   7.201  20.792  0.00  0.00    +0.000 A 
ATOM      7  C   UNL     1       0.421   9.007  21.858  0.00  0.00    +0.000 C 
ATOM      8  C   UNL     1       1.821   9.522  22.413  0.00  0.00    +0.000 C 
ATOM      9  C   UNL     1      -0.748   8.062  21.295  0.00  0.00    +0.000 C 
ATOM     10  C   UNL     1      -0.398  10.258  22.022  0.00  0.00    +0.000 C 
ATOM     11  C   UNL     1      -0.330  11.098  20.771  0.00  0.00    +0.000 C 
ATOM     12  C   UNL     1       0.475  10.605  19.474  0.00  0.00    +0.000 C 
ATOM     13  C   UNL     1      -0.537  10.450  18.319  0.00  0.00    +0.000 C 
ATOM     14  C   UNL     1       1.344  11.840  19.157  0.00  0.00    +0.000 C 
ENDROOT
BRANCH   1  16
ATOM     15  C   UNL     1       3.523   4.274  19.418  0.00  0.00    +0.000 C 
ATOM     16  C   UNL     1       2.646   5.110  19.989  0.00  0.00    +0.000 C 
BRANCH  15  20
ATOM     17  C   UNL     1       6.511   5.233  16.527  0.00  0.00    +0.000 A 
ATOM     18  C   UNL     1       5.319   4.620  16.160  0.00  0.00    +0.000 A 
ATOM     19  C   UNL     1       4.361   4.319  17.117  0.00  0.00    +0.000 A 
ATOM     20  C   UNL     1       4.587   4.622  18.465  0.00  0.00    +0.000 A 
ATOM     21  C   UNL     1       5.790   5.230  18.852  0.00  0.00    +0.000 A 
ATOM     22  C   UNL     1       6.742   5.547  17.885  0.00  0.00    +0.000 A 
BRANCH  17  24
ATOM     23  C   UNL     1       7.074   4.913  14.225  0.00  0.00    +0.000 C 
ATOM     24  O   UNL     1       7.379   5.516  15.503  0.00  0.00    +0.000 OA
ENDBRANCH  17  24
ENDBRANCH  15  20
ENDBRANCH   1  16
TORSDOF 3
ENDMDL
MODEL 3
REMARK VINA RESULT:      -7.9      0.961      1.037
REMARK  Name = 
REMARK  8 active torsions:
REMARK  status: ('A' for Active; 'I' for Inactive)
REMARK    1  A    between atoms: C_1  and  O_2
REMARK    2  A    between atoms: O_2  and  C_3
REMARK    3  A    between atoms: C_6  and  C_7
REMARK    4  A    between atoms: C_8  and  C_9
REMARK    5  A    between atoms: C_15  and  C_16
REMARK    6  A    between atoms: C_15  and  C_17
REMARK    7  A    between atoms: C_20  and  C_21
REMARK    8  A    between atoms: C_20  and  C_22
REMARK                            x       y       z     vdW  Elec       q    Type
REMARK                         _______ _______ _______ _____ _____    ______ ____
ROOT
ATOM      1  C   UNL     1       2.339   7.395  18.662  0.00  0.00    +0.000 A 
ATOM      2  C   UNL     1       2.154   7.159  20.021  0.00  0.00    +0.000 A 
ATOM      3  C   UNL     1       2.216   5.819  20.571  0.00  0.00    +0.000 A 
ATOM      4  C   UNL     1       2.421   4.674  19.785  0.00  0.00    +0.000 A 
ATOM      5  C   UNL     1       2.621   4.960  18.448  0.00  0.00    +0.000 A 
ATOM      6  C   UNL     1       2.653   6.292  17.903  0.00  0.00    +0.000 A 
ATOM      7  C   UNL     1       2.677   3.824  17.437  0.00  0.00    +0.000 C 
ATOM      8  C   UNL     1       4.256   3.985  17.556  0.00  0.00    +0.000 C 
ATOM      9  C   UNL     1       1.121   4.133  17.192  0.00  0.00    +0.000 C 
ATOM     10  C   UNL     1       2.553   2.338  17.643  0.00  0.00    +0.000 C 
ATOM     11  C   UNL     1       2.370   2.025  19.106  0.00  0.00    +0.000 C 
ATOM     12  C   UNL     1       2.264   3.188  20.206  0.00  0.00    +0.000 C 
ATOM     13  C   UNL     1       0.871   3.095  20.862  0.00  0.00    +0.000 C 
ATOM     14  C   UNL     1       3.295   2.721  21.255  0.00  0.00    +0.000 C 
ENDROOT
BRANCH   1  16
ATOM     15  C   UNL     1       1.537   9.779  18.130  0.00  0.00    +0.000 C 
ATOM     16  C   UNL     1       2.196   8.641  17.875  0.00  0.00    +0.000 C 
BRANCH  15  20
ATOM     17  C   UNL     1      -0.129  11.103  21.829  0.00  0.00    +0.000 A 
ATOM     18  C   UNL     1       0.817  11.861  21.149  0.00  0.00    +0.000 A 
ATOM     19  C   UNL     1       1.343  11.411  19.946  0.00  0.00    +0.000 A 
ATOM     20  C   UNL     1       0.934  10.185  19.409  0.00  0.00    +0.000 A 
ATOM     21  C   UNL     1      -0.010   9.404  20.090  0.00  0.00    +0.000 A 
ATOM     22  C   UNL     1      -0.550   9.867  21.287  0.00  0.00    +0.000 A 
BRANCH  17  24
ATOM     23  C   UNL     1      -1.068  13.017  22.910  0.00  0.00    +0.000 C 
ATOM     24  O   UNL     1      -0.610  11.648  22.992  0.00  0.00    +0.000 OA
ENDBRANCH  17  24
ENDBRANCH  15  20
ENDBRANCH   1  16
TORSDOF 3
ENDMDL
MODEL 4
REMARK VINA RESULT:      -7.9      3.783      6.501
REMARK  Name = 
REMARK  8 active torsions:
REMARK  status: ('A' for Active; 'I' for Inactive)
REMARK    1  A    between atoms: C_1  and  O_2
REMARK    2  A    between atoms: O_2  and  C_3
REMARK    3  A    between atoms: C_6  and  C_7
REMARK    4  A    between atoms: C_8  and  C_9
REMARK    5  A    between atoms: C_15  and  C_16
REMARK    6  A    between atoms: C_15  and  C_17
REMARK    7  A    between atoms: C_20  and  C_21
REMARK    8  A    between atoms: C_20  and  C_22
REMARK                            x       y       z     vdW  Elec       q    Type
REMARK                         _______ _______ _______ _____ _____    ______ ____
ROOT
ATOM      1  C   UNL     1       4.447   3.180  16.723  0.00  0.00    +0.000 A 
ATOM      2  C   UNL     1       3.912   2.071  17.371  0.00  0.00    +0.000 A 
ATOM      3  C   UNL     1       2.994   2.215  18.485  0.00  0.00    +0.000 A 
ATOM      4  C   UNL     1       2.615   3.460  19.012  0.00  0.00    +0.000 A 
ATOM      5  C   UNL     1       3.154   4.530  18.324  0.00  0.00    +0.000 A 
ATOM      6  C   UNL     1       3.993   4.402  17.160  0.00  0.00    +0.000 A 
ATOM      7  C   UNL     1       2.988   5.938  18.876  0.00  0.00    +0.000 C 
ATOM      8  C   UNL     1       1.795   6.055  17.829  0.00  0.00    +0.000 C 
ATOM      9  C   UNL     1       4.442   5.721  19.521  0.00  0.00    +0.000 C 
ATOM     10  C   UNL     1       2.288   6.414  20.120  0.00  0.00    +0.000 C 
ATOM     11  C   UNL     1       1.671   5.250  20.853  0.00  0.00    +0.000 C 
ATOM     12  C   UNL     1       1.851   3.742  20.334  0.00  0.00    +0.000 C 
ATOM     13  C   UNL     1       2.612   2.954  21.420  0.00  0.00    +0.000 C 
ATOM     14  C   UNL     1       0.394   3.235  20.336  0.00  0.00    +0.000 C 
ENDROOT
BRANCH   1  16
ATOM     15  C   UNL     1       6.515   4.108  15.509  0.00  0.00    +0.000 C 
ATOM     16  C   UNL     1       5.481   3.270  15.668  0.00  0.00    +0.000 C 
BRANCH  15  20
ATOM     17  C   UNL     1       7.985   7.006  18.274  0.00  0.00    +0.000 A 
ATOM     18  C   UNL     1       7.431   7.383  17.057  0.00  0.00    +0.000 A 
ATOM     19  C   UNL     1       6.958   6.423  16.174  0.00  0.00    +0.000 A 
ATOM     20  C   UNL     1       7.039   5.063  16.496  0.00  0.00    +0.000 A 
ATOM     21  C   UNL     1       7.607   4.667  17.716  0.00  0.00    +0.000 A 
ATOM     22  C   UNL     1       8.065   5.635  18.606  0.00  0.00    +0.000 A 
BRANCH  17  24
ATOM     23  C   UNL     1       8.603   9.309  18.446  0.00  0.00    +0.000 C 
ATOM     24  O   UNL     1       8.395   8.031  19.088  0.00  0.00    +0.000 OA
ENDBRANCH  17  24
ENDBRANCH  15  20
ENDBRANCH   1  16
TORSDOF 3
ENDMDL
MODEL 5
REMARK VINA RESULT:      -7.8      0.521      1.144
REMARK  Name = 
REMARK  8 active torsions:
REMARK  status: ('A' for Active; 'I' for Inactive)
REMARK    1  A    between atoms: C_1  and  O_2
REMARK    2  A    between atoms: O_2  and  C_3
REMARK    3  A    between atoms: C_6  and  C_7
REMARK    4  A    between atoms: C_8  and  C_9
REMARK    5  A    between atoms: C_15  and  C_16
REMARK    6  A    between atoms: C_15  and  C_17
REMARK    7  A    between atoms: C_20  and  C_21
REMARK    8  A    between atoms: C_20  and  C_22
REMARK                            x       y       z     vdW  Elec       q    Type
REMARK                         _______ _______ _______ _____ _____    ______ ____
ROOT
ATOM      1  C   UNL     1       2.535   7.412  18.664  0.00  0.00    +0.000 A 
ATOM      2  C   UNL     1       1.794   7.217  19.826  0.00  0.00    +0.000 A 
ATOM      3  C   UNL     1       1.696   5.912  20.451  0.00  0.00    +0.000 A 
ATOM      4  C   UNL     1       2.294   4.758  19.919  0.00  0.00    +0.000 A 
ATOM      5  C   UNL     1       3.035   5.005  18.779  0.00  0.00    +0.000 A 
ATOM      6  C   UNL     1       3.216   6.311  18.200  0.00  0.00    +0.000 A 
ATOM      7  C   UNL     1       3.596   3.837  17.980  0.00  0.00    +0.000 C 
ATOM      8  C   UNL     1       4.953   4.145  18.751  0.00  0.00    +0.000 C 
ATOM      9  C   UNL     1       2.283   3.995  17.069  0.00  0.00    +0.000 C 
ATOM     10  C   UNL     1       3.489   2.357  18.226  0.00  0.00    +0.000 C 
ATOM     11  C   UNL     1       2.709   2.089  19.488  0.00  0.00    +0.000 C 
ATOM     12  C   UNL     1       2.064   3.283  20.345  0.00  0.00    +0.000 C 
ATOM     13  C   UNL     1       0.533   3.093  20.344  0.00  0.00    +0.000 C 
ATOM     14  C   UNL     1       2.566   2.956  21.766  0.00  0.00    +0.000 C 
ENDROOT
BRANCH   1  16
ATOM     15  C   UNL     1       2.007   9.770  17.787  0.00  0.00    +0.000 C 
ATOM     16  C   UNL     1       2.669   8.605  17.799  0.00  0.00    +0.000 C 
BRANCH  15  20
ATOM     17  C   UNL     1      -0.815  11.182  20.660  0.00  0.00    +0.000 A 
ATOM     18  C   UNL     1      -1.220  10.720  19.414  0.00  0.00    +0.000 A 
ATOM     19  C   UNL     1      -0.285  10.264  18.496  0.00  0.00    +0.000 A 
ATOM     20  C   UNL     1       1.078  10.271  18.812  0.00  0.00    +0.000 A 
ATOM     21  C   UNL     1       1.504  10.745  20.062  0.00  0.00    +0.000 A 
ATOM     22  C   UNL     1       0.560  11.185  20.986  0.00  0.00    +0.000 A 
BRANCH  17  24
ATOM     23  C   UNL     1      -2.690  12.622  21.010  0.00  0.00    +0.000 C 
ATOM     24  O   UNL     1      -1.818  11.582  21.506  0.00  0.00    +0.000 OA
ENDBRANCH  17  24
ENDBRANCH  15  20
ENDBRANCH   1  16
TORSDOF 3
ENDMDL
MODEL 6
REMARK VINA RESULT:      -7.7      0.951      1.258
REMARK  Name = 
REMARK  8 active torsions:
REMARK  status: ('A' for Active; 'I' for Inactive)
REMARK    1  A    between atoms: C_1  and  O_2
REMARK    2  A    between atoms: O_2  and  C_3
REMARK    3  A    between atoms: C_6  and  C_7
REMARK    4  A    between atoms: C_8  and  C_9
REMARK    5  A    between atoms: C_15  and  C_16
REMARK    6  A    between atoms: C_15  and  C_17
REMARK    7  A    between atoms: C_20  and  C_21
REMARK    8  A    between atoms: C_20  and  C_22
REMARK                            x       y       z     vdW  Elec       q    Type
REMARK                         _______ _______ _______ _____ _____    ______ ____
ROOT
ATOM      1  C   UNL     1       2.364   7.377  18.588  0.00  0.00    +0.000 A 
ATOM      2  C   UNL     1       2.177   7.168  19.951  0.00  0.00    +0.000 A 
ATOM      3  C   UNL     1       2.230   5.838  20.526  0.00  0.00    +0.000 A 
ATOM      4  C   UNL     1       2.429   4.677  19.762  0.00  0.00    +0.000 A 
ATOM      5  C   UNL     1       2.631   4.937  18.420  0.00  0.00    +0.000 A 
ATOM      6  C   UNL     1       2.672   6.259  17.850  0.00  0.00    +0.000 A 
ATOM      7  C   UNL     1       2.681   3.782  17.431  0.00  0.00    +0.000 C 
ATOM      8  C   UNL     1       4.261   3.936  17.548  0.00  0.00    +0.000 C 
ATOM      9  C   UNL     1       1.127   4.096  17.179  0.00  0.00    +0.000 C 
ATOM     10  C   UNL     1       2.548   2.301  17.664  0.00  0.00    +0.000 C 
ATOM     11  C   UNL     1       2.361   2.016  19.133  0.00  0.00    +0.000 C 
ATOM     12  C   UNL     1       2.263   3.201  20.211  0.00  0.00    +0.000 C 
ATOM     13  C   UNL     1       0.868   3.129  20.867  0.00  0.00    +0.000 C 
ATOM     14  C   UNL     1       3.290   2.748  21.269  0.00  0.00    +0.000 C 
ENDROOT
BRANCH   1  16
ATOM     15  C   UNL     1       1.623   9.776  18.033  0.00  0.00    +0.000 C 
ATOM     16  C   UNL     1       2.229   8.609  17.777  0.00  0.00    +0.000 C 
BRANCH  15  20
ATOM     17  C   UNL     1       0.008  10.954  21.802  0.00  0.00    +0.000 A 
ATOM     18  C   UNL     1      -0.316   9.733  21.227  0.00  0.00    +0.000 A 
ATOM     19  C   UNL     1       0.222   9.369  20.001  0.00  0.00    +0.000 A 
ATOM     20  C   UNL     1       1.092  10.233  19.326  0.00  0.00    +0.000 A 
ATOM     21  C   UNL     1       1.420  11.476  19.889  0.00  0.00    +0.000 A 
ATOM     22  C   UNL     1       0.891  11.828  21.128  0.00  0.00    +0.000 A 
BRANCH  17  24
ATOM     23  C   UNL     1      -1.690  12.098  23.037  0.00  0.00    +0.000 C 
ATOM     24  O   UNL     1      -0.552  11.207  23.029  0.00  0.00    +0.000 OA
ENDBRANCH  17  24
ENDBRANCH  15  20
ENDBRANCH   1  16
TORSDOF 3
ENDMDL
MODEL 7
REMARK VINA RESULT:      -7.4      4.644      7.952
REMARK  Name = 
REMARK  8 active torsions:
REMARK  status: ('A' for Active; 'I' for Inactive)
REMARK    1  A    between atoms: C_1  and  O_2
REMARK    2  A    between atoms: O_2  and  C_3
REMARK    3  A    between atoms: C_6  and  C_7
REMARK    4  A    between atoms: C_8  and  C_9
REMARK    5  A    between atoms: C_15  and  C_16
REMARK    6  A    between atoms: C_15  and  C_17
REMARK    7  A    between atoms: C_20  and  C_21
REMARK    8  A    between atoms: C_20  and  C_22
REMARK                            x       y       z     vdW  Elec       q    Type
REMARK                         _______ _______ _______ _____ _____    ______ ____
ROOT
ATOM      1  C   UNL     1      -3.381  11.125  17.486  0.00  0.00    +0.000 A 
ATOM      2  C   UNL     1      -2.691   9.940  17.245  0.00  0.00    +0.000 A 
ATOM      3  C   UNL     1      -1.466   9.621  17.953  0.00  0.00    +0.000 A 
ATOM      4  C   UNL     1      -0.870  10.484  18.886  0.00  0.00    +0.000 A 
ATOM      5  C   UNL     1      -1.601  11.636  19.107  0.00  0.00    +0.000 A 
ATOM      6  C   UNL     1      -2.865  11.923  18.480  0.00  0.00    +0.000 A 
ATOM      7  C   UNL     1      -1.005  12.754  19.950  0.00  0.00    +0.000 C 
ATOM      8  C   UNL     1      -1.887  12.144  21.126  0.00  0.00    +0.000 C 
ATOM      9  C   UNL     1      -0.557  13.399  18.550  0.00  0.00    +0.000 C 
ATOM     10  C   UNL     1       0.328  12.838  20.643  0.00  0.00    +0.000 C 
ATOM     11  C   UNL     1       1.111  11.568  20.430  0.00  0.00    +0.000 C 
ATOM     12  C   UNL     1       0.544  10.376  19.517  0.00  0.00    +0.000 C 
ATOM     13  C   UNL     1       1.508  10.191  18.327  0.00  0.00    +0.000 C 
ATOM     14  C   UNL     1       0.724   9.157  20.445  0.00  0.00    +0.000 C 
ENDROOT
BRANCH   1  16
ATOM     15  C   UNL     1      -5.836  11.828  17.191  0.00  0.00    +0.000 C 
ATOM     16  C   UNL     1      -4.559  11.706  16.804  0.00  0.00    +0.000 C 
BRANCH  15  20
ATOM     17  C   UNL     1      -7.404  11.326  21.127  0.00  0.00    +0.000 A 
ATOM     18  C   UNL     1      -6.996  12.570  20.665  0.00  0.00    +0.000 A 
ATOM     19  C   UNL     1      -6.490  12.710  19.380  0.00  0.00    +0.000 A 
ATOM     20  C   UNL     1      -6.379  11.598  18.538  0.00  0.00    +0.000 A 
ATOM     21  C   UNL     1      -6.776  10.333  18.995  0.00  0.00    +0.000 A 
ATOM     22  C   UNL     1      -7.299  10.200  20.279  0.00  0.00    +0.000 A 
BRANCH  17  24
ATOM     23  C   UNL     1      -7.402  12.291  23.314  0.00  0.00    +0.000 C 
ATOM     24  O   UNL     1      -7.917  11.298  22.399  0.00  0.00    +0.000 OA
ENDBRANCH  17  24
ENDBRANCH  15  20
ENDBRANCH   1  16
TORSDOF 3
ENDMDL
MODEL 8
REMARK VINA RESULT:      -7.4      4.729      8.082
REMARK  Name = 
REMARK  8 active torsions:
REMARK  status: ('A' for Active; 'I' for Inactive)
REMARK    1  A    between atoms: C_1  and  O_2
REMARK    2  A    between atoms: O_2  and  C_3
REMARK    3  A    between atoms: C_6  and  C_7
REMARK    4  A    between atoms: C_8  and  C_9
REMARK    5  A    between atoms: C_15  and  C_16
REMARK    6  A    between atoms: C_15  and  C_17
REMARK    7  A    between atoms: C_20  and  C_21
REMARK    8  A    between atoms: C_20  and  C_22
REMARK                            x       y       z     vdW  Elec       q    Type
REMARK                         _______ _______ _______ _____ _____    ______ ____
ROOT
ATOM      1  C   UNL     1      -3.595  11.148  17.539  0.00  0.00    +0.000 A 
ATOM      2  C   UNL     1      -2.953   9.926  17.359  0.00  0.00    +0.000 A 
ATOM      3  C   UNL     1      -1.721   9.609  18.055  0.00  0.00    +0.000 A 
ATOM      4  C   UNL     1      -1.069  10.509  18.913  0.00  0.00    +0.000 A 
ATOM      5  C   UNL     1      -1.754  11.698  19.076  0.00  0.00    +0.000 A 
ATOM      6  C   UNL     1      -3.024  11.990  18.464  0.00  0.00    +0.000 A 
ATOM      7  C   UNL     1      -1.096  12.846  19.828  0.00  0.00    +0.000 C 
ATOM      8  C   UNL     1      -1.965  12.347  21.064  0.00  0.00    +0.000 C 
ATOM      9  C   UNL     1      -0.664  13.382  18.378  0.00  0.00    +0.000 C 
ATOM     10  C   UNL     1       0.258  12.926  20.480  0.00  0.00    +0.000 C 
ATOM     11  C   UNL     1       0.990  11.617  20.331  0.00  0.00    +0.000 C 
ATOM     12  C   UNL     1       0.357  10.390  19.514  0.00  0.00    +0.000 C 
ATOM     13  C   UNL     1       1.280  10.093  18.314  0.00  0.00    +0.000 C 
ATOM     14  C   UNL     1       0.520   9.229  20.516  0.00  0.00    +0.000 C 
ENDROOT
BRANCH   1  16
ATOM     15  C   UNL     1      -6.017  11.967  17.276  0.00  0.00    +0.000 C 
ATOM     16  C   UNL     1      -4.770  11.726  16.850  0.00  0.00    +0.000 C 
BRANCH  15  20
ATOM     17  C   UNL     1      -7.446  11.645  21.284  0.00  0.00    +0.000 A 
ATOM     18  C   UNL     1      -7.374  10.537  20.450  0.00  0.00    +0.000 A 
ATOM     19  C   UNL     1      -6.904  10.665  19.151  0.00  0.00    +0.000 A 
ATOM     20  C   UNL     1      -6.505  11.914  18.663  0.00  0.00    +0.000 A 
ATOM     21  C   UNL     1      -6.583  13.045  19.488  0.00  0.00    +0.000 A 
ATOM     22  C   UNL     1      -7.039  12.909  20.797  0.00  0.00    +0.000 A 
BRANCH  17  24
ATOM     23  C   UNL     1      -7.371  12.278  23.588  0.00  0.00    +0.000 C 
ATOM     24  O   UNL     1      -7.895  11.409  22.558  0.00  0.00    +0.000 OA
ENDBRANCH  17  24
ENDBRANCH  15  20
ENDBRANCH   1  16
TORSDOF 3
ENDMDL
MODEL 9
REMARK VINA RESULT:      -7.3      1.616      3.271
REMARK  Name = 
REMARK  8 active torsions:
REMARK  status: ('A' for Active; 'I' for Inactive)
REMARK    1  A    between atoms: C_1  and  O_2
REMARK    2  A    between atoms: O_2  and  C_3
REMARK    3  A    between atoms: C_6  and  C_7
REMARK    4  A    between atoms: C_8  and  C_9
REMARK    5  A    between atoms: C_15  and  C_16
REMARK    6  A    between atoms: C_15  and  C_17
REMARK    7  A    between atoms: C_20  and  C_21
REMARK    8  A    between atoms: C_20  and  C_22
REMARK                            x       y       z     vdW  Elec       q    Type
REMARK                         _______ _______ _______ _____ _____    ______ ____
ROOT
ATOM      1  C   UNL     1       1.279   6.912  20.568  0.00  0.00    +0.000 A 
ATOM      2  C   UNL     1       2.309   7.438  19.794  0.00  0.00    +0.000 A 
ATOM      3  C   UNL     1       3.161   6.585  18.988  0.00  0.00    +0.000 A 
ATOM      4  C   UNL     1       3.042   5.187  18.959  0.00  0.00    +0.000 A 
ATOM      5  C   UNL     1       1.994   4.713  19.725  0.00  0.00    +0.000 A 
ATOM      6  C   UNL     1       1.084   5.555  20.458  0.00  0.00    +0.000 A 
ATOM      7  C   UNL     1       1.841   3.215  19.945  0.00  0.00    +0.000 C 
ATOM      8  C   UNL     1       0.759   3.298  18.781  0.00  0.00    +0.000 C 
ATOM      9  C   UNL     1       2.632   3.464  21.320  0.00  0.00    +0.000 C 
ATOM     10  C   UNL     1       2.678   2.072  19.439  0.00  0.00    +0.000 C 
ATOM     11  C   UNL     1       3.802   2.587  18.575  0.00  0.00    +0.000 C 
ATOM     12  C   UNL     1       4.030   4.159  18.345  0.00  0.00    +0.000 C 
ATOM     13  C   UNL     1       5.412   4.527  18.922  0.00  0.00    +0.000 C 
ATOM     14  C   UNL     1       4.140   4.237  16.808  0.00  0.00    +0.000 C 
ENDROOT
BRANCH   1  16
ATOM     15  C   UNL     1      -0.017   8.839  21.671  0.00  0.00    +0.000 C 
ATOM     16  C   UNL     1       0.383   7.566  21.549  0.00  0.00    +0.000 C 
BRANCH  15  20
ATOM     17  C   UNL     1       0.632  12.055  18.944  0.00  0.00    +0.000 A 
ATOM     18  C   UNL     1       1.248  12.026  20.188  0.00  0.00    +0.000 A 
ATOM     19  C   UNL     1       1.023  10.969  21.059  0.00  0.00    +0.000 A 
ATOM     20  C   UNL     1       0.168   9.923  20.695  0.00  0.00    +0.000 A 
ATOM     21  C   UNL     1      -0.470   9.944  19.447  0.00  0.00    +0.000 A 
ATOM     22  C   UNL     1      -0.228  10.998  18.569  0.00  0.00    +0.000 A 
BRANCH  17  24
ATOM     23  C   UNL     1       2.298  13.620  18.243  0.00  0.00    +0.000 C 
ATOM     24  O   UNL     1       0.943  13.126  18.145  0.00  0.00    +0.000 OA
ENDBRANCH  17  24
ENDBRANCH  15  20
ENDBRANCH   1  16
TORSDOF 3
ENDMDL
