MODEL 1
REMARK VINA RESULT:      -7.3      0.000      0.000
REMARK  Name = 
REMARK  7 active torsions:
REMARK  status: ('A' for Active; 'I' for Inactive)
REMARK    1  A    between atoms: C_1  and  C_2
REMARK    2  A    between atoms: C_6  and  C_7
REMARK    3  A    between atoms: C_7  and  O_8
REMARK    4  A    between atoms: O_8  and  C_9
REMARK    5  A    between atoms: C_12  and  C_13
REMARK    6  A    between atoms: C_13  and  C_14
REMARK    7  A    between atoms: C_13  and  N_15
REMARK                            x       y       z     vdW  Elec       q    Type
REMARK                         _______ _______ _______ _____ _____    ______ ____
ROOT
ATOM      1  C   UNL     1       4.858   5.928  17.927  0.00  0.00    +0.000 A 
ATOM      2  C   UNL     1       5.776   4.867  18.054  0.00  0.00    +0.000 A 
ATOM      3  C   UNL     1       6.455   4.381  16.935  0.00  0.00    +0.000 A 
ATOM      4  C   UNL     1       6.237   4.942  15.665  0.00  0.00    +0.000 A 
ATOM      5  C   UNL     1       5.301   5.984  15.536  0.00  0.00    +0.000 A 
ATOM      6  C   UNL     1       4.614   6.464  16.657  0.00  0.00    +0.000 A 
ENDROOT
BRANCH   4   7
ATOM      7  C   UNL     1       7.017   4.432  14.467  0.00  0.00    +0.000 C 
ATOM      8  C   UNL     1       6.090   3.824  13.407  0.00  0.00    +0.000 C 
BRANCH   7   9
ATOM      9  N   UNL     1       7.822   5.516  13.899  0.00  0.00    +0.000 NA
ATOM     10  H   UNL     1       7.617   5.634  12.880  0.00  0.00    +0.000 HD
ATOM     11  H   UNL     1       8.838   5.290  14.005  0.00  0.00    +0.000 HD
ENDBRANCH   7   9
ENDBRANCH   4   7
BRANCH   1  12
ATOM     12  O   UNL     1       4.199   6.461  18.990  0.00  0.00    +0.000 OA
BRANCH  12  13
ATOM     13  C   UNL     1       2.824   6.522  19.144  0.00  0.00    +0.000 C 
BRANCH  13  19
ATOM     14  C   UNL     1       1.472   2.534  21.902  0.00  0.00    +0.000 C 
ATOM     15  C   UNL     1       1.559   3.216  20.568  0.00  0.00    +0.000 A 
ATOM     16  C   UNL     1       1.067   2.596  19.409  0.00  0.00    +0.000 A 
ATOM     17  C   UNL     1       1.155   3.244  18.173  0.00  0.00    +0.000 A 
ATOM     18  C   UNL     1       1.738   4.511  18.083  0.00  0.00    +0.000 A 
ATOM     19  C   UNL     1       2.228   5.145  19.235  0.00  0.00    +0.000 A 
ATOM     20  C   UNL     1       2.137   4.491  20.476  0.00  0.00    +0.000 A 
ENDBRANCH  13  19
ENDBRANCH  12  13
ENDBRANCH   1  12
TORSDOF 5
ENDMDL
MODEL 2
REMARK VINA RESULT:      -7.1      0.628      1.275
REMARK  Name = 
REMARK  7 active torsions:
REMARK  status: ('A' for Active; 'I' for Inactive)
REMARK    1  A    between atoms: C_1  and  C_2
REMARK    2  A    between atoms: C_6  and  C_7
REMARK    3  A    between atoms: C_7  and  O_8
REMARK    4  A    between atoms: O_8  and  C_9
REMARK    5  A    between atoms: C_12  and  C_13
REMARK    6  A    between atoms: C_13  and  C_14
REMARK    7  A    between atoms: C_13  and  N_15
REMARK                            x       y       z     vdW  Elec       q    Type
REMARK                         _______ _______ _______ _____ _____    ______ ____
ROOT
ATOM      1  C   UNL     1       5.445   5.398  17.716  0.00  0.00    +0.000 A 
ATOM      2  C   UNL     1       4.826   5.785  16.511  0.00  0.00    +0.000 A 
ATOM      3  C   UNL     1       5.418   5.485  15.283  0.00  0.00    +0.000 A 
ATOM      4  C   UNL     1       6.640   4.792  15.227  0.00  0.00    +0.000 A 
ATOM      5  C   UNL     1       7.269   4.430  16.432  0.00  0.00    +0.000 A 
ATOM      6  C   UNL     1       6.679   4.739  17.662  0.00  0.00    +0.000 A 
ENDROOT
BRANCH   4   7
ATOM      7  C   UNL     1       7.248   4.434  13.883  0.00  0.00    +0.000 C 
ATOM      8  C   UNL     1       6.207   3.819  12.939  0.00  0.00    +0.000 C 
BRANCH   7   9
ATOM      9  N   UNL     1       7.863   5.620  13.283  0.00  0.00    +0.000 NA
ATOM     10  H   UNL     1       8.843   5.416  12.983  0.00  0.00    +0.000 HD
ATOM     11  H   UNL     1       7.887   6.395  13.984  0.00  0.00    +0.000 HD
ENDBRANCH   7   9
ENDBRANCH   4   7
BRANCH   1  12
ATOM     12  O   UNL     1       4.892   5.633  18.936  0.00  0.00    +0.000 OA
BRANCH  12  13
ATOM     13  C   UNL     1       3.601   6.079  19.168  0.00  0.00    +0.000 C 
BRANCH  13  19
ATOM     14  C   UNL     1       1.484   2.492  21.995  0.00  0.00    +0.000 C 
ATOM     15  C   UNL     1       1.608   3.196  20.675  0.00  0.00    +0.000 A 
ATOM     16  C   UNL     1       0.825   2.809  19.576  0.00  0.00    +0.000 A 
ATOM     17  C   UNL     1       0.952   3.473  18.352  0.00  0.00    +0.000 A 
ATOM     18  C   UNL     1       1.862   4.525  18.214  0.00  0.00    +0.000 A 
ATOM     19  C   UNL     1       2.646   4.926  19.306  0.00  0.00    +0.000 A 
ATOM     20  C   UNL     1       2.515   4.257  20.535  0.00  0.00    +0.000 A 
ENDBRANCH  13  19
ENDBRANCH  12  13
ENDBRANCH   1  12
TORSDOF 5
ENDMDL
MODEL 3
REMARK VINA RESULT:      -7.0      0.576      1.539
REMARK  Name = 
REMARK  7 active torsions:
REMARK  status: ('A' for Active; 'I' for Inactive)
REMARK    1  A    between atoms: C_1  and  C_2
REMARK    2  A    between atoms: C_6  and  C_7
REMARK    3  A    between atoms: C_7  and  O_8
REMARK    4  A    between atoms: O_8  and  C_9
REMARK    5  A    between atoms: C_12  and  C_13
REMARK    6  A    between atoms: C_13  and  C_14
REMARK    7  A    between atoms: C_13  and  N_15
REMARK                            x       y       z     vdW  Elec       q    Type
REMARK                         _______ _______ _______ _____ _____    ______ ____
ROOT
ATOM      1  C   UNL     1       4.752   5.930  18.067  0.00  0.00    +0.000 A 
ATOM      2  C   UNL     1       5.636   4.841  18.192  0.00  0.00    +0.000 A 
ATOM      3  C   UNL     1       6.323   4.355  17.078  0.00  0.00    +0.000 A 
ATOM      4  C   UNL     1       6.145   4.944  15.814  0.00  0.00    +0.000 A 
ATOM      5  C   UNL     1       5.242   6.015  15.686  0.00  0.00    +0.000 A 
ATOM      6  C   UNL     1       4.548   6.495  16.802  0.00  0.00    +0.000 A 
ENDROOT
BRANCH   4   7
ATOM      7  C   UNL     1       6.933   4.433  14.622  0.00  0.00    +0.000 C 
ATOM      8  C   UNL     1       6.009   3.881  13.529  0.00  0.00    +0.000 C 
BRANCH   7   9
ATOM      9  N   UNL     1       7.789   5.498  14.096  0.00  0.00    +0.000 NA
ATOM     10  H   UNL     1       8.779   5.172  14.017  0.00  0.00    +0.000 HD
ATOM     11  H   UNL     1       7.763   6.320  14.742  0.00  0.00    +0.000 HD
ENDBRANCH   7   9
ENDBRANCH   4   7
BRANCH   1  12
ATOM     12  O   UNL     1       4.088   6.464  19.127  0.00  0.00    +0.000 OA
BRANCH  12  13
ATOM     13  C   UNL     1       2.715   6.457  19.311  0.00  0.00    +0.000 C 
BRANCH  13  19
ATOM     14  C   UNL     1       0.506   1.992  18.589  0.00  0.00    +0.000 C 
ATOM     15  C   UNL     1       1.191   2.965  19.504  0.00  0.00    +0.000 A 
ATOM     16  C   UNL     1       1.426   2.644  20.850  0.00  0.00    +0.000 A 
ATOM     17  C   UNL     1       2.065   3.561  21.690  0.00  0.00    +0.000 A 
ATOM     18  C   UNL     1       2.471   4.803  21.196  0.00  0.00    +0.000 A 
ATOM     19  C   UNL     1       2.248   5.134  19.851  0.00  0.00    +0.000 A 
ATOM     20  C   UNL     1       1.606   4.210  19.009  0.00  0.00    +0.000 A 
ENDBRANCH  13  19
ENDBRANCH  12  13
ENDBRANCH   1  12
TORSDOF 5
ENDMDL
MODEL 4
REMARK VINA RESULT:      -7.0      3.115      6.340
REMARK  Name = 
REMARK  7 active torsions:
REMARK  status: ('A' for Active; 'I' for Inactive)
REMARK    1  A    between atoms: C_1  and  C_2
REMARK    2  A    between atoms: C_6  and  C_7
REMARK    3  A    between atoms: C_7  and  O_8
REMARK    4  A    between atoms: O_8  and  C_9
REMARK    5  A    between atoms: C_12  and  C_13
REMARK    6  A    between atoms: C_13  and  C_14
REMARK    7  A    between atoms: C_13  and  N_15
REMARK                            x       y       z     vdW  Elec       q    Type
REMARK                         _______ _______ _______ _____ _____    ______ ____
ROOT
ATOM      1  C   UNL     1       4.362   4.706  16.744  0.00  0.00    +0.000 A 
ATOM      2  C   UNL     1       4.020   3.477  17.344  0.00  0.00    +0.000 A 
ATOM      3  C   UNL     1       3.150   3.441  18.435  0.00  0.00    +0.000 A 
ATOM      4  C   UNL     1       2.600   4.627  18.952  0.00  0.00    +0.000 A 
ATOM      5  C   UNL     1       2.964   5.854  18.368  0.00  0.00    +0.000 A 
ATOM      6  C   UNL     1       3.843   5.889  17.281  0.00  0.00    +0.000 A 
ENDROOT
BRANCH   4   7
ATOM      7  C   UNL     1       1.620   4.566  20.110  0.00  0.00    +0.000 C 
ATOM      8  C   UNL     1       0.924   3.202  20.189  0.00  0.00    +0.000 C 
BRANCH   7   9
ATOM      9  N   UNL     1       2.311   4.875  21.364  0.00  0.00    +0.000 NA
ATOM     10  H   UNL     1       3.343   4.745  21.259  0.00  0.00    +0.000 HD
ATOM     11  H   UNL     1       1.973   4.233  22.117  0.00  0.00    +0.000 HD
ENDBRANCH   7   9
ENDBRANCH   4   7
BRANCH   1  12
ATOM     12  O   UNL     1       5.176   4.791  15.658  0.00  0.00    +0.000 OA
BRANCH  12  13
ATOM     13  C   UNL     1       6.557   4.678  15.667  0.00  0.00    +0.000 C 
BRANCH  13  19
ATOM     14  C   UNL     1       7.991   8.994  17.826  0.00  0.00    +0.000 C 
ATOM     15  C   UNL     1       7.835   7.502  17.892  0.00  0.00    +0.000 A 
ATOM     16  C   UNL     1       8.212   6.789  19.040  0.00  0.00    +0.000 A 
ATOM     17  C   UNL     1       8.060   5.400  19.087  0.00  0.00    +0.000 A 
ATOM     18  C   UNL     1       7.538   4.712  17.988  0.00  0.00    +0.000 A 
ATOM     19  C   UNL     1       7.151   5.414  16.836  0.00  0.00    +0.000 A 
ATOM     20  C   UNL     1       7.304   6.810  16.793  0.00  0.00    +0.000 A 
ENDBRANCH  13  19
ENDBRANCH  12  13
ENDBRANCH   1  12
TORSDOF 5
ENDMDL
MODEL 5
REMARK VINA RESULT:      -6.8      3.230      6.479
REMARK  Name = 
REMARK  7 active torsions:
REMARK  status: ('A' for Active; 'I' for Inactive)
REMARK    1  A    between atoms: C_1  and  C_2
REMARK    2  A    between atoms: C_6  and  C_7
REMARK    3  A    between atoms: C_7  and  O_8
REMARK    4  A    between atoms: O_8  and  C_9
REMARK    5  A    between atoms: C_12  and  C_13
REMARK    6  A    between atoms: C_13  and  C_14
REMARK    7  A    between atoms: C_13  and  N_15
REMARK                            x       y       z     vdW  Elec       q    Type
REMARK                         _______ _______ _______ _____ _____    ______ ____
ROOT
ATOM      1  C   UNL     1       4.282   4.062  16.785  0.00  0.00    +0.000 A 
ATOM      2  C   UNL     1       3.686   5.057  17.585  0.00  0.00    +0.000 A 
ATOM      3  C   UNL     1       2.912   4.704  18.693  0.00  0.00    +0.000 A 
ATOM      4  C   UNL     1       2.716   3.353  19.028  0.00  0.00    +0.000 A 
ATOM      5  C   UNL     1       3.290   2.361  18.212  0.00  0.00    +0.000 A 
ATOM      6  C   UNL     1       4.058   2.716  17.097  0.00  0.00    +0.000 A 
ENDROOT
BRANCH   4   7
ATOM      7  C   UNL     1       1.910   2.988  20.261  0.00  0.00    +0.000 C 
ATOM      8  C   UNL     1       2.210   3.932  21.432  0.00  0.00    +0.000 C 
BRANCH   7   9
ATOM      9  N   UNL     1       0.481   2.989  19.941  0.00  0.00    +0.000 NA
ATOM     10  H   UNL     1       0.295   2.433  19.075  0.00  0.00    +0.000 HD
ATOM     11  H   UNL     1       0.160   3.971  19.775  0.00  0.00    +0.000 HD
ENDBRANCH   7   9
ENDBRANCH   4   7
BRANCH   1  12
ATOM     12  O   UNL     1       5.074   4.354  15.718  0.00  0.00    +0.000 OA
BRANCH  12  13
ATOM     13  C   UNL     1       6.458   4.289  15.693  0.00  0.00    +0.000 C 
BRANCH  13  19
ATOM     14  C   UNL     1       7.818   8.718  17.662  0.00  0.00    +0.000 C 
ATOM     15  C   UNL     1       7.705   7.226  17.785  0.00  0.00    +0.000 A 
ATOM     16  C   UNL     1       8.126   6.565  18.949  0.00  0.00    +0.000 A 
ATOM     17  C   UNL     1       8.015   5.175  19.049  0.00  0.00    +0.000 A 
ATOM     18  C   UNL     1       7.487   4.434  17.989  0.00  0.00    +0.000 A 
ATOM     19  C   UNL     1       7.057   5.082  16.821  0.00  0.00    +0.000 A 
ATOM     20  C   UNL     1       7.169   6.480  16.724  0.00  0.00    +0.000 A 
ENDBRANCH  13  19
ENDBRANCH  12  13
ENDBRANCH   1  12
TORSDOF 5
ENDMDL
MODEL 6
REMARK VINA RESULT:      -6.8      2.576      3.730
REMARK  Name = 
REMARK  7 active torsions:
REMARK  status: ('A' for Active; 'I' for Inactive)
REMARK    1  A    between atoms: C_1  and  C_2
REMARK    2  A    between atoms: C_6  and  C_7
REMARK    3  A    between atoms: C_7  and  O_8
REMARK    4  A    between atoms: O_8  and  C_9
REMARK    5  A    between atoms: C_12  and  C_13
REMARK    6  A    between atoms: C_13  and  C_14
REMARK    7  A    between atoms: C_13  and  N_15
REMARK                            x       y       z     vdW  Elec       q    Type
REMARK                         _______ _______ _______ _____ _____    ______ ____
ROOT
ATOM      1  C   UNL     1       3.414   5.520  17.730  0.00  0.00    +0.000 A 
ATOM      2  C   UNL     1       3.586   4.173  17.353  0.00  0.00    +0.000 A 
ATOM      3  C   UNL     1       4.623   3.805  16.493  0.00  0.00    +0.000 A 
ATOM      4  C   UNL     1       5.513   4.771  15.990  0.00  0.00    +0.000 A 
ATOM      5  C   UNL     1       5.323   6.118  16.347  0.00  0.00    +0.000 A 
ATOM      6  C   UNL     1       4.278   6.486  17.201  0.00  0.00    +0.000 A 
ENDROOT
BRANCH   4   7
ATOM      7  C   UNL     1       6.661   4.348  15.092  0.00  0.00    +0.000 C 
ATOM      8  C   UNL     1       6.164   3.905  13.711  0.00  0.00    +0.000 C 
BRANCH   7   9
ATOM      9  N   UNL     1       7.629   5.441  14.974  0.00  0.00    +0.000 NA
ATOM     10  H   UNL     1       7.212   6.342  15.302  0.00  0.00    +0.000 HD
ATOM     11  H   UNL     1       7.910   5.553  13.973  0.00  0.00    +0.000 HD
ENDBRANCH   7   9
ENDBRANCH   4   7
BRANCH   1  12
ATOM     12  O   UNL     1       2.444   5.923  18.593  0.00  0.00    +0.000 OA
BRANCH  12  13
ATOM     13  C   UNL     1       2.652   6.502  19.834  0.00  0.00    +0.000 C 
BRANCH  13  19
ATOM     14  C   UNL     1      -0.245   9.474  22.683  0.00  0.00    +0.000 C 
ATOM     15  C   UNL     1       0.436   9.200  21.374  0.00  0.00    +0.000 A 
ATOM     16  C   UNL     1       0.337  10.106  20.307  0.00  0.00    +0.000 A 
ATOM     17  C   UNL     1       0.977   9.836  19.093  0.00  0.00    +0.000 A 
ATOM     18  C   UNL     1       1.716   8.661  18.933  0.00  0.00    +0.000 A 
ATOM     19  C   UNL     1       1.828   7.750  19.994  0.00  0.00    +0.000 A 
ATOM     20  C   UNL     1       1.185   8.024  21.213  0.00  0.00    +0.000 A 
ENDBRANCH  13  19
ENDBRANCH  12  13
ENDBRANCH   1  12
TORSDOF 5
ENDMDL
MODEL 7
REMARK VINA RESULT:      -6.7      2.804      7.060
REMARK  Name = 
REMARK  7 active torsions:
REMARK  status: ('A' for Active; 'I' for Inactive)
REMARK    1  A    between atoms: C_1  and  C_2
REMARK    2  A    between atoms: C_6  and  C_7
REMARK    3  A    between atoms: C_7  and  O_8
REMARK    4  A    between atoms: O_8  and  C_9
REMARK    5  A    between atoms: C_12  and  C_13
REMARK    6  A    between atoms: C_13  and  C_14
REMARK    7  A    between atoms: C_13  and  N_15
REMARK                            x       y       z     vdW  Elec       q    Type
REMARK                         _______ _______ _______ _____ _____    ______ ____
ROOT
ATOM      1  C   UNL     1       4.475   4.596  17.317  0.00  0.00    +0.000 A 
ATOM      2  C   UNL     1       3.587   3.563  16.958  0.00  0.00    +0.000 A 
ATOM      3  C   UNL     1       2.711   3.023  17.901  0.00  0.00    +0.000 A 
ATOM      4  C   UNL     1       2.698   3.502  19.223  0.00  0.00    +0.000 A 
ATOM      5  C   UNL     1       3.603   4.515  19.586  0.00  0.00    +0.000 A 
ATOM      6  C   UNL     1       4.488   5.048  18.642  0.00  0.00    +0.000 A 
ENDROOT
BRANCH   4   7
ATOM      7  C   UNL     1       1.708   2.935  20.224  0.00  0.00    +0.000 C 
ATOM      8  C   UNL     1       2.292   2.908  21.642  0.00  0.00    +0.000 C 
BRANCH   7   9
ATOM      9  N   UNL     1       0.463   3.707  20.185  0.00  0.00    +0.000 NA
ATOM     10  H   UNL     1      -0.090   3.560  21.060  0.00  0.00    +0.000 HD
ATOM     11  H   UNL     1      -0.117   3.396  19.373  0.00  0.00    +0.000 HD
ENDBRANCH   7   9
ENDBRANCH   4   7
BRANCH   1  12
ATOM     12  O   UNL     1       5.323   5.179  16.428  0.00  0.00    +0.000 OA
BRANCH  12  13
ATOM     13  C   UNL     1       6.607   4.753  16.132  0.00  0.00    +0.000 C 
BRANCH  13  19
ATOM     14  C   UNL     1       5.358   2.574  11.770  0.00  0.00    +0.000 C 
ATOM     15  C   UNL     1       6.190   3.565  12.531  0.00  0.00    +0.000 A 
ATOM     16  C   UNL     1       7.126   4.376  11.871  0.00  0.00    +0.000 A 
ATOM     17  C   UNL     1       7.894   5.295  12.593  0.00  0.00    +0.000 A 
ATOM     18  C   UNL     1       7.737   5.408  13.977  0.00  0.00    +0.000 A 
ATOM     19  C   UNL     1       6.801   4.607  14.648  0.00  0.00    +0.000 A 
ATOM     20  C   UNL     1       6.029   3.686  13.919  0.00  0.00    +0.000 A 
ENDBRANCH  13  19
ENDBRANCH  12  13
ENDBRANCH   1  12
TORSDOF 5
ENDMDL
MODEL 8
REMARK VINA RESULT:      -6.7      1.977      3.404
REMARK  Name = 
REMARK  7 active torsions:
REMARK  status: ('A' for Active; 'I' for Inactive)
REMARK    1  A    between atoms: C_1  and  C_2
REMARK    2  A    between atoms: C_6  and  C_7
REMARK    3  A    between atoms: C_7  and  O_8
REMARK    4  A    between atoms: O_8  and  C_9
REMARK    5  A    between atoms: C_12  and  C_13
REMARK    6  A    between atoms: C_13  and  C_14
REMARK    7  A    between atoms: C_13  and  N_15
REMARK                            x       y       z     vdW  Elec       q    Type
REMARK                         _______ _______ _______ _____ _____    ______ ____
ROOT
ATOM      1  C   UNL     1       4.910   5.365  18.288  0.00  0.00    +0.000 A 
ATOM      2  C   UNL     1       4.289   4.549  17.322  0.00  0.00    +0.000 A 
ATOM      3  C   UNL     1       4.945   4.240  16.129  0.00  0.00    +0.000 A 
ATOM      4  C   UNL     1       6.235   4.735  15.872  0.00  0.00    +0.000 A 
ATOM      5  C   UNL     1       6.843   5.570  16.826  0.00  0.00    +0.000 A 
ATOM      6  C   UNL     1       6.181   5.887  18.018  0.00  0.00    +0.000 A 
ENDROOT
BRANCH   4   7
ATOM      7  C   UNL     1       6.952   4.352  14.590  0.00  0.00    +0.000 C 
ATOM      8  C   UNL     1       5.972   3.845  13.525  0.00  0.00    +0.000 C 
BRANCH   7   9
ATOM      9  N   UNL     1       7.724   5.493  14.091  0.00  0.00    +0.000 NA
ATOM     10  H   UNL     1       7.748   5.493  13.046  0.00  0.00    +0.000 HD
ATOM     11  H   UNL     1       8.707   5.431  14.443  0.00  0.00    +0.000 HD
ENDBRANCH   7   9
ENDBRANCH   4   7
BRANCH   1  12
ATOM     12  O   UNL     1       4.329   5.665  19.481  0.00  0.00    +0.000 OA
BRANCH  12  13
ATOM     13  C   UNL     1       2.969   5.664  19.743  0.00  0.00    +0.000 C 
BRANCH  13  19
ATOM     14  C   UNL     1       0.493   9.771  21.275  0.00  0.00    +0.000 C 
ATOM     15  C   UNL     1       1.172   9.001  20.179  0.00  0.00    +0.000 A 
ATOM     16  C   UNL     1       1.268   9.529  18.882  0.00  0.00    +0.000 A 
ATOM     17  C   UNL     1       1.904   8.801  17.872  0.00  0.00    +0.000 A 
ATOM     18  C   UNL     1       2.443   7.541  18.146  0.00  0.00    +0.000 A 
ATOM     19  C   UNL     1       2.359   7.004  19.439  0.00  0.00    +0.000 A 
ATOM     20  C   UNL     1       1.720   7.740  20.453  0.00  0.00    +0.000 A 
ENDBRANCH  13  19
ENDBRANCH  12  13
ENDBRANCH   1  12
TORSDOF 5
ENDMDL
MODEL 9
REMARK VINA RESULT:      -6.7      5.730      8.303
REMARK  Name = 
REMARK  7 active torsions:
REMARK  status: ('A' for Active; 'I' for Inactive)
REMARK    1  A    between atoms: C_1  and  C_2
REMARK    2  A    between atoms: C_6  and  C_7
REMARK    3  A    between atoms: C_7  and  O_8
REMARK    4  A    between atoms: O_8  and  C_9
REMARK    5  A    between atoms: C_12  and  C_13
REMARK    6  A    between atoms: C_13  and  C_14
REMARK    7  A    between atoms: C_13  and  N_15
REMARK                            x       y       z     vdW  Elec       q    Type
REMARK                         _______ _______ _______ _____ _____    ______ ____
ROOT
ATOM      1  C   UNL     1       7.854   7.347  18.247  0.00  0.00    +0.000 A 
ATOM      2  C   UNL     1       7.921   6.153  18.991  0.00  0.00    +0.000 A 
ATOM      3  C   UNL     1       7.100   5.070  18.667  0.00  0.00    +0.000 A 
ATOM      4  C   UNL     1       6.197   5.152  17.593  0.00  0.00    +0.000 A 
ATOM      5  C   UNL     1       6.114   6.355  16.868  0.00  0.00    +0.000 A 
ATOM      6  C   UNL     1       6.930   7.442  17.200  0.00  0.00    +0.000 A 
ENDROOT
BRANCH   4   7
ATOM      7  C   UNL     1       5.345   3.951  17.226  0.00  0.00    +0.000 C 
ATOM      8  C   UNL     1       3.854   4.306  17.192  0.00  0.00    +0.000 C 
BRANCH   7   9
ATOM      9  N   UNL     1       5.783   3.404  15.940  0.00  0.00    +0.000 NA
ATOM     10  H   UNL     1       4.962   3.094  15.371  0.00  0.00    +0.000 HD
ATOM     11  H   UNL     1       6.401   2.576  16.103  0.00  0.00    +0.000 HD
ENDBRANCH   7   9
ENDBRANCH   4   7
BRANCH   1  12
ATOM     12  O   UNL     1       8.656   8.416  18.499  0.00  0.00    +0.000 OA
BRANCH  12  13
ATOM     13  C   UNL     1       8.380   9.733  18.170  0.00  0.00    +0.000 C 
BRANCH  13  19
ATOM     14  C   UNL     1      12.137  13.014  17.492  0.00  0.00    +0.000 C 
ATOM     15  C   UNL     1      11.226  12.262  18.418  0.00  0.00    +0.000 A 
ATOM     16  C   UNL     1      11.308  12.436  19.808  0.00  0.00    +0.000 A 
ATOM     17  C   UNL     1      10.453  11.729  20.658  0.00  0.00    +0.000 A 
ATOM     18  C   UNL     1       9.512  10.841  20.129  0.00  0.00    +0.000 A 
ATOM     19  C   UNL     1       9.415  10.662  18.741  0.00  0.00    +0.000 A 
ATOM     20  C   UNL     1      10.275  11.376  17.889  0.00  0.00    +0.000 A 
ENDBRANCH  13  19
ENDBRANCH  12  13
ENDBRANCH   1  12
TORSDOF 5
ENDMDL
