MODEL 1
REMARK VINA RESULT:      -7.7      0.000      0.000
REMARK  Name = 
REMARK  1 active torsions:
REMARK  status: ('A' for Active; 'I' for Inactive)
REMARK    1  A    between atoms: N_12  and  C_13
REMARK                            x       y       z     vdW  Elec       q    Type
REMARK                         _______ _______ _______ _____ _____    ______ ____
ROOT
ATOM      1  O   UNL     1       3.279   6.516  19.641  0.00  0.00    +0.000 OA
ATOM      2  C   UNL     1       3.226   5.591  18.845  0.00  0.00    +0.000 C 
ATOM      3  C   UNL     1       2.001   4.706  18.647  0.00  0.00    +0.000 C 
ATOM      4  C   UNL     1       1.526   3.950  19.910  0.00  0.00    +0.000 C 
ATOM      5  C   UNL     1       0.319   3.035  19.586  0.00  0.00    +0.000 C 
ATOM      6  C   UNL     1       0.919   1.957  18.665  0.00  0.00    +0.000 C 
ATOM      7  C   UNL     1       2.407   2.333  18.653  0.00  0.00    +0.000 C 
ATOM      8  C   UNL     1       2.613   2.889  20.069  0.00  0.00    +0.000 C 
ATOM      9  C   UNL     1       2.524   3.575  17.757  0.00  0.00    +0.000 C 
ATOM     10  C   UNL     1       3.943   3.935  17.466  0.00  0.00    +0.000 C 
ATOM     11  O   UNL     1       4.713   3.201  16.857  0.00  0.00    +0.000 OA
ATOM     12  N   UNL     1       4.232   5.146  18.025  0.00  0.00    +0.000 N 
ENDROOT
BRANCH  12  13
ATOM     13  C   UNL     1       5.605   5.646  17.961  0.00  0.00    +0.000 C 
ATOM     14  C   UNL     1       6.357   5.489  19.289  0.00  0.00    +0.000 C 
ATOM     15  C   UNL     1       7.851   5.734  19.065  0.00  0.00    +0.000 C 
ATOM     16  C   UNL     1       8.115   7.102  18.432  0.00  0.00    +0.000 C 
ATOM     17  C   UNL     1       7.261   7.355  17.188  0.00  0.00    +0.000 C 
ATOM     18  C   UNL     1       5.772   7.074  17.433  0.00  0.00    +0.000 C 
ENDBRANCH  12  13
TORSDOF 1
ENDMDL
MODEL 2
REMARK VINA RESULT:      -7.5      1.912      5.282
REMARK  Name = 
REMARK  1 active torsions:
REMARK  status: ('A' for Active; 'I' for Inactive)
REMARK    1  A    between atoms: N_12  and  C_13
REMARK                            x       y       z     vdW  Elec       q    Type
REMARK                         _______ _______ _______ _____ _____    ______ ____
ROOT
ATOM      1  O   UNL     1       6.154   5.390  19.542  0.00  0.00    +0.000 OA
ATOM      2  C   UNL     1       5.743   4.664  18.651  0.00  0.00    +0.000 C 
ATOM      3  C   UNL     1       6.459   4.459  17.321  0.00  0.00    +0.000 C 
ATOM      4  C   UNL     1       6.678   5.745  16.488  0.00  0.00    +0.000 C 
ATOM      5  C   UNL     1       7.354   5.418  15.133  0.00  0.00    +0.000 C 
ATOM      6  C   UNL     1       6.278   4.618  14.376  0.00  0.00    +0.000 C 
ATOM      7  C   UNL     1       5.092   4.668  15.349  0.00  0.00    +0.000 C 
ATOM      8  C   UNL     1       5.263   6.048  15.999  0.00  0.00    +0.000 C 
ATOM      9  C   UNL     1       5.433   3.690  16.484  0.00  0.00    +0.000 C 
ATOM     10  C   UNL     1       4.279   3.459  17.401  0.00  0.00    +0.000 C 
ATOM     11  O   UNL     1       3.222   2.954  17.040  0.00  0.00    +0.000 OA
ATOM     12  N   UNL     1       4.577   3.942  18.642  0.00  0.00    +0.000 N 
ENDROOT
BRANCH  12  13
ATOM     13  C   UNL     1       3.542   3.923  19.676  0.00  0.00    +0.000 C 
ATOM     14  C   UNL     1       3.389   2.547  20.338  0.00  0.00    +0.000 C 
ATOM     15  C   UNL     1       2.531   2.676  21.599  0.00  0.00    +0.000 C 
ATOM     16  C   UNL     1       1.170   3.307  21.298  0.00  0.00    +0.000 C 
ATOM     17  C   UNL     1       1.280   4.606  20.498  0.00  0.00    +0.000 C 
ATOM     18  C   UNL     1       2.168   4.456  19.256  0.00  0.00    +0.000 C 
ENDBRANCH  12  13
TORSDOF 1
ENDMDL
MODEL 3
REMARK VINA RESULT:      -7.4      2.121      3.052
REMARK  Name = 
REMARK  1 active torsions:
REMARK  status: ('A' for Active; 'I' for Inactive)
REMARK    1  A    between atoms: N_12  and  C_13
REMARK                            x       y       z     vdW  Elec       q    Type
REMARK                         _______ _______ _______ _____ _____    ______ ____
ROOT
ATOM      1  O   UNL     1       2.283   3.257  16.709  0.00  0.00    +0.000 OA
ATOM      2  C   UNL     1       2.960   3.136  17.718  0.00  0.00    +0.000 C 
ATOM      3  C   UNL     1       2.432   2.587  19.038  0.00  0.00    +0.000 C 
ATOM      4  C   UNL     1       1.248   3.374  19.649  0.00  0.00    +0.000 C 
ATOM      5  C   UNL     1       0.831   2.774  21.015  0.00  0.00    +0.000 C 
ATOM      6  C   UNL     1       2.035   3.074  21.925  0.00  0.00    +0.000 C 
ATOM      7  C   UNL     1       2.947   3.889  20.998  0.00  0.00    +0.000 C 
ATOM      8  C   UNL     1       1.934   4.651  20.132  0.00  0.00    +0.000 C 
ATOM      9  C   UNL     1       3.570   2.879  20.021  0.00  0.00    +0.000 C 
ATOM     10  C   UNL     1       4.653   3.484  19.191  0.00  0.00    +0.000 C 
ATOM     11  O   UNL     1       5.688   3.939  19.663  0.00  0.00    +0.000 OA
ATOM     12  N   UNL     1       4.274   3.493  17.880  0.00  0.00    +0.000 N 
ENDROOT
BRANCH  12  13
ATOM     13  C   UNL     1       5.140   4.146  16.898  0.00  0.00    +0.000 C 
ATOM     14  C   UNL     1       4.685   5.572  16.559  0.00  0.00    +0.000 C 
ATOM     15  C   UNL     1       5.790   6.293  15.784  0.00  0.00    +0.000 C 
ATOM     16  C   UNL     1       6.199   5.523  14.527  0.00  0.00    +0.000 C 
ATOM     17  C   UNL     1       6.509   4.051  14.806  0.00  0.00    +0.000 C 
ATOM     18  C   UNL     1       5.398   3.361  15.608  0.00  0.00    +0.000 C 
ENDBRANCH  12  13
TORSDOF 1
ENDMDL
MODEL 4
REMARK VINA RESULT:      -7.3      2.151      2.917
REMARK  Name = 
REMARK  1 active torsions:
REMARK  status: ('A' for Active; 'I' for Inactive)
REMARK    1  A    between atoms: N_12  and  C_13
REMARK                            x       y       z     vdW  Elec       q    Type
REMARK                         _______ _______ _______ _____ _____    ______ ____
ROOT
ATOM      1  O   UNL     1       1.798   3.220  16.776  0.00  0.00    +0.000 OA
ATOM      2  C   UNL     1       2.616   3.153  17.680  0.00  0.00    +0.000 C 
ATOM      3  C   UNL     1       2.304   2.617  19.073  0.00  0.00    +0.000 C 
ATOM      4  C   UNL     1       1.183   3.370  19.830  0.00  0.00    +0.000 C 
ATOM      5  C   UNL     1       0.991   2.789  21.253  0.00  0.00    +0.000 C 
ATOM      6  C   UNL     1       2.297   3.162  21.976  0.00  0.00    +0.000 C 
ATOM      7  C   UNL     1       3.032   3.990  20.913  0.00  0.00    +0.000 C 
ATOM      8  C   UNL     1       1.873   4.686  20.186  0.00  0.00    +0.000 C 
ATOM      9  C   UNL     1       3.554   2.981  19.878  0.00  0.00    +0.000 C 
ATOM     10  C   UNL     1       4.481   3.609  18.891  0.00  0.00    +0.000 C 
ATOM     11  O   UNL     1       5.552   4.118  19.203  0.00  0.00    +0.000 OA
ATOM     12  N   UNL     1       3.922   3.568  17.647  0.00  0.00    +0.000 N 
ENDROOT
BRANCH  12  13
ATOM     13  C   UNL     1       4.611   4.230  16.539  0.00  0.00    +0.000 C 
ATOM     14  C   UNL     1       5.881   3.488  16.101  0.00  0.00    +0.000 C 
ATOM     15  C   UNL     1       6.367   4.049  14.762  0.00  0.00    +0.000 C 
ATOM     16  C   UNL     1       6.598   5.560  14.829  0.00  0.00    +0.000 C 
ATOM     17  C   UNL     1       5.404   6.319  15.412  0.00  0.00    +0.000 C 
ATOM     18  C   UNL     1       4.919   5.718  16.738  0.00  0.00    +0.000 C 
ENDBRANCH  12  13
TORSDOF 1
ENDMDL
MODEL 5
REMARK VINA RESULT:      -7.0      1.924      2.317
REMARK  Name = 
REMARK  1 active torsions:
REMARK  status: ('A' for Active; 'I' for Inactive)
REMARK    1  A    between atoms: N_12  and  C_13
REMARK                            x       y       z     vdW  Elec       q    Type
REMARK                         _______ _______ _______ _____ _____    ______ ____
ROOT
ATOM      1  O   UNL     1       3.464   6.324  17.543  0.00  0.00    +0.000 OA
ATOM      2  C   UNL     1       3.152   5.148  17.649  0.00  0.00    +0.000 C 
ATOM      3  C   UNL     1       1.951   4.654  18.447  0.00  0.00    +0.000 C 
ATOM      4  C   UNL     1       1.963   5.026  19.950  0.00  0.00    +0.000 C 
ATOM      5  C   UNL     1       0.736   4.424  20.678  0.00  0.00    +0.000 C 
ATOM      6  C   UNL     1       0.994   2.907  20.629  0.00  0.00    +0.000 C 
ATOM      7  C   UNL     1       2.376   2.835  19.967  0.00  0.00    +0.000 C 
ATOM      8  C   UNL     1       3.056   4.107  20.493  0.00  0.00    +0.000 C 
ATOM      9  C   UNL     1       2.149   3.136  18.477  0.00  0.00    +0.000 C 
ATOM     10  C   UNL     1       3.369   2.888  17.654  0.00  0.00    +0.000 C 
ATOM     11  O   UNL     1       3.889   1.784  17.537  0.00  0.00    +0.000 OA
ATOM     12  N   UNL     1       3.814   4.066  17.128  0.00  0.00    +0.000 N 
ENDROOT
BRANCH  12  13
ATOM     13  C   UNL     1       5.068   4.076  16.375  0.00  0.00    +0.000 C 
ATOM     14  C   UNL     1       6.184   4.849  17.091  0.00  0.00    +0.000 C 
ATOM     15  C   UNL     1       7.526   4.557  16.415  0.00  0.00    +0.000 C 
ATOM     16  C   UNL     1       7.492   4.880  14.920  0.00  0.00    +0.000 C 
ATOM     17  C   UNL     1       6.296   4.250  14.203  0.00  0.00    +0.000 C 
ATOM     18  C   UNL     1       4.968   4.534  14.917  0.00  0.00    +0.000 C 
ENDBRANCH  12  13
TORSDOF 1
ENDMDL
MODEL 6
REMARK VINA RESULT:      -6.9      2.080      5.353
REMARK  Name = 
REMARK  1 active torsions:
REMARK  status: ('A' for Active; 'I' for Inactive)
REMARK    1  A    between atoms: N_12  and  C_13
REMARK                            x       y       z     vdW  Elec       q    Type
REMARK                         _______ _______ _______ _____ _____    ______ ____
ROOT
ATOM      1  O   UNL     1       6.268   4.898  19.374  0.00  0.00    +0.000 OA
ATOM      2  C   UNL     1       5.801   4.344  18.391  0.00  0.00    +0.000 C 
ATOM      3  C   UNL     1       6.513   4.250  17.046  0.00  0.00    +0.000 C 
ATOM      4  C   UNL     1       6.870   5.609  16.397  0.00  0.00    +0.000 C 
ATOM      5  C   UNL     1       7.530   5.403  15.011  0.00  0.00    +0.000 C 
ATOM      6  C   UNL     1       6.392   4.823  14.151  0.00  0.00    +0.000 C 
ATOM      7  C   UNL     1       5.202   4.859  15.120  0.00  0.00    +0.000 C 
ATOM      8  C   UNL     1       5.498   6.115  15.951  0.00  0.00    +0.000 C 
ATOM      9  C   UNL     1       5.429   3.707  16.111  0.00  0.00    +0.000 C 
ATOM     10  C   UNL     1       4.244   3.471  16.988  0.00  0.00    +0.000 C 
ATOM     11  O   UNL     1       3.148   3.127  16.560  0.00  0.00    +0.000 OA
ATOM     12  N   UNL     1       4.570   3.750  18.283  0.00  0.00    +0.000 N 
ENDROOT
BRANCH  12  13
ATOM     13  C   UNL     1       3.523   3.694  19.304  0.00  0.00    +0.000 C 
ATOM     14  C   UNL     1       3.186   5.074  19.885  0.00  0.00    +0.000 C 
ATOM     15  C   UNL     1       1.893   4.987  20.698  0.00  0.00    +0.000 C 
ATOM     16  C   UNL     1       1.981   3.925  21.796  0.00  0.00    +0.000 C 
ATOM     17  C   UNL     1       2.469   2.571  21.275  0.00  0.00    +0.000 C 
ATOM     18  C   UNL     1       3.750   2.692  20.439  0.00  0.00    +0.000 C 
ENDBRANCH  12  13
TORSDOF 1
ENDMDL
MODEL 7
REMARK VINA RESULT:      -6.9      2.013      2.518
REMARK  Name = 
REMARK  1 active torsions:
REMARK  status: ('A' for Active; 'I' for Inactive)
REMARK    1  A    between atoms: N_12  and  C_13
REMARK                            x       y       z     vdW  Elec       q    Type
REMARK                         _______ _______ _______ _____ _____    ______ ____
ROOT
ATOM      1  O   UNL     1       5.125   5.381  19.436  0.00  0.00    +0.000 OA
ATOM      2  C   UNL     1       4.017   5.015  19.075  0.00  0.00    +0.000 C 
ATOM      3  C   UNL     1       2.873   4.697  20.031  0.00  0.00    +0.000 C 
ATOM      4  C   UNL     1       3.165   3.575  21.055  0.00  0.00    +0.000 C 
ATOM      5  C   UNL     1       1.921   3.289  21.932  0.00  0.00    +0.000 C 
ATOM      6  C   UNL     1       0.910   2.685  20.940  0.00  0.00    +0.000 C 
ATOM      7  C   UNL     1       1.730   2.613  19.645  0.00  0.00    +0.000 C 
ATOM      8  C   UNL     1       3.144   2.329  20.171  0.00  0.00    +0.000 C 
ATOM      9  C   UNL     1       1.823   4.054  19.120  0.00  0.00    +0.000 C 
ATOM     10  C   UNL     1       2.405   4.123  17.748  0.00  0.00    +0.000 C 
ATOM     11  O   UNL     1       1.880   3.608  16.767  0.00  0.00    +0.000 OA
ATOM     12  N   UNL     1       3.600   4.781  17.790  0.00  0.00    +0.000 N 
ENDROOT
BRANCH  12  13
ATOM     13  C   UNL     1       4.403   4.868  16.571  0.00  0.00    +0.000 C 
ATOM     14  C   UNL     1       5.451   3.751  16.469  0.00  0.00    +0.000 C 
ATOM     15  C   UNL     1       6.028   3.717  15.052  0.00  0.00    +0.000 C 
ATOM     16  C   UNL     1       6.613   5.070  14.643  0.00  0.00    +0.000 C 
ATOM     17  C   UNL     1       5.646   6.232  14.881  0.00  0.00    +0.000 C 
ATOM     18  C   UNL     1       5.061   6.225  16.299  0.00  0.00    +0.000 C 
ENDBRANCH  12  13
TORSDOF 1
ENDMDL
MODEL 8
REMARK VINA RESULT:      -6.9      1.744      2.694
REMARK  Name = 
REMARK  1 active torsions:
REMARK  status: ('A' for Active; 'I' for Inactive)
REMARK    1  A    between atoms: N_12  and  C_13
REMARK                            x       y       z     vdW  Elec       q    Type
REMARK                         _______ _______ _______ _____ _____    ______ ____
ROOT
ATOM      1  O   UNL     1       5.542   3.285  19.452  0.00  0.00    +0.000 OA
ATOM      2  C   UNL     1       4.547   3.986  19.343  0.00  0.00    +0.000 C 
ATOM      3  C   UNL     1       3.367   3.945  20.307  0.00  0.00    +0.000 C 
ATOM      4  C   UNL     1       2.668   2.570  20.432  0.00  0.00    +0.000 C 
ATOM      5  C   UNL     1       1.448   2.655  21.383  0.00  0.00    +0.000 C 
ATOM      6  C   UNL     1       0.456   3.551  20.621  0.00  0.00    +0.000 C 
ATOM      7  C   UNL     1       1.188   3.790  19.293  0.00  0.00    +0.000 C 
ATOM      8  C   UNL     1       1.938   2.466  19.093  0.00  0.00    +0.000 C 
ATOM      9  C   UNL     1       2.308   4.797  19.602  0.00  0.00    +0.000 C 
ATOM     10  C   UNL     1       2.975   5.300  18.365  0.00  0.00    +0.000 C 
ATOM     11  O   UNL     1       2.392   5.941  17.498  0.00  0.00    +0.000 OA
ATOM     12  N   UNL     1       4.276   4.889  18.348  0.00  0.00    +0.000 N 
ENDROOT
BRANCH  12  13
ATOM     13  C   UNL     1       5.093   5.176  17.168  0.00  0.00    +0.000 C 
ATOM     14  C   UNL     1       4.995   4.080  16.097  0.00  0.00    +0.000 C 
ATOM     15  C   UNL     1       5.609   4.585  14.790  0.00  0.00    +0.000 C 
ATOM     16  C   UNL     1       7.054   5.050  14.982  0.00  0.00    +0.000 C 
ATOM     17  C   UNL     1       7.213   6.027  16.149  0.00  0.00    +0.000 C 
ATOM     18  C   UNL     1       6.563   5.510  17.439  0.00  0.00    +0.000 C 
ENDBRANCH  12  13
TORSDOF 1
ENDMDL
MODEL 9
REMARK VINA RESULT:      -6.8      1.613      5.563
REMARK  Name = 
REMARK  1 active torsions:
REMARK  status: ('A' for Active; 'I' for Inactive)
REMARK    1  A    between atoms: N_12  and  C_13
REMARK                            x       y       z     vdW  Elec       q    Type
REMARK                         _______ _______ _______ _____ _____    ______ ____
ROOT
ATOM      1  O   UNL     1       3.978   2.235  17.238  0.00  0.00    +0.000 OA
ATOM      2  C   UNL     1       4.022   3.454  17.172  0.00  0.00    +0.000 C 
ATOM      3  C   UNL     1       4.827   4.222  16.129  0.00  0.00    +0.000 C 
ATOM      4  C   UNL     1       6.348   3.936  16.132  0.00  0.00    +0.000 C 
ATOM      5  C   UNL     1       7.077   4.810  15.082  0.00  0.00    +0.000 C 
ATOM      6  C   UNL     1       6.927   6.239  15.635  0.00  0.00    +0.000 C 
ATOM      7  C   UNL     1       6.218   5.997  16.974  0.00  0.00    +0.000 C 
ATOM      8  C   UNL     1       6.799   4.644  17.409  0.00  0.00    +0.000 C 
ATOM      9  C   UNL     1       4.757   5.668  16.626  0.00  0.00    +0.000 C 
ATOM     10  C   UNL     1       3.883   5.621  17.835  0.00  0.00    +0.000 C 
ATOM     11  O   UNL     1       3.682   6.590  18.559  0.00  0.00    +0.000 OA
ATOM     12  N   UNL     1       3.416   4.351  18.013  0.00  0.00    +0.000 N 
ENDROOT
BRANCH  12  13
ATOM     13  C   UNL     1       2.626   4.049  19.206  0.00  0.00    +0.000 C 
ATOM     14  C   UNL     1       3.406   3.229  20.243  0.00  0.00    +0.000 C 
ATOM     15  C   UNL     1       2.643   3.220  21.570  0.00  0.00    +0.000 C 
ATOM     16  C   UNL     1       1.215   2.696  21.402  0.00  0.00    +0.000 C 
ATOM     17  C   UNL     1       0.458   3.387  20.266  0.00  0.00    +0.000 C 
ATOM     18  C   UNL     1       1.257   3.407  18.956  0.00  0.00    +0.000 C 
ENDBRANCH  12  13
TORSDOF 1
ENDMDL
