MODEL 1
REMARK VINA RESULT:      -7.6      0.000      0.000
REMARK  Name = 
REMARK  7 active torsions:
REMARK  status: ('A' for Active; 'I' for Inactive)
REMARK    1  A    between atoms: C_1  and  O_2
REMARK    2  A    between atoms: O_2  and  C_3
REMARK    3  A    between atoms: N_5  and  C_6
REMARK    4  A    between atoms: C_9  and  S_10
REMARK    5  A    between atoms: S_10  and  N_13
REMARK    6  A    between atoms: C_17  and  C_18
REMARK    7  A    between atoms: N_20  and  C_21
REMARK                            x       y       z     vdW  Elec       q    Type
REMARK                         _______ _______ _______ _____ _____    ______ ____
ROOT
ATOM      1  N   UNL     1       0.883   9.472  19.762  0.00  0.00    +0.000 NA
ATOM      2  C   UNL     1       1.557  10.406  18.817  0.00  0.00    +0.000 C 
ATOM      3  C   UNL     1       1.907   9.694  17.517  0.00  0.00    +0.000 C 
ATOM      4  C   UNL     1       2.783   8.473  17.774  0.00  0.00    +0.000 C 
ATOM      5  C   UNL     1       2.080   7.504  18.729  0.00  0.00    +0.000 C 
ATOM      6  C   UNL     1       1.669   8.223  20.023  0.00  0.00    +0.000 C 
ENDROOT
BRANCH   5   7
ATOM      7  C   UNL     1       2.972   6.317  19.095  0.00  0.00    +0.000 C 
ATOM      8  O   UNL     1       2.717   5.554  20.023  0.00  0.00    +0.000 OA
ATOM      9  N   UNL     1       4.093   6.144  18.302  0.00  0.00    +0.000 N 
ATOM     10  H   UNL     1       4.136   6.644  17.420  0.00  0.00    +0.000 HD
BRANCH   9  11
ATOM     11  C   UNL     1       5.012   5.034  18.566  0.00  0.00    +0.000 C 
ATOM     12  C   UNL     1       6.194   5.459  19.441  0.00  0.00    +0.000 C 
ATOM     13  C   UNL     1       7.202   6.124  18.521  0.00  0.00    +0.000 C 
ATOM     14  S   UNL     1       7.180   5.135  17.041  0.00  0.00    +0.000 S 
ATOM     15  O   UNL     1       8.188   4.105  17.171  0.00  0.00    +0.000 OA
ATOM     16  O   UNL     1       7.125   6.030  15.905  0.00  0.00    +0.000 OA
ATOM     17  C   UNL     1       5.573   4.401  17.289  0.00  0.00    +0.000 C 
ENDBRANCH   9  11
ENDBRANCH   5   7
BRANCH   1  18
ATOM     18  S   UNL     1       0.412  10.241  21.247  0.00  0.00    +0.000 S 
ATOM     19  O   UNL     1       1.445  11.203  21.591  0.00  0.00    +0.000 OA
ATOM     20  O   UNL     1      -0.012   9.221  22.180  0.00  0.00    +0.000 OA
BRANCH  18  24
ATOM     21  C   UNL     1      -3.308  12.621  20.082  0.00  0.00    +0.000 A 
ATOM     22  C   UNL     1      -2.773  12.692  21.371  0.00  0.00    +0.000 A 
ATOM     23  C   UNL     1      -1.643  11.952  21.716  0.00  0.00    +0.000 A 
ATOM     24  C   UNL     1      -1.044  11.129  20.765  0.00  0.00    +0.000 A 
ATOM     25  C   UNL     1      -1.558  11.042  19.470  0.00  0.00    +0.000 A 
ATOM     26  C   UNL     1      -2.703  11.780  19.137  0.00  0.00    +0.000 A 
BRANCH  21  29
ATOM     27  C   UNL     1      -5.738  12.924  19.697  0.00  0.00    +0.000 C 
ATOM     28  O   UNL     1      -6.158  11.841  20.079  0.00  0.00    +0.000 OA
ATOM     29  N   UNL     1      -4.438  13.362  19.692  0.00  0.00    +0.000 N 
ATOM     30  H   UNL     1      -4.328  14.337  19.460  0.00  0.00    +0.000 HD
BRANCH  27  32
ATOM     31  C   UNL     1      -7.501  13.459  18.276  0.00  0.00    +0.000 C 
ATOM     32  O   UNL     1      -6.545  13.919  19.236  0.00  0.00    +0.000 OA
ENDBRANCH  27  32
ENDBRANCH  21  29
ENDBRANCH  18  24
ENDBRANCH   1  18
TORSDOF 6
ENDMDL
MODEL 2
REMARK VINA RESULT:      -7.4      1.900      2.445
REMARK  Name = 
REMARK  7 active torsions:
REMARK  status: ('A' for Active; 'I' for Inactive)
REMARK    1  A    between atoms: C_1  and  O_2
REMARK    2  A    between atoms: O_2  and  C_3
REMARK    3  A    between atoms: N_5  and  C_6
REMARK    4  A    between atoms: C_9  and  S_10
REMARK    5  A    between atoms: S_10  and  N_13
REMARK    6  A    between atoms: C_17  and  C_18
REMARK    7  A    between atoms: N_20  and  C_21
REMARK                            x       y       z     vdW  Elec       q    Type
REMARK                         _______ _______ _______ _____ _____    ______ ____
ROOT
ATOM      1  N   UNL     1       1.613   9.587  19.724  0.00  0.00    +0.000 NA
ATOM      2  C   UNL     1       0.472   9.227  20.612  0.00  0.00    +0.000 C 
ATOM      3  C   UNL     1       0.818   8.014  21.465  0.00  0.00    +0.000 C 
ATOM      4  C   UNL     1       1.215   6.824  20.601  0.00  0.00    +0.000 C 
ATOM      5  C   UNL     1       2.402   7.189  19.705  0.00  0.00    +0.000 C 
ATOM      6  C   UNL     1       2.090   8.445  18.878  0.00  0.00    +0.000 C 
ENDROOT
BRANCH   5   7
ATOM      7  C   UNL     1       2.763   6.054  18.746  0.00  0.00    +0.000 C 
ATOM      8  O   UNL     1       2.050   5.068  18.582  0.00  0.00    +0.000 OA
ATOM      9  N   UNL     1       3.954   6.208  18.057  0.00  0.00    +0.000 N 
ATOM     10  H   UNL     1       4.383   7.128  18.045  0.00  0.00    +0.000 HD
BRANCH   9  11
ATOM     11  C   UNL     1       4.390   5.179  17.110  0.00  0.00    +0.000 C 
ATOM     12  C   UNL     1       5.244   4.101  17.784  0.00  0.00    +0.000 C 
ATOM     13  C   UNL     1       6.652   4.658  17.885  0.00  0.00    +0.000 C 
ATOM     14  S   UNL     1       6.908   5.515  16.346  0.00  0.00    +0.000 S 
ATOM     15  O   UNL     1       7.494   4.586  15.404  0.00  0.00    +0.000 OA
ATOM     16  O   UNL     1       7.503   6.801  16.642  0.00  0.00    +0.000 OA
ATOM     17  C   UNL     1       5.189   5.745  15.932  0.00  0.00    +0.000 C 
ENDBRANCH   9  11
ENDBRANCH   5   7
BRANCH   1  18
ATOM     18  S   UNL     1       1.297  10.996  18.759  0.00  0.00    +0.000 S 
ATOM     19  O   UNL     1       1.817  10.743  17.427  0.00  0.00    +0.000 OA
ATOM     20  O   UNL     1       1.685  12.167  19.512  0.00  0.00    +0.000 OA
BRANCH  18  24
ATOM     21  C   UNL     1      -3.264  11.146  18.565  0.00  0.00    +0.000 A 
ATOM     22  C   UNL     1      -2.540  12.033  19.366  0.00  0.00    +0.000 A 
ATOM     23  C   UNL     1      -1.149  11.969  19.424  0.00  0.00    +0.000 A 
ATOM     24  C   UNL     1      -0.474  11.007  18.678  0.00  0.00    +0.000 A 
ATOM     25  C   UNL     1      -1.174  10.111  17.867  0.00  0.00    +0.000 A 
ATOM     26  C   UNL     1      -2.574  10.175  17.826  0.00  0.00    +0.000 A 
BRANCH  21  29
ATOM     27  C   UNL     1      -5.395  11.682  17.418  0.00  0.00    +0.000 C 
ATOM     28  O   UNL     1      -4.970  12.131  16.363  0.00  0.00    +0.000 OA
ATOM     29  N   UNL     1      -4.667  11.187  18.470  0.00  0.00    +0.000 N 
ATOM     30  H   UNL     1      -5.221  10.744  19.187  0.00  0.00    +0.000 HD
BRANCH  27  32
ATOM     31  C   UNL     1      -6.967  11.046  19.010  0.00  0.00    +0.000 C 
ATOM     32  O   UNL     1      -6.722  11.564  17.700  0.00  0.00    +0.000 OA
ENDBRANCH  27  32
ENDBRANCH  21  29
ENDBRANCH  18  24
ENDBRANCH   1  18
TORSDOF 6
ENDMDL
MODEL 3
REMARK VINA RESULT:      -7.4      2.946     10.366
REMARK  Name = 
REMARK  7 active torsions:
REMARK  status: ('A' for Active; 'I' for Inactive)
REMARK    1  A    between atoms: C_1  and  O_2
REMARK    2  A    between atoms: O_2  and  C_3
REMARK    3  A    between atoms: N_5  and  C_6
REMARK    4  A    between atoms: C_9  and  S_10
REMARK    5  A    between atoms: S_10  and  N_13
REMARK    6  A    between atoms: C_17  and  C_18
REMARK    7  A    between atoms: N_20  and  C_21
REMARK                            x       y       z     vdW  Elec       q    Type
REMARK                         _______ _______ _______ _____ _____    ______ ____
ROOT
ATOM      1  N   UNL     1      -1.006  11.165  18.255  0.00  0.00    +0.000 NA
ATOM      2  C   UNL     1      -1.132   9.791  17.692  0.00  0.00    +0.000 C 
ATOM      3  C   UNL     1      -2.273   9.727  16.685  0.00  0.00    +0.000 C 
ATOM      4  C   UNL     1      -3.590  10.169  17.312  0.00  0.00    +0.000 C 
ATOM      5  C   UNL     1      -3.464  11.589  17.871  0.00  0.00    +0.000 C 
ATOM      6  C   UNL     1      -2.281  11.685  18.846  0.00  0.00    +0.000 C 
ENDROOT
BRANCH   5   7
ATOM      7  C   UNL     1      -4.733  12.029  18.603  0.00  0.00    +0.000 C 
ATOM      8  O   UNL     1      -5.848  11.600  18.319  0.00  0.00    +0.000 OA
ATOM      9  N   UNL     1      -4.548  12.944  19.625  0.00  0.00    +0.000 N 
ATOM     10  H   UNL     1      -3.605  13.086  19.974  0.00  0.00    +0.000 HD
BRANCH   9  11
ATOM     11  C   UNL     1      -5.699  13.427  20.392  0.00  0.00    +0.000 C 
ATOM     12  C   UNL     1      -5.456  14.819  20.980  0.00  0.00    +0.000 C 
ATOM     13  C   UNL     1      -4.646  14.623  22.249  0.00  0.00    +0.000 C 
ATOM     14  S   UNL     1      -5.344  13.172  23.008  0.00  0.00    +0.000 S 
ATOM     15  O   UNL     1      -6.393  13.597  23.912  0.00  0.00    +0.000 OA
ATOM     16  O   UNL     1      -4.255  12.318  23.429  0.00  0.00    +0.000 OA
ATOM     17  C   UNL     1      -6.092  12.491  21.539  0.00  0.00    +0.000 C 
ENDBRANCH   9  11
ENDBRANCH   5   7
BRANCH   1  18
ATOM     18  S   UNL     1       0.314  11.314  19.375  0.00  0.00    +0.000 S 
ATOM     19  O   UNL     1      -0.248  11.361  20.713  0.00  0.00    +0.000 OA
ATOM     20  O   UNL     1       1.212  12.341  18.896  0.00  0.00    +0.000 OA
BRANCH  18  24
ATOM     21  C   UNL     1       2.566   7.385  18.784  0.00  0.00    +0.000 A 
ATOM     22  C   UNL     1       2.526   8.358  17.782  0.00  0.00    +0.000 A 
ATOM     23  C   UNL     1       1.826   9.548  17.972  0.00  0.00    +0.000 A 
ATOM     24  C   UNL     1       1.155   9.767  19.173  0.00  0.00    +0.000 A 
ATOM     25  C   UNL     1       1.183   8.812  20.190  0.00  0.00    +0.000 A 
ATOM     26  C   UNL     1       1.879   7.612  19.985  0.00  0.00    +0.000 A 
BRANCH  21  29
ATOM     27  C   UNL     1       2.778   5.004  18.127  0.00  0.00    +0.000 C 
ATOM     28  O   UNL     1       1.662   4.803  17.670  0.00  0.00    +0.000 OA
ATOM     29  N   UNL     1       3.273   6.178  18.636  0.00  0.00    +0.000 N 
ATOM     30  H   UNL     1       4.262   6.160  18.835  0.00  0.00    +0.000 HD
BRANCH  27  32
ATOM     31  C   UNL     1       3.239   2.731  18.312  0.00  0.00    +0.000 C 
ATOM     32  O   UNL     1       3.755   4.057  18.159  0.00  0.00    +0.000 OA
ENDBRANCH  27  32
ENDBRANCH  21  29
ENDBRANCH  18  24
ENDBRANCH   1  18
TORSDOF 6
ENDMDL
MODEL 4
REMARK VINA RESULT:      -7.4      2.502      3.239
REMARK  Name = 
REMARK  7 active torsions:
REMARK  status: ('A' for Active; 'I' for Inactive)
REMARK    1  A    between atoms: C_1  and  O_2
REMARK    2  A    between atoms: O_2  and  C_3
REMARK    3  A    between atoms: N_5  and  C_6
REMARK    4  A    between atoms: C_9  and  S_10
REMARK    5  A    between atoms: S_10  and  N_13
REMARK    6  A    between atoms: C_17  and  C_18
REMARK    7  A    between atoms: N_20  and  C_21
REMARK                            x       y       z     vdW  Elec       q    Type
REMARK                         _______ _______ _______ _____ _____    ______ ____
ROOT
ATOM      1  N   UNL     1       1.264   9.557  19.708  0.00  0.00    +0.000 NA
ATOM      2  C   UNL     1       0.331   9.078  20.767  0.00  0.00    +0.000 C 
ATOM      3  C   UNL     1       0.971   7.961  21.581  0.00  0.00    +0.000 C 
ATOM      4  C   UNL     1       1.402   6.803  20.688  0.00  0.00    +0.000 C 
ATOM      5  C   UNL     1       2.378   7.293  19.614  0.00  0.00    +0.000 C 
ATOM      6  C   UNL     1       1.769   8.459  18.821  0.00  0.00    +0.000 C 
ENDROOT
BRANCH   5   7
ATOM      7  C   UNL     1       2.751   6.181  18.633  0.00  0.00    +0.000 C 
ATOM      8  O   UNL     1       2.029   5.212  18.420  0.00  0.00    +0.000 OA
ATOM      9  N   UNL     1       3.963   6.338  17.984  0.00  0.00    +0.000 N 
ATOM     10  H   UNL     1       4.406   7.251  18.013  0.00  0.00    +0.000 HD
BRANCH   9  11
ATOM     11  C   UNL     1       4.413   5.330  17.021  0.00  0.00    +0.000 C 
ATOM     12  C   UNL     1       5.213   4.210  17.690  0.00  0.00    +0.000 C 
ATOM     13  C   UNL     1       6.629   4.728  17.866  0.00  0.00    +0.000 C 
ATOM     14  S   UNL     1       6.967   5.629  16.368  0.00  0.00    +0.000 S 
ATOM     15  O   UNL     1       7.568   4.717  15.418  0.00  0.00    +0.000 OA
ATOM     16  O   UNL     1       7.579   6.889  16.731  0.00  0.00    +0.000 OA
ATOM     17  C   UNL     1       5.271   5.916  15.895  0.00  0.00    +0.000 C 
ENDBRANCH   9  11
ENDBRANCH   5   7
BRANCH   1  18
ATOM     18  S   UNL     1       0.609  10.868  18.777  0.00  0.00    +0.000 S 
ATOM     19  O   UNL     1      -0.314  10.303  17.809  0.00  0.00    +0.000 OA
ATOM     20  O   UNL     1       1.695  11.733  18.371  0.00  0.00    +0.000 OA
BRANCH  18  24
ATOM     21  C   UNL     1      -1.897  13.095  21.879  0.00  0.00    +0.000 A 
ATOM     22  C   UNL     1      -2.477  12.552  20.729  0.00  0.00    +0.000 A 
ATOM     23  C   UNL     1      -1.698  11.884  19.785  0.00  0.00    +0.000 A 
ATOM     24  C   UNL     1      -0.326  11.761  19.990  0.00  0.00    +0.000 A 
ATOM     25  C   UNL     1       0.276  12.292  21.132  0.00  0.00    +0.000 A 
ATOM     26  C   UNL     1      -0.513  12.973  22.069  0.00  0.00    +0.000 A 
BRANCH  21  29
ATOM     27  C   UNL     1      -3.449  13.178  23.810  0.00  0.00    +0.000 C 
ATOM     28  O   UNL     1      -3.617  11.984  24.009  0.00  0.00    +0.000 OA
ATOM     29  N   UNL     1      -2.651  13.763  22.861  0.00  0.00    +0.000 N 
ATOM     30  H   UNL     1      -2.553  14.763  22.957  0.00  0.00    +0.000 HD
BRANCH  27  32
ATOM     31  C   UNL     1      -3.078  14.884  25.348  0.00  0.00    +0.000 C 
ATOM     32  O   UNL     1      -4.027  14.151  24.568  0.00  0.00    +0.000 OA
ENDBRANCH  27  32
ENDBRANCH  21  29
ENDBRANCH  18  24
ENDBRANCH   1  18
TORSDOF 6
ENDMDL
MODEL 5
REMARK VINA RESULT:      -7.4      2.170      2.531
REMARK  Name = 
REMARK  7 active torsions:
REMARK  status: ('A' for Active; 'I' for Inactive)
REMARK    1  A    between atoms: C_1  and  O_2
REMARK    2  A    between atoms: O_2  and  C_3
REMARK    3  A    between atoms: N_5  and  C_6
REMARK    4  A    between atoms: C_9  and  S_10
REMARK    5  A    between atoms: S_10  and  N_13
REMARK    6  A    between atoms: C_17  and  C_18
REMARK    7  A    between atoms: N_20  and  C_21
REMARK                            x       y       z     vdW  Elec       q    Type
REMARK                         _______ _______ _______ _____ _____    ______ ____
ROOT
ATOM      1  N   UNL     1       0.850   9.063  20.044  0.00  0.00    +0.000 NA
ATOM      2  C   UNL     1       1.419  10.041  19.073  0.00  0.00    +0.000 C 
ATOM      3  C   UNL     1       1.738   9.359  17.749  0.00  0.00    +0.000 C 
ATOM      4  C   UNL     1       2.693   8.188  17.947  0.00  0.00    +0.000 C 
ATOM      5  C   UNL     1       2.097   7.173  18.927  0.00  0.00    +0.000 C 
ATOM      6  C   UNL     1       1.717   7.858  20.249  0.00  0.00    +0.000 C 
ENDROOT
BRANCH   5   7
ATOM      7  C   UNL     1       3.072   6.035  19.233  0.00  0.00    +0.000 C 
ATOM      8  O   UNL     1       2.928   5.274  20.184  0.00  0.00    +0.000 OA
ATOM      9  N   UNL     1       4.135   5.906  18.355  0.00  0.00    +0.000 N 
ATOM     10  H   UNL     1       4.084   6.396  17.468  0.00  0.00    +0.000 HD
BRANCH   9  11
ATOM     11  C   UNL     1       5.124   4.844  18.556  0.00  0.00    +0.000 C 
ATOM     12  C   UNL     1       6.311   5.316  19.400  0.00  0.00    +0.000 C 
ATOM     13  C   UNL     1       7.246   6.061  18.464  0.00  0.00    +0.000 C 
ATOM     14  S   UNL     1       7.225   5.110  16.959  0.00  0.00    +0.000 S 
ATOM     15  O   UNL     1       8.295   4.137  17.025  0.00  0.00    +0.000 OA
ATOM     16  O   UNL     1       7.077   6.028  15.850  0.00  0.00    +0.000 OA
ATOM     17  C   UNL     1       5.673   4.278  17.243  0.00  0.00    +0.000 C 
ENDBRANCH   9  11
ENDBRANCH   5   7
BRANCH   1  18
ATOM     18  S   UNL     1       0.418   9.793  21.559  0.00  0.00    +0.000 S 
ATOM     19  O   UNL     1       1.640   9.986  22.319  0.00  0.00    +0.000 OA
ATOM     20  O   UNL     1      -0.711   9.078  22.111  0.00  0.00    +0.000 OA
BRANCH  18  24
ATOM     21  C   UNL     1      -1.018  13.921  20.230  0.00  0.00    +0.000 A 
ATOM     22  C   UNL     1       0.223  13.747  20.849  0.00  0.00    +0.000 A 
ATOM     23  C   UNL     1       0.644  12.482  21.259  0.00  0.00    +0.000 A 
ATOM     24  C   UNL     1      -0.184  11.382  21.053  0.00  0.00    +0.000 A 
ATOM     25  C   UNL     1      -1.427  11.529  20.435  0.00  0.00    +0.000 A 
ATOM     26  C   UNL     1      -1.848  12.806  20.038  0.00  0.00    +0.000 A 
BRANCH  21  29
ATOM     27  C   UNL     1      -2.141  16.108  20.543  0.00  0.00    +0.000 C 
ATOM     28  O   UNL     1      -2.422  16.043  21.731  0.00  0.00    +0.000 OA
ATOM     29  N   UNL     1      -1.473  15.177  19.790  0.00  0.00    +0.000 N 
ATOM     30  H   UNL     1      -1.229  15.489  18.862  0.00  0.00    +0.000 HD
BRANCH  27  32
ATOM     31  C   UNL     1      -1.438  18.216  19.855  0.00  0.00    +0.000 C 
ATOM     32  O   UNL     1      -2.428  17.188  19.765  0.00  0.00    +0.000 OA
ENDBRANCH  27  32
ENDBRANCH  21  29
ENDBRANCH  18  24
ENDBRANCH   1  18
TORSDOF 6
ENDMDL
MODEL 6
REMARK VINA RESULT:      -7.4      2.046      2.206
REMARK  Name = 
REMARK  7 active torsions:
REMARK  status: ('A' for Active; 'I' for Inactive)
REMARK    1  A    between atoms: C_1  and  O_2
REMARK    2  A    between atoms: O_2  and  C_3
REMARK    3  A    between atoms: N_5  and  C_6
REMARK    4  A    between atoms: C_9  and  S_10
REMARK    5  A    between atoms: S_10  and  N_13
REMARK    6  A    between atoms: C_17  and  C_18
REMARK    7  A    between atoms: N_20  and  C_21
REMARK                            x       y       z     vdW  Elec       q    Type
REMARK                         _______ _______ _______ _____ _____    ______ ____
ROOT
ATOM      1  N   UNL     1       0.785  10.034  20.010  0.00  0.00    +0.000 NA
ATOM      2  C   UNL     1       1.610  10.635  18.923  0.00  0.00    +0.000 C 
ATOM      3  C   UNL     1       1.769   9.657  17.767  0.00  0.00    +0.000 C 
ATOM      4  C   UNL     1       2.381   8.342  18.235  0.00  0.00    +0.000 C 
ATOM      5  C   UNL     1       1.521   7.715  19.336  0.00  0.00    +0.000 C 
ATOM      6  C   UNL     1       1.303   8.711  20.486  0.00  0.00    +0.000 C 
ENDROOT
BRANCH   5   7
ATOM      7  C   UNL     1       2.159   6.448  19.906  0.00  0.00    +0.000 C 
ATOM      8  O   UNL     1       1.839   5.971  20.991  0.00  0.00    +0.000 OA
ATOM      9  N   UNL     1       3.125   5.855  19.111  0.00  0.00    +0.000 N 
ATOM     10  H   UNL     1       3.186   6.142  18.139  0.00  0.00    +0.000 HD
BRANCH   9  11
ATOM     11  C   UNL     1       3.795   4.633  19.563  0.00  0.00    +0.000 C 
ATOM     12  C   UNL     1       5.024   4.301  18.713  0.00  0.00    +0.000 C 
ATOM     13  C   UNL     1       4.516   3.605  17.463  0.00  0.00    +0.000 C 
ATOM     14  S   UNL     1       3.211   2.541  18.040  0.00  0.00    +0.000 S 
ATOM     15  O   UNL     1       3.787   1.251  18.355  0.00  0.00    +0.000 OA
ATOM     16  O   UNL     1       2.082   2.692  17.147  0.00  0.00    +0.000 OA
ATOM     17  C   UNL     1       2.875   3.407  19.562  0.00  0.00    +0.000 C 
ENDBRANCH   9  11
ENDBRANCH   5   7
BRANCH   1  18
ATOM     18  S   UNL     1       0.526  11.123  21.338  0.00  0.00    +0.000 S 
ATOM     19  O   UNL     1       1.452  12.232  21.185  0.00  0.00    +0.000 OA
ATOM     20  O   UNL     1       0.463  10.353  22.560  0.00  0.00    +0.000 OA
BRANCH  18  24
ATOM     21  C   UNL     1      -3.689  12.730  20.621  0.00  0.00    +0.000 A 
ATOM     22  C   UNL     1      -3.136  12.684  21.904  0.00  0.00    +0.000 A 
ATOM     23  C   UNL     1      -1.852  12.182  22.109  0.00  0.00    +0.000 A 
ATOM     24  C   UNL     1      -1.115  11.716  21.024  0.00  0.00    +0.000 A 
ATOM     25  C   UNL     1      -1.644  11.753  19.732  0.00  0.00    +0.000 A 
ATOM     26  C   UNL     1      -2.941  12.248  19.538  0.00  0.00    +0.000 A 
BRANCH  21  29
ATOM     27  C   UNL     1      -6.165  12.606  20.619  0.00  0.00    +0.000 C 
ATOM     28  O   UNL     1      -6.331  11.512  21.138  0.00  0.00    +0.000 OA
ATOM     29  N   UNL     1      -4.975  13.242  20.371  0.00  0.00    +0.000 N 
ATOM     30  H   UNL     1      -5.070  14.196  20.058  0.00  0.00    +0.000 HD
BRANCH  27  32
ATOM     31  C   UNL     1      -6.748  14.560  19.498  0.00  0.00    +0.000 C 
ATOM     32  O   UNL     1      -7.191  13.413  20.230  0.00  0.00    +0.000 OA
ENDBRANCH  27  32
ENDBRANCH  21  29
ENDBRANCH  18  24
ENDBRANCH   1  18
TORSDOF 6
ENDMDL
MODEL 7
REMARK VINA RESULT:      -7.4      3.248     10.909
REMARK  Name = 
REMARK  7 active torsions:
REMARK  status: ('A' for Active; 'I' for Inactive)
REMARK    1  A    between atoms: C_1  and  O_2
REMARK    2  A    between atoms: O_2  and  C_3
REMARK    3  A    between atoms: N_5  and  C_6
REMARK    4  A    between atoms: C_9  and  S_10
REMARK    5  A    between atoms: S_10  and  N_13
REMARK    6  A    between atoms: C_17  and  C_18
REMARK    7  A    between atoms: N_20  and  C_21
REMARK                            x       y       z     vdW  Elec       q    Type
REMARK                         _______ _______ _______ _____ _____    ______ ____
ROOT
ATOM      1  N   UNL     1       4.583   6.043  18.190  0.00  0.00    +0.000 NA
ATOM      2  C   UNL     1       4.347   5.522  19.566  0.00  0.00    +0.000 C 
ATOM      3  C   UNL     1       2.855   5.447  19.862  0.00  0.00    +0.000 C 
ATOM      4  C   UNL     1       2.187   6.806  19.685  0.00  0.00    +0.000 C 
ATOM      5  C   UNL     1       2.413   7.330  18.264  0.00  0.00    +0.000 C 
ATOM      6  C   UNL     1       3.912   7.357  17.928  0.00  0.00    +0.000 C 
ENDROOT
BRANCH   5   7
ATOM      7  C   UNL     1       1.848   8.738  18.079  0.00  0.00    +0.000 C 
ATOM      8  O   UNL     1       2.101   9.433  17.099  0.00  0.00    +0.000 OA
ATOM      9  N   UNL     1       1.015   9.187  19.090  0.00  0.00    +0.000 N 
ATOM     10  H   UNL     1       0.652   8.504  19.748  0.00  0.00    +0.000 HD
BRANCH   9  11
ATOM     11  C   UNL     1       0.418  10.522  19.007  0.00  0.00    +0.000 C 
ATOM     12  C   UNL     1       1.323  11.596  19.616  0.00  0.00    +0.000 C 
ATOM     13  C   UNL     1       1.107  11.551  21.118  0.00  0.00    +0.000 C 
ATOM     14  S   UNL     1      -0.644  11.294  21.312  0.00  0.00    +0.000 S 
ATOM     15  O   UNL     1      -1.283  12.590  21.401  0.00  0.00    +0.000 OA
ATOM     16  O   UNL     1      -0.838  10.262  22.308  0.00  0.00    +0.000 OA
ATOM     17  C   UNL     1      -0.949  10.613  19.692  0.00  0.00    +0.000 C 
ENDBRANCH   9  11
ENDBRANCH   5   7
BRANCH   1  18
ATOM     18  S   UNL     1       6.269   6.103  17.774  0.00  0.00    +0.000 S 
ATOM     19  O   UNL     1       7.000   5.375  18.795  0.00  0.00    +0.000 OA
ATOM     20  O   UNL     1       6.609   7.465  17.425  0.00  0.00    +0.000 OA
BRANCH  18  24
ATOM     21  C   UNL     1       6.280   3.657  13.917  0.00  0.00    +0.000 A 
ATOM     22  C   UNL     1       5.497   3.284  15.012  0.00  0.00    +0.000 A 
ATOM     23  C   UNL     1       5.512   4.034  16.187  0.00  0.00    +0.000 A 
ATOM     24  C   UNL     1       6.319   5.166  16.270  0.00  0.00    +0.000 A 
ATOM     25  C   UNL     1       7.109   5.561  15.188  0.00  0.00    +0.000 A 
ATOM     26  C   UNL     1       7.097   4.792  14.016  0.00  0.00    +0.000 A 
BRANCH  21  29
ATOM     27  C   UNL     1       5.256   2.863  11.804  0.00  0.00    +0.000 C 
ATOM     28  O   UNL     1       4.180   3.441  11.850  0.00  0.00    +0.000 OA
ATOM     29  N   UNL     1       6.283   2.934  12.710  0.00  0.00    +0.000 N 
ATOM     30  H   UNL     1       7.134   2.482  12.411  0.00  0.00    +0.000 HD
BRANCH  27  32
ATOM     31  C   UNL     1       6.356   0.903  11.203  0.00  0.00    +0.000 C 
ATOM     32  O   UNL     1       5.627   2.056  10.772  0.00  0.00    +0.000 OA
ENDBRANCH  27  32
ENDBRANCH  21  29
ENDBRANCH  18  24
ENDBRANCH   1  18
TORSDOF 6
ENDMDL
MODEL 8
REMARK VINA RESULT:      -7.3      4.092      6.222
REMARK  Name = 
REMARK  7 active torsions:
REMARK  status: ('A' for Active; 'I' for Inactive)
REMARK    1  A    between atoms: C_1  and  O_2
REMARK    2  A    between atoms: O_2  and  C_3
REMARK    3  A    between atoms: N_5  and  C_6
REMARK    4  A    between atoms: C_9  and  S_10
REMARK    5  A    between atoms: S_10  and  N_13
REMARK    6  A    between atoms: C_17  and  C_18
REMARK    7  A    between atoms: N_20  and  C_21
REMARK                            x       y       z     vdW  Elec       q    Type
REMARK                         _______ _______ _______ _____ _____    ______ ____
ROOT
ATOM      1  N   UNL     1       0.477  10.582  20.170  0.00  0.00    +0.000 NA
ATOM      2  C   UNL     1      -0.255   9.945  21.301  0.00  0.00    +0.000 C 
ATOM      3  C   UNL     1       0.627   8.923  22.004  0.00  0.00    +0.000 C 
ATOM      4  C   UNL     1       1.129   7.863  21.031  0.00  0.00    +0.000 C 
ATOM      5  C   UNL     1       1.900   8.517  19.881  0.00  0.00    +0.000 C 
ATOM      6  C   UNL     1       1.043   9.593  19.197  0.00  0.00    +0.000 C 
ENDROOT
BRANCH   5   7
ATOM      7  C   UNL     1       2.329   7.495  18.828  0.00  0.00    +0.000 C 
ATOM      8  O   UNL     1       2.579   7.802  17.666  0.00  0.00    +0.000 OA
ATOM      9  N   UNL     1       2.430   6.187  19.269  0.00  0.00    +0.000 N 
ATOM     10  H   UNL     1       2.445   6.021  20.271  0.00  0.00    +0.000 HD
BRANCH   9  11
ATOM     11  C   UNL     1       2.837   5.130  18.340  0.00  0.00    +0.000 C 
ATOM     12  C   UNL     1       1.639   4.345  17.799  0.00  0.00    +0.000 C 
ATOM     13  C   UNL     1       1.272   3.323  18.859  0.00  0.00    +0.000 C 
ATOM     14  S   UNL     1       2.834   2.734  19.476  0.00  0.00    +0.000 S 
ATOM     15  O   UNL     1       3.220   1.577  18.695  0.00  0.00    +0.000 OA
ATOM     16  O   UNL     1       2.765   2.707  20.921  0.00  0.00    +0.000 OA
ATOM     17  C   UNL     1       3.817   4.130  18.959  0.00  0.00    +0.000 C 
ENDBRANCH   9  11
ENDBRANCH   5   7
BRANCH   1  18
ATOM     18  S   UNL     1      -0.462  11.797  19.359  0.00  0.00    +0.000 S 
ATOM     19  O   UNL     1      -1.427  12.317  20.312  0.00  0.00    +0.000 OA
ATOM     20  O   UNL     1      -0.873  11.279  18.073  0.00  0.00    +0.000 OA
BRANCH  18  24
ATOM     21  C   UNL     1       2.607  15.101  18.633  0.00  0.00    +0.000 A 
ATOM     22  C   UNL     1       1.348  15.383  19.171  0.00  0.00    +0.000 A 
ATOM     23  C   UNL     1       0.417  14.366  19.377  0.00  0.00    +0.000 A 
ATOM     24  C   UNL     1       0.745  13.055  19.039  0.00  0.00    +0.000 A 
ATOM     25  C   UNL     1       1.997  12.748  18.503  0.00  0.00    +0.000 A 
ATOM     26  C   UNL     1       2.921  13.779  18.287  0.00  0.00    +0.000 A 
BRANCH  21  29
ATOM     27  C   UNL     1       4.637  16.384  19.245  0.00  0.00    +0.000 C 
ATOM     28  O   UNL     1       4.959  15.808  20.274  0.00  0.00    +0.000 OA
ATOM     29  N   UNL     1       3.578  16.097  18.423  0.00  0.00    +0.000 N 
ATOM     30  H   UNL     1       3.573  16.611  17.555  0.00  0.00    +0.000 HD
BRANCH  27  32
ATOM     31  C   UNL     1       6.759  17.244  18.830  0.00  0.00    +0.000 C 
ATOM     32  O   UNL     1       5.344  17.421  18.715  0.00  0.00    +0.000 OA
ENDBRANCH  27  32
ENDBRANCH  21  29
ENDBRANCH  18  24
ENDBRANCH   1  18
TORSDOF 6
ENDMDL
MODEL 9
REMARK VINA RESULT:      -7.3      1.467      1.847
REMARK  Name = 
REMARK  7 active torsions:
REMARK  status: ('A' for Active; 'I' for Inactive)
REMARK    1  A    between atoms: C_1  and  O_2
REMARK    2  A    between atoms: O_2  and  C_3
REMARK    3  A    between atoms: N_5  and  C_6
REMARK    4  A    between atoms: C_9  and  S_10
REMARK    5  A    between atoms: S_10  and  N_13
REMARK    6  A    between atoms: C_17  and  C_18
REMARK    7  A    between atoms: N_20  and  C_21
REMARK                            x       y       z     vdW  Elec       q    Type
REMARK                         _______ _______ _______ _____ _____    ______ ____
ROOT
ATOM      1  N   UNL     1       0.833   9.118  20.041  0.00  0.00    +0.000 NA
ATOM      2  C   UNL     1       1.549  10.167  19.260  0.00  0.00    +0.000 C 
ATOM      3  C   UNL     1       1.891   9.660  17.866  0.00  0.00    +0.000 C 
ATOM      4  C   UNL     1       2.722   8.384  17.930  0.00  0.00    +0.000 C 
ATOM      5  C   UNL     1       1.976   7.300  18.713  0.00  0.00    +0.000 C 
ATOM      6  C   UNL     1       1.574   7.817  20.103  0.00  0.00    +0.000 C 
ENDROOT
BRANCH   5   7
ATOM      7  C   UNL     1       2.823   6.039  18.891  0.00  0.00    +0.000 C 
ATOM      8  O   UNL     1       2.494   5.114  19.627  0.00  0.00    +0.000 OA
ATOM      9  N   UNL     1       3.995   5.998  18.154  0.00  0.00    +0.000 N 
ATOM     10  H   UNL     1       4.106   6.663  17.395  0.00  0.00    +0.000 HD
BRANCH   9  11
ATOM     11  C   UNL     1       4.877   4.832  18.249  0.00  0.00    +0.000 C 
ATOM     12  C   UNL     1       5.945   5.004  19.332  0.00  0.00    +0.000 C 
ATOM     13  C   UNL     1       7.055   5.841  18.723  0.00  0.00    +0.000 C 
ATOM     14  S   UNL     1       7.212   5.236  17.057  0.00  0.00    +0.000 S 
ATOM     15  O   UNL     1       8.199   4.177  17.052  0.00  0.00    +0.000 OA
ATOM     16  O   UNL     1       7.292   6.377  16.171  0.00  0.00    +0.000 OA
ATOM     17  C   UNL     1       5.589   4.508  16.932  0.00  0.00    +0.000 C 
ENDBRANCH   9  11
ENDBRANCH   5   7
BRANCH   1  18
ATOM     18  S   UNL     1       0.371   9.656  21.626  0.00  0.00    +0.000 S 
ATOM     19  O   UNL     1       1.583  10.028  22.335  0.00  0.00    +0.000 OA
ATOM     20  O   UNL     1      -0.568   8.707  22.180  0.00  0.00    +0.000 OA
BRANCH  18  24
ATOM     21  C   UNL     1      -2.079  13.388  20.658  0.00  0.00    +0.000 A 
ATOM     22  C   UNL     1      -2.103  12.265  19.826  0.00  0.00    +0.000 A 
ATOM     23  C   UNL     1      -1.342  11.138  20.128  0.00  0.00    +0.000 A 
ATOM     24  C   UNL     1      -0.545  11.131  21.270  0.00  0.00    +0.000 A 
ATOM     25  C   UNL     1      -0.506  12.239  22.119  0.00  0.00    +0.000 A 
ATOM     26  C   UNL     1      -1.265  13.374  21.800  0.00  0.00    +0.000 A 
BRANCH  21  29
ATOM     27  C   UNL     1      -4.081  14.827  20.909  0.00  0.00    +0.000 C 
ATOM     28  O   UNL     1      -4.724  14.171  21.716  0.00  0.00    +0.000 OA
ATOM     29  N   UNL     1      -2.843  14.539  20.395  0.00  0.00    +0.000 N 
ATOM     30  H   UNL     1      -2.436  15.283  19.847  0.00  0.00    +0.000 HD
BRANCH  27  32
ATOM     31  C   UNL     1      -4.011  17.140  21.154  0.00  0.00    +0.000 C 
ATOM     32  O   UNL     1      -4.504  16.022  20.411  0.00  0.00    +0.000 OA
ENDBRANCH  27  32
ENDBRANCH  21  29
ENDBRANCH  18  24
ENDBRANCH   1  18
TORSDOF 6
ENDMDL
