MODEL 1
REMARK VINA RESULT:      -8.1      0.000      0.000
REMARK  Name = 
REMARK  7 active torsions:
REMARK  status: ('A' for Active; 'I' for Inactive)
REMARK    1  A    between atoms: C_2  and  C_3
REMARK    2  A    between atoms: C_3  and  S_4
REMARK    3  A    between atoms: S_4  and  C_5
REMARK    4  A    between atoms: N_9  and  C_10
REMARK    5  A    between atoms: N_13  and  C_14
REMARK    6  A    between atoms: C_16  and  S_17
REMARK    7  A    between atoms: S_17  and  N_20
REMARK                            x       y       z     vdW  Elec       q    Type
REMARK                         _______ _______ _______ _____ _____    ______ ____
ROOT
ATOM      1  C   UNL     1       2.854   5.703  18.720  0.00  0.00    +0.000 A 
ATOM      2  C   UNL     1       3.818   6.094  17.785  0.00  0.00    +0.000 A 
ATOM      3  C   UNL     1       4.386   5.162  16.908  0.00  0.00    +0.000 A 
ATOM      4  C   UNL     1       4.098   3.803  17.043  0.00  0.00    +0.000 A 
ATOM      5  C   UNL     1       3.123   3.399  17.956  0.00  0.00    +0.000 A 
ATOM      6  C   UNL     1       2.475   4.348  18.756  0.00  0.00    +0.000 A 
ATOM      7 CL   UNL     1       1.187   3.809  19.777  0.00  0.00    +0.000 Cl
ENDROOT
BRANCH   1  10
ATOM      8  O   UNL     1       1.717   8.398  18.323  0.00  0.00    +0.000 OA
ATOM      9  C   UNL     1       1.912   7.907  19.436  0.00  0.00    +0.000 C 
ATOM     10  N   UNL     1       2.303   6.602  19.669  0.00  0.00    +0.000 N 
ATOM     11  H   UNL     1       2.154   6.217  20.601  0.00  0.00    +0.000 HD
BRANCH   9  12
ATOM     12  C   UNL     1       1.745   8.758  20.688  0.00  0.00    +0.000 C 
BRANCH  12  13
ATOM     13  S   UNL     1       0.087   8.509  21.395  0.00  0.00    +0.000 S 
BRANCH  13  14
ATOM     14  C   UNL     1      -0.277  10.140  21.830  0.00  0.00    +0.000 A 
ATOM     15  N   UNL     1      -0.247  10.623  23.052  0.00  0.00    +0.000 NA
ATOM     16  N   UNL     1      -0.579  11.949  22.938  0.00  0.00    +0.000 NA
ATOM     17  N   UNL     1      -0.818  12.277  21.675  0.00  0.00    +0.000 NA
ATOM     18  N   UNL     1      -0.643  11.142  20.969  0.00  0.00    +0.000 N 
BRANCH  18  19
ATOM     19  C   UNL     1      -0.849  11.063  19.538  0.00  0.00    +0.000 C 
ATOM     20  C   UNL     1      -2.149  11.541  18.900  0.00  0.00    +0.000 C 
ATOM     21  C   UNL     1      -0.901  12.325  18.688  0.00  0.00    +0.000 C 
ENDBRANCH  18  19
ENDBRANCH  13  14
ENDBRANCH  12  13
ENDBRANCH   9  12
ENDBRANCH   1  10
BRANCH   3  22
ATOM     22  S   UNL     1       5.526   5.722  15.647  0.00  0.00    +0.000 S 
ATOM     23  O   UNL     1       5.599   4.671  14.651  0.00  0.00    +0.000 OA
ATOM     24  O   UNL     1       5.127   7.067  15.291  0.00  0.00    +0.000 OA
BRANCH  22  25
ATOM     25  N   UNL     1       7.013   5.829  16.440  0.00  0.00    +0.000 NA
ATOM     26  C   UNL     1       7.517   4.709  17.251  0.00  0.00    +0.000 C 
ATOM     27  C   UNL     1       7.490   5.238  18.673  0.00  0.00    +0.000 C 
ATOM     28  C   UNL     1       7.801   6.718  18.524  0.00  0.00    +0.000 C 
ATOM     29  C   UNL     1       7.392   7.094  17.100  0.00  0.00    +0.000 C 
ENDBRANCH  22  25
ENDBRANCH   3  22
TORSDOF 7
ENDMDL
MODEL 2
REMARK VINA RESULT:      -7.9      1.226      1.525
REMARK  Name = 
REMARK  7 active torsions:
REMARK  status: ('A' for Active; 'I' for Inactive)
REMARK    1  A    between atoms: C_2  and  C_3
REMARK    2  A    between atoms: C_3  and  S_4
REMARK    3  A    between atoms: S_4  and  C_5
REMARK    4  A    between atoms: N_9  and  C_10
REMARK    5  A    between atoms: N_13  and  C_14
REMARK    6  A    between atoms: C_16  and  S_17
REMARK    7  A    between atoms: S_17  and  N_20
REMARK                            x       y       z     vdW  Elec       q    Type
REMARK                         _______ _______ _______ _____ _____    ______ ____
ROOT
ATOM      1  C   UNL     1       2.863   6.114  18.683  0.00  0.00    +0.000 A 
ATOM      2  C   UNL     1       3.865   6.306  17.725  0.00  0.00    +0.000 A 
ATOM      3  C   UNL     1       4.512   5.213  17.136  0.00  0.00    +0.000 A 
ATOM      4  C   UNL     1       4.261   3.917  17.591  0.00  0.00    +0.000 A 
ATOM      5  C   UNL     1       3.250   3.707  18.530  0.00  0.00    +0.000 A 
ATOM      6  C   UNL     1       2.527   4.794  19.038  0.00  0.00    +0.000 A 
ATOM      7 CL   UNL     1       1.202   4.466  20.100  0.00  0.00    +0.000 Cl
ENDROOT
BRANCH   1  10
ATOM      8  O   UNL     1       1.622   8.551  17.571  0.00  0.00    +0.000 OA
ATOM      9  C   UNL     1       1.791   8.372  18.779  0.00  0.00    +0.000 C 
ATOM     10  N   UNL     1       2.230   7.194  19.352  0.00  0.00    +0.000 N 
ATOM     11  H   UNL     1       2.059   7.052  20.347  0.00  0.00    +0.000 HD
BRANCH   9  12
ATOM     12  C   UNL     1       1.531   9.503  19.764  0.00  0.00    +0.000 C 
BRANCH  12  13
ATOM     13  S   UNL     1       1.170  11.044  18.865  0.00  0.00    +0.000 S 
BRANCH  13  14
ATOM     14  C   UNL     1      -0.285  11.503  19.673  0.00  0.00    +0.000 A 
ATOM     15  N   UNL     1      -0.396  11.731  20.963  0.00  0.00    +0.000 NA
ATOM     16  N   UNL     1      -1.705  12.086  21.169  0.00  0.00    +0.000 NA
ATOM     17  N   UNL     1      -2.390  12.070  20.033  0.00  0.00    +0.000 NA
ATOM     18  N   UNL     1      -1.510  11.692  19.086  0.00  0.00    +0.000 N 
BRANCH  18  19
ATOM     19  C   UNL     1      -1.873  11.512  17.695  0.00  0.00    +0.000 C 
ATOM     20  C   UNL     1      -2.261  10.141  17.152  0.00  0.00    +0.000 C 
ATOM     21  C   UNL     1      -3.308  11.190  17.301  0.00  0.00    +0.000 C 
ENDBRANCH  18  19
ENDBRANCH  13  14
ENDBRANCH  12  13
ENDBRANCH   9  12
ENDBRANCH   1  10
BRANCH   3  22
ATOM     22  S   UNL     1       5.702   5.495  15.830  0.00  0.00    +0.000 S 
ATOM     23  O   UNL     1       5.754   4.280  15.040  0.00  0.00    +0.000 OA
ATOM     24  O   UNL     1       5.366   6.768  15.227  0.00  0.00    +0.000 OA
BRANCH  22  25
ATOM     25  N   UNL     1       7.174   5.689  16.634  0.00  0.00    +0.000 NA
ATOM     26  C   UNL     1       7.633   4.692  17.615  0.00  0.00    +0.000 C 
ATOM     27  C   UNL     1       7.588   5.427  18.941  0.00  0.00    +0.000 C 
ATOM     28  C   UNL     1       7.939   6.862  18.582  0.00  0.00    +0.000 C 
ATOM     29  C   UNL     1       7.569   7.030  17.109  0.00  0.00    +0.000 C 
ENDBRANCH  22  25
ENDBRANCH   3  22
TORSDOF 7
ENDMDL
MODEL 3
REMARK VINA RESULT:      -7.9      1.251      1.340
REMARK  Name = 
REMARK  7 active torsions:
REMARK  status: ('A' for Active; 'I' for Inactive)
REMARK    1  A    between atoms: C_2  and  C_3
REMARK    2  A    between atoms: C_3  and  S_4
REMARK    3  A    between atoms: S_4  and  C_5
REMARK    4  A    between atoms: N_9  and  C_10
REMARK    5  A    between atoms: N_13  and  C_14
REMARK    6  A    between atoms: C_16  and  S_17
REMARK    7  A    between atoms: S_17  and  N_20
REMARK                            x       y       z     vdW  Elec       q    Type
REMARK                         _______ _______ _______ _____ _____    ______ ____
ROOT
ATOM      1  C   UNL     1       2.900   6.248  18.720  0.00  0.00    +0.000 A 
ATOM      2  C   UNL     1       3.882   6.406  17.735  0.00  0.00    +0.000 A 
ATOM      3  C   UNL     1       4.482   5.291  17.137  0.00  0.00    +0.000 A 
ATOM      4  C   UNL     1       4.208   4.007  17.608  0.00  0.00    +0.000 A 
ATOM      5  C   UNL     1       3.217   3.830  18.575  0.00  0.00    +0.000 A 
ATOM      6  C   UNL     1       2.538   4.941  19.094  0.00  0.00    +0.000 A 
ATOM      7 CL   UNL     1       1.233   4.657  20.193  0.00  0.00    +0.000 Cl
ENDROOT
BRANCH   1  10
ATOM      8  O   UNL     1       1.401   8.547  17.633  0.00  0.00    +0.000 OA
ATOM      9  C   UNL     1       1.744   8.465  18.814  0.00  0.00    +0.000 C 
ATOM     10  N   UNL     1       2.316   7.349  19.397  0.00  0.00    +0.000 N 
ATOM     11  H   UNL     1       2.292   7.275  20.413  0.00  0.00    +0.000 HD
BRANCH   9  12
ATOM     12  C   UNL     1       1.570   9.655  19.747  0.00  0.00    +0.000 C 
BRANCH  12  13
ATOM     13  S   UNL     1      -0.133  10.288  19.639  0.00  0.00    +0.000 S 
BRANCH  13  14
ATOM     14  C   UNL     1      -0.413  10.621  21.310  0.00  0.00    +0.000 A 
ATOM     15  N   UNL     1       0.064   9.916  22.313  0.00  0.00    +0.000 NA
ATOM     16  N   UNL     1      -0.382  10.539  23.452  0.00  0.00    +0.000 NA
ATOM     17  N   UNL     1      -1.124  11.600  23.159  0.00  0.00    +0.000 NA
ATOM     18  N   UNL     1      -1.161  11.654  21.813  0.00  0.00    +0.000 N 
BRANCH  18  19
ATOM     19  C   UNL     1      -1.909  12.656  21.084  0.00  0.00    +0.000 C 
ATOM     20  C   UNL     1      -3.434  12.677  21.110  0.00  0.00    +0.000 C 
ATOM     21  C   UNL     1      -2.678  13.744  21.821  0.00  0.00    +0.000 C 
ENDBRANCH  18  19
ENDBRANCH  13  14
ENDBRANCH  12  13
ENDBRANCH   9  12
ENDBRANCH   1  10
BRANCH   3  22
ATOM     22  S   UNL     1       5.645   5.532  15.798  0.00  0.00    +0.000 S 
ATOM     23  O   UNL     1       5.670   4.298  15.038  0.00  0.00    +0.000 OA
ATOM     24  O   UNL     1       5.305   6.792  15.172  0.00  0.00    +0.000 OA
BRANCH  22  25
ATOM     25  N   UNL     1       7.136   5.733  16.564  0.00  0.00    +0.000 NA
ATOM     26  C   UNL     1       7.664   4.699  17.469  0.00  0.00    +0.000 C 
ATOM     27  C   UNL     1       7.639   5.354  18.837  0.00  0.00    +0.000 C 
ATOM     28  C   UNL     1       7.926   6.819  18.553  0.00  0.00    +0.000 C 
ATOM     29  C   UNL     1       7.500   7.058  17.104  0.00  0.00    +0.000 C 
ENDBRANCH  22  25
ENDBRANCH   3  22
TORSDOF 7
ENDMDL
MODEL 4
REMARK VINA RESULT:      -7.9      5.142      7.757
REMARK  Name = 
REMARK  7 active torsions:
REMARK  status: ('A' for Active; 'I' for Inactive)
REMARK    1  A    between atoms: C_2  and  C_3
REMARK    2  A    between atoms: C_3  and  S_4
REMARK    3  A    between atoms: S_4  and  C_5
REMARK    4  A    between atoms: N_9  and  C_10
REMARK    5  A    between atoms: N_13  and  C_14
REMARK    6  A    between atoms: C_16  and  S_17
REMARK    7  A    between atoms: S_17  and  N_20
REMARK                            x       y       z     vdW  Elec       q    Type
REMARK                         _______ _______ _______ _____ _____    ______ ____
ROOT
ATOM      1  C   UNL     1       5.932   6.407  16.821  0.00  0.00    +0.000 A 
ATOM      2  C   UNL     1       4.758   6.413  17.582  0.00  0.00    +0.000 A 
ATOM      3  C   UNL     1       3.882   5.321  17.558  0.00  0.00    +0.000 A 
ATOM      4  C   UNL     1       4.099   4.265  16.672  0.00  0.00    +0.000 A 
ATOM      5  C   UNL     1       5.275   4.233  15.922  0.00  0.00    +0.000 A 
ATOM      6  C   UNL     1       6.205   5.275  16.031  0.00  0.00    +0.000 A 
ATOM      7 CL   UNL     1       7.703   5.123  15.178  0.00  0.00    +0.000 Cl
ENDROOT
BRANCH   1  10
ATOM      8  O   UNL     1       8.156   7.140  18.620  0.00  0.00    +0.000 OA
ATOM      9  C   UNL     1       7.746   7.877  17.721  0.00  0.00    +0.000 C 
ATOM     10  N   UNL     1       6.812   7.519  16.767  0.00  0.00    +0.000 N 
ATOM     11  H   UNL     1       6.759   8.076  15.915  0.00  0.00    +0.000 HD
BRANCH   9  12
ATOM     12  C   UNL     1       8.255   9.307  17.611  0.00  0.00    +0.000 C 
BRANCH  12  13
ATOM     13  S   UNL     1       9.035   9.814  19.175  0.00  0.00    +0.000 S 
BRANCH  13  14
ATOM     14  C   UNL     1       9.770  11.287  18.656  0.00  0.00    +0.000 A 
ATOM     15  N   UNL     1      10.523  11.422  17.586  0.00  0.00    +0.000 NA
ATOM     16  N   UNL     1      10.874  12.747  17.541  0.00  0.00    +0.000 NA
ATOM     17  N   UNL     1      10.356  13.415  18.564  0.00  0.00    +0.000 NA
ATOM     18  N   UNL     1       9.670  12.503  19.280  0.00  0.00    +0.000 N 
BRANCH  18  19
ATOM     19  C   UNL     1       8.981  12.823  20.513  0.00  0.00    +0.000 C 
ATOM     20  C   UNL     1       9.609  12.520  21.870  0.00  0.00    +0.000 C 
ATOM     21  C   UNL     1       9.487  13.935  21.422  0.00  0.00    +0.000 C 
ENDBRANCH  18  19
ENDBRANCH  13  14
ENDBRANCH  12  13
ENDBRANCH   9  12
ENDBRANCH   1  10
BRANCH   3  22
ATOM     22  S   UNL     1       2.453   5.316  18.635  0.00  0.00    +0.000 S 
ATOM     23  O   UNL     1       2.274   6.678  19.101  0.00  0.00    +0.000 OA
ATOM     24  O   UNL     1       1.399   4.621  17.927  0.00  0.00    +0.000 OA
BRANCH  22  25
ATOM     25  N   UNL     1       2.910   4.347  19.940  0.00  0.00    +0.000 NA
ATOM     26  C   UNL     1       3.269   2.933  19.740  0.00  0.00    +0.000 C 
ATOM     27  C   UNL     1       2.160   2.167  20.435  0.00  0.00    +0.000 C 
ATOM     28  C   UNL     1       1.778   3.050  21.611  0.00  0.00    +0.000 C 
ATOM     29  C   UNL     1       2.188   4.470  21.222  0.00  0.00    +0.000 C 
ENDBRANCH  22  25
ENDBRANCH   3  22
TORSDOF 7
ENDMDL
MODEL 5
REMARK VINA RESULT:      -7.8      2.819      4.349
REMARK  Name = 
REMARK  7 active torsions:
REMARK  status: ('A' for Active; 'I' for Inactive)
REMARK    1  A    between atoms: C_2  and  C_3
REMARK    2  A    between atoms: C_3  and  S_4
REMARK    3  A    between atoms: S_4  and  C_5
REMARK    4  A    between atoms: N_9  and  C_10
REMARK    5  A    between atoms: N_13  and  C_14
REMARK    6  A    between atoms: C_16  and  S_17
REMARK    7  A    between atoms: S_17  and  N_20
REMARK                            x       y       z     vdW  Elec       q    Type
REMARK                         _______ _______ _______ _____ _____    ______ ____
ROOT
ATOM      1  C   UNL     1       4.183   6.317  17.575  0.00  0.00    +0.000 A 
ATOM      2  C   UNL     1       3.386   5.175  17.711  0.00  0.00    +0.000 A 
ATOM      3  C   UNL     1       3.958   3.897  17.706  0.00  0.00    +0.000 A 
ATOM      4  C   UNL     1       5.317   3.736  17.432  0.00  0.00    +0.000 A 
ATOM      5  C   UNL     1       6.129   4.865  17.315  0.00  0.00    +0.000 A 
ATOM      6  C   UNL     1       5.572   6.145  17.431  0.00  0.00    +0.000 A 
ATOM      7 CL   UNL     1       6.641   7.505  17.407  0.00  0.00    +0.000 Cl
ENDROOT
BRANCH   1  10
ATOM      8  O   UNL     1       2.170   7.608  19.307  0.00  0.00    +0.000 OA
ATOM      9  C   UNL     1       2.594   8.121  18.270  0.00  0.00    +0.000 C 
ATOM     10  N   UNL     1       3.636   7.625  17.509  0.00  0.00    +0.000 N 
ATOM     11  H   UNL     1       4.094   8.258  16.854  0.00  0.00    +0.000 HD
BRANCH   9  12
ATOM     12  C   UNL     1       1.950   9.388  17.723  0.00  0.00    +0.000 C 
BRANCH  12  13
ATOM     13  S   UNL     1       0.329   9.651  18.506  0.00  0.00    +0.000 S 
BRANCH  13  14
ATOM     14  C   UNL     1       0.747  10.927  19.590  0.00  0.00    +0.000 A 
ATOM     15  N   UNL     1       0.940  12.182  19.246  0.00  0.00    +0.000 NA
ATOM     16  N   UNL     1       1.228  12.849  20.410  0.00  0.00    +0.000 NA
ATOM     17  N   UNL     1       1.221  12.024  21.449  0.00  0.00    +0.000 NA
ATOM     18  N   UNL     1       0.932  10.809  20.944  0.00  0.00    +0.000 N 
BRANCH  18  19
ATOM     19  C   UNL     1       0.867   9.611  21.755  0.00  0.00    +0.000 C 
ATOM     20  C   UNL     1       0.056   9.575  23.046  0.00  0.00    +0.000 C 
ATOM     21  C   UNL     1      -0.424   8.812  21.861  0.00  0.00    +0.000 C 
ENDBRANCH  18  19
ENDBRANCH  13  14
ENDBRANCH  12  13
ENDBRANCH   9  12
ENDBRANCH   1  10
BRANCH   3  22
ATOM     22  S   UNL     1       2.922   2.468  18.002  0.00  0.00    +0.000 S 
ATOM     23  O   UNL     1       1.792   2.577  17.100  0.00  0.00    +0.000 OA
ATOM     24  O   UNL     1       3.791   1.311  17.979  0.00  0.00    +0.000 OA
BRANCH  22  25
ATOM     25  N   UNL     1       2.378   2.662  19.588  0.00  0.00    +0.000 NA
ATOM     26  C   UNL     1       0.971   2.995  19.867  0.00  0.00    +0.000 C 
ATOM     27  C   UNL     1       1.028   4.401  20.435  0.00  0.00    +0.000 C 
ATOM     28  C   UNL     1       2.341   4.440  21.199  0.00  0.00    +0.000 C 
ATOM     29  C   UNL     1       3.230   3.370  20.565  0.00  0.00    +0.000 C 
ENDBRANCH  22  25
ENDBRANCH   3  22
TORSDOF 7
ENDMDL
MODEL 6
REMARK VINA RESULT:      -7.8      2.977      4.332
REMARK  Name = 
REMARK  7 active torsions:
REMARK  status: ('A' for Active; 'I' for Inactive)
REMARK    1  A    between atoms: C_2  and  C_3
REMARK    2  A    between atoms: C_3  and  S_4
REMARK    3  A    between atoms: S_4  and  C_5
REMARK    4  A    between atoms: N_9  and  C_10
REMARK    5  A    between atoms: N_13  and  C_14
REMARK    6  A    between atoms: C_16  and  S_17
REMARK    7  A    between atoms: S_17  and  N_20
REMARK                            x       y       z     vdW  Elec       q    Type
REMARK                         _______ _______ _______ _____ _____    ______ ____
ROOT
ATOM      1  C   UNL     1       3.865   6.172  17.688  0.00  0.00    +0.000 A 
ATOM      2  C   UNL     1       3.144   4.984  17.848  0.00  0.00    +0.000 A 
ATOM      3  C   UNL     1       3.780   3.740  17.747  0.00  0.00    +0.000 A 
ATOM      4  C   UNL     1       5.116   3.664  17.352  0.00  0.00    +0.000 A 
ATOM      5  C   UNL     1       5.855   4.839  17.209  0.00  0.00    +0.000 A 
ATOM      6  C   UNL     1       5.243   6.082  17.420  0.00  0.00    +0.000 A 
ATOM      7 CL   UNL     1       6.234   7.499  17.355  0.00  0.00    +0.000 Cl
ENDROOT
BRANCH   1  10
ATOM      8  O   UNL     1       2.358   7.487  19.860  0.00  0.00    +0.000 OA
ATOM      9  C   UNL     1       2.438   7.949  18.720  0.00  0.00    +0.000 C 
ATOM     10  N   UNL     1       3.247   7.449  17.717  0.00  0.00    +0.000 N 
ATOM     11  H   UNL     1       3.462   8.057  16.928  0.00  0.00    +0.000 HD
BRANCH   9  12
ATOM     12  C   UNL     1       1.593   9.150  18.320  0.00  0.00    +0.000 C 
BRANCH  12  13
ATOM     13  S   UNL     1       0.555   9.677  19.720  0.00  0.00    +0.000 S 
BRANCH  13  14
ATOM     14  C   UNL     1      -0.153  11.090  19.025  0.00  0.00    +0.000 A 
ATOM     15  N   UNL     1       0.131  12.327  19.369  0.00  0.00    +0.000 NA
ATOM     16  N   UNL     1      -0.635  13.126  18.558  0.00  0.00    +0.000 NA
ATOM     17  N   UNL     1      -1.382  12.399  17.736  0.00  0.00    +0.000 NA
ATOM     18  N   UNL     1      -1.096  11.115  18.030  0.00  0.00    +0.000 N 
BRANCH  18  19
ATOM     19  C   UNL     1      -1.738   9.994  17.376  0.00  0.00    +0.000 C 
ATOM     20  C   UNL     1      -3.213   9.685  17.605  0.00  0.00    +0.000 C 
ATOM     21  C   UNL     1      -2.776  10.218  16.285  0.00  0.00    +0.000 C 
ENDBRANCH  18  19
ENDBRANCH  13  14
ENDBRANCH  12  13
ENDBRANCH   9  12
ENDBRANCH   1  10
BRANCH   3  22
ATOM     22  S   UNL     1       2.849   2.248  18.077  0.00  0.00    +0.000 S 
ATOM     23  O   UNL     1       1.722   2.247  17.164  0.00  0.00    +0.000 OA
ATOM     24  O   UNL     1       3.802   1.158  18.094  0.00  0.00    +0.000 OA
BRANCH  22  25
ATOM     25  N   UNL     1       2.277   2.445  19.653  0.00  0.00    +0.000 NA
ATOM     26  C   UNL     1       0.892   2.875  19.904  0.00  0.00    +0.000 C 
ATOM     27  C   UNL     1       1.036   4.259  20.507  0.00  0.00    +0.000 C 
ATOM     28  C   UNL     1       2.327   4.184  21.305  0.00  0.00    +0.000 C 
ATOM     29  C   UNL     1       3.152   3.066  20.668  0.00  0.00    +0.000 C 
ENDBRANCH  22  25
ENDBRANCH   3  22
TORSDOF 7
ENDMDL
MODEL 7
REMARK VINA RESULT:      -7.7      2.385      8.273
REMARK  Name = 
REMARK  7 active torsions:
REMARK  status: ('A' for Active; 'I' for Inactive)
REMARK    1  A    between atoms: C_2  and  C_3
REMARK    2  A    between atoms: C_3  and  S_4
REMARK    3  A    between atoms: S_4  and  C_5
REMARK    4  A    between atoms: N_9  and  C_10
REMARK    5  A    between atoms: N_13  and  C_14
REMARK    6  A    between atoms: C_16  and  S_17
REMARK    7  A    between atoms: S_17  and  N_20
REMARK                            x       y       z     vdW  Elec       q    Type
REMARK                         _______ _______ _______ _____ _____    ______ ____
ROOT
ATOM      1  C   UNL     1       2.431   6.796  18.953  0.00  0.00    +0.000 A 
ATOM      2  C   UNL     1       2.096   8.078  18.505  0.00  0.00    +0.000 A 
ATOM      3  C   UNL     1       1.427   8.978  19.344  0.00  0.00    +0.000 A 
ATOM      4  C   UNL     1       0.966   8.564  20.595  0.00  0.00    +0.000 A 
ATOM      5  C   UNL     1       1.310   7.296  21.064  0.00  0.00    +0.000 A 
ATOM      6  C   UNL     1       2.075   6.436  20.265  0.00  0.00    +0.000 A 
ATOM      7 CL   UNL     1       2.582   4.928  20.945  0.00  0.00    +0.000 Cl
ENDROOT
BRANCH   1  10
ATOM      8  O   UNL     1       1.251   4.473  17.565  0.00  0.00    +0.000 OA
ATOM      9  C   UNL     1       2.464   4.689  17.604  0.00  0.00    +0.000 C 
ATOM     10  N   UNL     1       3.049   5.833  18.113  0.00  0.00    +0.000 N 
ATOM     11  H   UNL     1       4.008   6.043  17.840  0.00  0.00    +0.000 HD
BRANCH   9  12
ATOM     12  C   UNL     1       3.445   3.646  17.086  0.00  0.00    +0.000 C 
BRANCH  12  13
ATOM     13  S   UNL     1       5.044   3.815  17.939  0.00  0.00    +0.000 S 
BRANCH  13  14
ATOM     14  C   UNL     1       5.997   4.411  16.629  0.00  0.00    +0.000 A 
ATOM     15  N   UNL     1       6.219   3.772  15.501  0.00  0.00    +0.000 NA
ATOM     16  N   UNL     1       6.999   4.610  14.745  0.00  0.00    +0.000 NA
ATOM     17  N   UNL     1       7.260   5.738  15.393  0.00  0.00    +0.000 NA
ATOM     18  N   UNL     1       6.645   5.618  16.586  0.00  0.00    +0.000 N 
BRANCH  18  19
ATOM     19  C   UNL     1       6.719   6.632  17.618  0.00  0.00    +0.000 C 
ATOM     20  C   UNL     1       7.898   6.693  18.582  0.00  0.00    +0.000 C 
ATOM     21  C   UNL     1       7.752   7.747  17.541  0.00  0.00    +0.000 C 
ENDBRANCH  18  19
ENDBRANCH  13  14
ENDBRANCH  12  13
ENDBRANCH   9  12
ENDBRANCH   1  10
BRANCH   3  22
ATOM     22  S   UNL     1       1.123  10.648  18.778  0.00  0.00    +0.000 S 
ATOM     23  O   UNL     1       2.305  11.066  18.050  0.00  0.00    +0.000 OA
ATOM     24  O   UNL     1      -0.182  10.645  18.150  0.00  0.00    +0.000 OA
BRANCH  22  25
ATOM     25  N   UNL     1       1.001  11.559  20.194  0.00  0.00    +0.000 NA
ATOM     26  C   UNL     1      -0.313  11.852  20.791  0.00  0.00    +0.000 C 
ATOM     27  C   UNL     1      -0.474  13.350  20.620  0.00  0.00    +0.000 C 
ATOM     28  C   UNL     1       0.940  13.893  20.749  0.00  0.00    +0.000 C 
ATOM     29  C   UNL     1       1.870  12.740  20.373  0.00  0.00    +0.000 C 
ENDBRANCH  22  25
ENDBRANCH   3  22
TORSDOF 7
ENDMDL
MODEL 8
REMARK VINA RESULT:      -7.7      2.134      2.962
REMARK  Name = 
REMARK  7 active torsions:
REMARK  status: ('A' for Active; 'I' for Inactive)
REMARK    1  A    between atoms: C_2  and  C_3
REMARK    2  A    between atoms: C_3  and  S_4
REMARK    3  A    between atoms: S_4  and  C_5
REMARK    4  A    between atoms: N_9  and  C_10
REMARK    5  A    between atoms: N_13  and  C_14
REMARK    6  A    between atoms: C_16  and  S_17
REMARK    7  A    between atoms: S_17  and  N_20
REMARK                            x       y       z     vdW  Elec       q    Type
REMARK                         _______ _______ _______ _____ _____    ______ ____
ROOT
ATOM      1  C   UNL     1       3.273   5.683  18.155  0.00  0.00    +0.000 A 
ATOM      2  C   UNL     1       4.529   5.996  17.625  0.00  0.00    +0.000 A 
ATOM      3  C   UNL     1       5.328   5.006  17.040  0.00  0.00    +0.000 A 
ATOM      4  C   UNL     1       4.941   3.666  17.097  0.00  0.00    +0.000 A 
ATOM      5  C   UNL     1       3.682   3.339  17.604  0.00  0.00    +0.000 A 
ATOM      6  C   UNL     1       2.837   4.346  18.087  0.00  0.00    +0.000 A 
ATOM      7 CL   UNL     1       1.241   3.902  18.584  0.00  0.00    +0.000 Cl
ENDROOT
BRANCH   1  10
ATOM      8  O   UNL     1       2.464   8.384  17.280  0.00  0.00    +0.000 OA
ATOM      9  C   UNL     1       2.234   7.945  18.409  0.00  0.00    +0.000 C 
ATOM     10  N   UNL     1       2.462   6.643  18.814  0.00  0.00    +0.000 N 
ATOM     11  H   UNL     1       1.980   6.310  19.648  0.00  0.00    +0.000 HD
BRANCH   9  12
ATOM     12  C   UNL     1       1.675   8.861  19.488  0.00  0.00    +0.000 C 
BRANCH  12  13
ATOM     13  S   UNL     1       0.694  10.193  18.729  0.00  0.00    +0.000 S 
BRANCH  13  14
ATOM     14  C   UNL     1       0.928  11.423  19.917  0.00  0.00    +0.000 A 
ATOM     15  N   UNL     1       1.783  12.418  19.819  0.00  0.00    +0.000 NA
ATOM     16  N   UNL     1       1.625  13.160  20.962  0.00  0.00    +0.000 NA
ATOM     17  N   UNL     1       0.699  12.632  21.753  0.00  0.00    +0.000 NA
ATOM     18  N   UNL     1       0.263  11.530  21.111  0.00  0.00    +0.000 N 
BRANCH  18  19
ATOM     19  C   UNL     1      -0.735  10.638  21.663  0.00  0.00    +0.000 C 
ATOM     20  C   UNL     1      -0.339   9.472  22.563  0.00  0.00    +0.000 C 
ATOM     21  C   UNL     1      -1.043  10.642  23.154  0.00  0.00    +0.000 C 
ENDBRANCH  18  19
ENDBRANCH  13  14
ENDBRANCH  12  13
ENDBRANCH   9  12
ENDBRANCH   1  10
BRANCH   3  22
ATOM     22  S   UNL     1       6.875   5.466  16.267  0.00  0.00    +0.000 S 
ATOM     23  O   UNL     1       7.162   6.825  16.682  0.00  0.00    +0.000 OA
ATOM     24  O   UNL     1       7.807   4.389  16.525  0.00  0.00    +0.000 OA
BRANCH  22  25
ATOM     25  N   UNL     1       6.538   5.459  14.612  0.00  0.00    +0.000 NA
ATOM     26  C   UNL     1       5.310   4.832  14.095  0.00  0.00    +0.000 C 
ATOM     27  C   UNL     1       5.807   3.634  13.309  0.00  0.00    +0.000 C 
ATOM     28  C   UNL     1       7.136   4.093  12.732  0.00  0.00    +0.000 C 
ATOM     29  C   UNL     1       7.632   5.209  13.652  0.00  0.00    +0.000 C 
ENDBRANCH  22  25
ENDBRANCH   3  22
TORSDOF 7
ENDMDL
MODEL 9
REMARK VINA RESULT:      -7.7      1.192      1.371
REMARK  Name = 
REMARK  7 active torsions:
REMARK  status: ('A' for Active; 'I' for Inactive)
REMARK    1  A    between atoms: C_2  and  C_3
REMARK    2  A    between atoms: C_3  and  S_4
REMARK    3  A    between atoms: S_4  and  C_5
REMARK    4  A    between atoms: N_9  and  C_10
REMARK    5  A    between atoms: N_13  and  C_14
REMARK    6  A    between atoms: C_16  and  S_17
REMARK    7  A    between atoms: S_17  and  N_20
REMARK                            x       y       z     vdW  Elec       q    Type
REMARK                         _______ _______ _______ _____ _____    ______ ____
ROOT
ATOM      1  C   UNL     1       2.885   5.792  18.443  0.00  0.00    +0.000 A 
ATOM      2  C   UNL     1       3.900   6.104  17.531  0.00  0.00    +0.000 A 
ATOM      3  C   UNL     1       4.473   5.111  16.728  0.00  0.00    +0.000 A 
ATOM      4  C   UNL     1       4.134   3.770  16.918  0.00  0.00    +0.000 A 
ATOM      5  C   UNL     1       3.110   3.444  17.807  0.00  0.00    +0.000 A 
ATOM      6  C   UNL     1       2.460   4.453  18.530  0.00  0.00    +0.000 A 
ATOM      7 CL   UNL     1       1.113   4.008  19.520  0.00  0.00    +0.000 Cl
ENDROOT
BRANCH   1  10
ATOM      8  O   UNL     1       1.511   8.330  17.824  0.00  0.00    +0.000 OA
ATOM      9  C   UNL     1       1.816   7.991  18.970  0.00  0.00    +0.000 C 
ATOM     10  N   UNL     1       2.326   6.755  19.320  0.00  0.00    +0.000 N 
ATOM     11  H   UNL     1       2.269   6.475  20.299  0.00  0.00    +0.000 HD
BRANCH   9  12
ATOM     12  C   UNL     1       1.662   8.971  20.125  0.00  0.00    +0.000 C 
BRANCH  12  13
ATOM     13  S   UNL     1       0.436  10.247  19.702  0.00  0.00    +0.000 S 
BRANCH  13  14
ATOM     14  C   UNL     1      -0.048  10.706  21.294  0.00  0.00    +0.000 A 
ATOM     15  N   UNL     1      -0.237   9.878  22.298  0.00  0.00    +0.000 NA
ATOM     16  N   UNL     1      -0.588  10.661  23.368  0.00  0.00    +0.000 NA
ATOM     17  N   UNL     1      -0.623  11.945  23.032  0.00  0.00    +0.000 NA
ATOM     18  N   UNL     1      -0.297  11.984  21.725  0.00  0.00    +0.000 N 
BRANCH  18  19
ATOM     19  C   UNL     1      -0.259  13.211  20.957  0.00  0.00    +0.000 C 
ATOM     20  C   UNL     1       0.368  14.479  21.527  0.00  0.00    +0.000 C 
ATOM     21  C   UNL     1       1.059  13.756  20.424  0.00  0.00    +0.000 C 
ENDBRANCH  18  19
ENDBRANCH  13  14
ENDBRANCH  12  13
ENDBRANCH   9  12
ENDBRANCH   1  10
BRANCH   3  22
ATOM     22  S   UNL     1       5.683   5.570  15.492  0.00  0.00    +0.000 S 
ATOM     23  O   UNL     1       5.813   4.439  14.593  0.00  0.00    +0.000 OA
ATOM     24  O   UNL     1       5.304   6.878  15.002  0.00  0.00    +0.000 OA
BRANCH  22  25
ATOM     25  N   UNL     1       7.123   5.750  16.355  0.00  0.00    +0.000 NA
ATOM     26  C   UNL     1       7.631   4.662  17.208  0.00  0.00    +0.000 C 
ATOM     27  C   UNL     1       7.511   5.208  18.618  0.00  0.00    +0.000 C 
ATOM     28  C   UNL     1       7.767   6.698  18.463  0.00  0.00    +0.000 C 
ATOM     29  C   UNL     1       7.415   7.038  17.015  0.00  0.00    +0.000 C 
ENDBRANCH  22  25
ENDBRANCH   3  22
TORSDOF 7
ENDMDL
