MODEL 1
REMARK VINA RESULT:      -8.3      0.000      0.000
REMARK  Name = 
REMARK  8 active torsions:
REMARK  status: ('A' for Active; 'I' for Inactive)
REMARK    1  A    between atoms: C_2  and  O_3
REMARK    2  A    between atoms: C_2  and  C_4
REMARK    3  A    between atoms: C_5  and  C_6
REMARK    4  A    between atoms: C_6  and  O_7
REMARK    5  A    between atoms: C_14  and  C_15
REMARK    6  A    between atoms: C_16  and  C_17
REMARK    7  A    between atoms: N_26  and  C_27
REMARK    8  A    between atoms: C_27  and  C_28
REMARK                            x       y       z     vdW  Elec       q    Type
REMARK                         _______ _______ _______ _____ _____    ______ ____
ROOT
ATOM      1  C   UNL     1       3.256   3.657  19.053  0.00  0.00    +0.000 C 
ATOM      2  C   UNL     1       3.836   2.943  17.808  0.00  0.00    +0.000 C 
ATOM      3  C   UNL     1       4.613   4.040  17.087  0.00  0.00    +0.000 C 
ATOM      4  C   UNL     1       6.007   4.279  17.700  0.00  0.00    +0.000 C 
ATOM      5  N   UNL     1       6.148   5.712  17.688  0.00  0.00    +0.000 N 
ATOM      6  C   UNL     1       4.963   6.340  17.400  0.00  0.00    +0.000 A 
ATOM      7  C   UNL     1       4.917   7.663  17.190  0.00  0.00    +0.000 A 
ATOM      8  C   UNL     1       6.117   8.434  17.408  0.00  0.00    +0.000 A 
ATOM      9  C   UNL     1       7.267   7.878  17.833  0.00  0.00    +0.000 A 
ATOM     10  C   UNL     1       7.336   6.375  17.948  0.00  0.00    +0.000 A 
ATOM     11  O   UNL     1       8.369   5.784  18.270  0.00  0.00    +0.000 OA
ATOM     12  C   UNL     1       3.847   5.342  17.379  0.00  0.00    +0.000 C 
ATOM     13  N   UNL     1       3.199   5.088  18.667  0.00  0.00    +0.000 NA
ENDROOT
BRANCH   1  15
ATOM     14  O   UNL     1       5.308   3.354  20.287  0.00  0.00    +0.000 OA
ATOM     15  C   UNL     1       4.090   3.190  20.260  0.00  0.00    +0.000 C 
BRANCH  15  16
ATOM     16  O   UNL     1       3.478   2.645  21.320  0.00  0.00    +0.000 OA
ATOM     17  H   UNL     1       3.990   2.606  22.137  0.00  0.00    +0.000 HD
ENDBRANCH  15  16
ENDBRANCH   1  15
BRANCH   9  18
ATOM     18  C   UNL     1       8.457   8.641  18.139  0.00  0.00    +0.000 C 
ATOM     19  C   UNL     1       8.491   9.976  18.280  0.00  0.00    +0.000 C 
BRANCH  19  20
ATOM     20  C   UNL     1       9.698  10.735  18.618  0.00  0.00    +0.000 A 
ATOM     21  C   UNL     1       9.972  10.987  19.969  0.00  0.00    +0.000 A 
ATOM     22  C   UNL     1      11.137  11.657  20.341  0.00  0.00    +0.000 A 
ATOM     23  C   UNL     1      12.039  12.079  19.367  0.00  0.00    +0.000 A 
ATOM     24  C   UNL     1      11.777  11.835  18.021  0.00  0.00    +0.000 A 
ATOM     25  C   UNL     1      10.614  11.158  17.648  0.00  0.00    +0.000 A 
ENDBRANCH  19  20
ENDBRANCH   9  18
BRANCH   2  26
ATOM     26  C   UNL     1       2.756   2.319  16.929  0.00  0.00    +0.000 C 
BRANCH  26  27
ATOM     27  O   UNL     1       1.727   1.763  17.740  0.00  0.00    +0.000 OA
ATOM     28  H   UNL     1       0.934   1.631  17.188  0.00  0.00    +0.000 HD
ENDBRANCH  26  27
ENDBRANCH   2  26
BRANCH  13  29
ATOM     29  C   UNL     1       3.042   6.147  19.647  0.00  0.00    +0.000 C 
BRANCH  29  30
ATOM     30  C   UNL     1       2.249   7.389  19.295  0.00  0.00    +0.000 A 
ATOM     31  C   UNL     1       1.984   7.809  17.976  0.00  0.00    +0.000 A 
ATOM     32  C   UNL     1       1.169   8.926  17.730  0.00  0.00    +0.000 A 
ATOM     33  C   UNL     1       0.644   9.607  18.807  0.00  0.00    +0.000 A 
ATOM     34  C   UNL     1       0.899   9.212  20.096  0.00  0.00    +0.000 A 
ATOM     35  C   UNL     1       1.679   8.111  20.369  0.00  0.00    +0.000 A 
ATOM     36  O   UNL     1       0.304  10.013  21.019  0.00  0.00    +0.000 OA
ATOM     37  C   UNL     1      -0.286  11.012  20.162  0.00  0.00    +0.000 C 
ATOM     38  O   UNL     1      -0.161  10.703  18.756  0.00  0.00    +0.000 OA
ENDBRANCH  29  30
ENDBRANCH  13  29
TORSDOF 8
ENDMDL
MODEL 2
REMARK VINA RESULT:      -8.1      5.946     10.626
REMARK  Name = 
REMARK  8 active torsions:
REMARK  status: ('A' for Active; 'I' for Inactive)
REMARK    1  A    between atoms: C_2  and  O_3
REMARK    2  A    between atoms: C_2  and  C_4
REMARK    3  A    between atoms: C_5  and  C_6
REMARK    4  A    between atoms: C_6  and  O_7
REMARK    5  A    between atoms: C_14  and  C_15
REMARK    6  A    between atoms: C_16  and  C_17
REMARK    7  A    between atoms: N_26  and  C_27
REMARK    8  A    between atoms: C_27  and  C_28
REMARK                            x       y       z     vdW  Elec       q    Type
REMARK                         _______ _______ _______ _____ _____    ______ ____
ROOT
ATOM      1  C   UNL     1       8.515  16.322  20.684  0.00  0.00    +0.000 C 
ATOM      2  C   UNL     1       9.282  16.734  19.404  0.00  0.00    +0.000 C 
ATOM      3  C   UNL     1       9.871  15.422  18.894  0.00  0.00    +0.000 C 
ATOM      4  C   UNL     1       8.848  14.580  18.106  0.00  0.00    +0.000 C 
ATOM      5  N   UNL     1       9.098  13.232  18.547  0.00  0.00    +0.000 N 
ATOM      6  C   UNL     1       9.927  13.198  19.639  0.00  0.00    +0.000 A 
ATOM      7  C   UNL     1      10.404  12.035  20.106  0.00  0.00    +0.000 A 
ATOM      8  C   UNL     1       9.918  10.809  19.520  0.00  0.00    +0.000 A 
ATOM      9  C   UNL     1       8.993  10.793  18.541  0.00  0.00    +0.000 A 
ATOM     10  C   UNL     1       8.558  12.109  17.945  0.00  0.00    +0.000 A 
ATOM     11  O   UNL     1       7.763  12.176  17.006  0.00  0.00    +0.000 OA
ATOM     12  C   UNL     1      10.156  14.586  20.153  0.00  0.00    +0.000 C 
ATOM     13  N   UNL     1       9.177  15.071  21.127  0.00  0.00    +0.000 NA
ENDROOT
BRANCH   1  15
ATOM     14  O   UNL     1       6.454  17.403  20.045  0.00  0.00    +0.000 OA
ATOM     15  C   UNL     1       7.017  16.348  20.329  0.00  0.00    +0.000 C 
BRANCH  15  16
ATOM     16  O   UNL     1       6.326  15.201  20.274  0.00  0.00    +0.000 OA
ATOM     17  H   UNL     1       6.009  14.933  19.404  0.00  0.00    +0.000 HD
ENDBRANCH  15  16
ENDBRANCH   1  15
BRANCH   9  18
ATOM     18  C   UNL     1       8.431   9.576  17.996  0.00  0.00    +0.000 C 
ATOM     19  C   UNL     1       8.417   8.393  18.629  0.00  0.00    +0.000 C 
BRANCH  19  20
ATOM     20  C   UNL     1       7.819   7.174  18.078  0.00  0.00    +0.000 A 
ATOM     21  C   UNL     1       8.006   5.968  18.767  0.00  0.00    +0.000 A 
ATOM     22  C   UNL     1       7.409   4.793  18.310  0.00  0.00    +0.000 A 
ATOM     23  C   UNL     1       6.618   4.813  17.164  0.00  0.00    +0.000 A 
ATOM     24  C   UNL     1       6.425   6.006  16.470  0.00  0.00    +0.000 A 
ATOM     25  C   UNL     1       7.017   7.184  16.931  0.00  0.00    +0.000 A 
ENDBRANCH  19  20
ENDBRANCH   9  18
BRANCH   2  26
ATOM     26  C   UNL     1      10.353  17.789  19.671  0.00  0.00    +0.000 C 
BRANCH  26  27
ATOM     27  O   UNL     1      10.513  17.976  21.073  0.00  0.00    +0.000 OA
ATOM     28  H   UNL     1      10.508  17.101  21.505  0.00  0.00    +0.000 HD
ENDBRANCH  26  27
ENDBRANCH   2  26
BRANCH  13  29
ATOM     29  C   UNL     1       8.563  14.169  22.084  0.00  0.00    +0.000 C 
BRANCH  29  30
ATOM     30  C   UNL     1       8.714  14.428  23.569  0.00  0.00    +0.000 A 
ATOM     31  C   UNL     1       9.349  15.564  24.112  0.00  0.00    +0.000 A 
ATOM     32  C   UNL     1       9.375  15.775  25.500  0.00  0.00    +0.000 A 
ATOM     33  C   UNL     1       8.776  14.840  26.319  0.00  0.00    +0.000 A 
ATOM     34  C   UNL     1       8.160  13.729  25.804  0.00  0.00    +0.000 A 
ATOM     35  C   UNL     1       8.103  13.503  24.447  0.00  0.00    +0.000 A 
ATOM     36  O   UNL     1       7.639  12.923  26.766  0.00  0.00    +0.000 OA
ATOM     37  C   UNL     1       8.075  13.614  27.955  0.00  0.00    +0.000 C 
ATOM     38  O   UNL     1       8.706  14.883  27.677  0.00  0.00    +0.000 OA
ENDBRANCH  29  30
ENDBRANCH  13  29
TORSDOF 8
ENDMDL
MODEL 3
REMARK VINA RESULT:      -8.1      5.866     10.203
REMARK  Name = 
REMARK  8 active torsions:
REMARK  status: ('A' for Active; 'I' for Inactive)
REMARK    1  A    between atoms: C_2  and  O_3
REMARK    2  A    between atoms: C_2  and  C_4
REMARK    3  A    between atoms: C_5  and  C_6
REMARK    4  A    between atoms: C_6  and  O_7
REMARK    5  A    between atoms: C_14  and  C_15
REMARK    6  A    between atoms: C_16  and  C_17
REMARK    7  A    between atoms: N_26  and  C_27
REMARK    8  A    between atoms: C_27  and  C_28
REMARK                            x       y       z     vdW  Elec       q    Type
REMARK                         _______ _______ _______ _____ _____    ______ ____
ROOT
ATOM      1  C   UNL     1      -0.786  14.230  20.234  0.00  0.00    +0.000 C 
ATOM      2  C   UNL     1       0.701  14.438  20.611  0.00  0.00    +0.000 C 
ATOM      3  C   UNL     1       1.086  13.136  21.307  0.00  0.00    +0.000 C 
ATOM      4  C   UNL     1       1.414  12.007  20.310  0.00  0.00    +0.000 C 
ATOM      5  N   UNL     1       0.804  10.842  20.897  0.00  0.00    +0.000 N 
ATOM      6  C   UNL     1      -0.028  11.169  21.937  0.00  0.00    +0.000 A 
ATOM      7  C   UNL     1      -0.569  10.219  22.712  0.00  0.00    +0.000 A 
ATOM      8  C   UNL     1      -0.368   8.838  22.346  0.00  0.00    +0.000 A 
ATOM      9  C   UNL     1       0.321   8.474  21.248  0.00  0.00    +0.000 A 
ATOM     10  C   UNL     1       1.026   9.548  20.455  0.00  0.00    +0.000 A 
ATOM     11  O   UNL     1       1.726   9.292  19.475  0.00  0.00    +0.000 OA
ATOM     12  C   UNL     1      -0.194  12.655  22.011  0.00  0.00    +0.000 C 
ATOM     13  N   UNL     1      -1.275  13.215  21.198  0.00  0.00    +0.000 NA
ENDROOT
BRANCH   1  15
ATOM     14  O   UNL     1      -0.144  14.644  17.945  0.00  0.00    +0.000 OA
ATOM     15  C   UNL     1      -0.826  13.973  18.717  0.00  0.00    +0.000 C 
BRANCH  15  16
ATOM     16  O   UNL     1      -1.569  12.970  18.231  0.00  0.00    +0.000 OA
ATOM     17  H   UNL     1      -1.089  12.225  17.851  0.00  0.00    +0.000 HD
ENDBRANCH  15  16
ENDBRANCH   1  15
BRANCH   9  18
ATOM     18  C   UNL     1       0.465   7.101  20.815  0.00  0.00    +0.000 C 
ATOM     19  C   UNL     1       1.628   6.433  20.774  0.00  0.00    +0.000 C 
BRANCH  19  20
ATOM     20  C   UNL     1       1.757   5.032  20.361  0.00  0.00    +0.000 A 
ATOM     21  C   UNL     1       1.888   4.749  18.995  0.00  0.00    +0.000 A 
ATOM     22  C   UNL     1       2.068   3.437  18.559  0.00  0.00    +0.000 A 
ATOM     23  C   UNL     1       2.123   2.397  19.484  0.00  0.00    +0.000 A 
ATOM     24  C   UNL     1       1.994   2.666  20.844  0.00  0.00    +0.000 A 
ATOM     25  C   UNL     1       1.820   3.980  21.282  0.00  0.00    +0.000 A 
ENDBRANCH  19  20
ENDBRANCH   9  18
BRANCH   2  26
ATOM     26  C   UNL     1       0.919  15.661  21.500  0.00  0.00    +0.000 C 
BRANCH  26  27
ATOM     27  O   UNL     1      -0.334  16.178  21.933  0.00  0.00    +0.000 OA
ATOM     28  H   UNL     1      -0.703  16.733  21.221  0.00  0.00    +0.000 HD
ENDBRANCH  26  27
ENDBRANCH   2  26
BRANCH  13  29
ATOM     29  C   UNL     1      -2.509  12.480  20.988  0.00  0.00    +0.000 C 
BRANCH  29  30
ATOM     30  C   UNL     1      -3.622  12.567  22.013  0.00  0.00    +0.000 A 
ATOM     31  C   UNL     1      -3.413  12.567  23.407  0.00  0.00    +0.000 A 
ATOM     32  C   UNL     1      -4.490  12.734  24.293  0.00  0.00    +0.000 A 
ATOM     33  C   UNL     1      -5.756  12.887  23.768  0.00  0.00    +0.000 A 
ATOM     34  C   UNL     1      -5.973  12.883  22.414  0.00  0.00    +0.000 A 
ATOM     35  C   UNL     1      -4.936  12.739  21.520  0.00  0.00    +0.000 A 
ATOM     36  O   UNL     1      -7.284  13.036  22.091  0.00  0.00    +0.000 OA
ATOM     37  C   UNL     1      -7.880  13.050  23.404  0.00  0.00    +0.000 C 
ATOM     38  O   UNL     1      -6.906  13.060  24.472  0.00  0.00    +0.000 OA
ENDBRANCH  29  30
ENDBRANCH  13  29
TORSDOF 8
ENDMDL
MODEL 4
REMARK VINA RESULT:      -8.1      5.446      9.469
REMARK  Name = 
REMARK  8 active torsions:
REMARK  status: ('A' for Active; 'I' for Inactive)
REMARK    1  A    between atoms: C_2  and  O_3
REMARK    2  A    between atoms: C_2  and  C_4
REMARK    3  A    between atoms: C_5  and  C_6
REMARK    4  A    between atoms: C_6  and  O_7
REMARK    5  A    between atoms: C_14  and  C_15
REMARK    6  A    between atoms: C_16  and  C_17
REMARK    7  A    between atoms: N_26  and  C_27
REMARK    8  A    between atoms: C_27  and  C_28
REMARK                            x       y       z     vdW  Elec       q    Type
REMARK                         _______ _______ _______ _____ _____    ______ ____
ROOT
ATOM      1  C   UNL     1      -0.964  13.231  19.496  0.00  0.00    +0.000 C 
ATOM      2  C   UNL     1       0.471  13.619  19.062  0.00  0.00    +0.000 C 
ATOM      3  C   UNL     1       1.343  12.523  19.667  0.00  0.00    +0.000 C 
ATOM      4  C   UNL     1       1.348  11.236  18.819  0.00  0.00    +0.000 C 
ATOM      5  N   UNL     1       1.283  10.179  19.795  0.00  0.00    +0.000 N 
ATOM      6  C   UNL     1       0.990  10.658  21.047  0.00  0.00    +0.000 A 
ATOM      7  C   UNL     1       1.036   9.856  22.120  0.00  0.00    +0.000 A 
ATOM      8  C   UNL     1       1.266   8.446  21.914  0.00  0.00    +0.000 A 
ATOM      9  C   UNL     1       1.414   7.910  20.687  0.00  0.00    +0.000 A 
ATOM     10  C   UNL     1       1.481   8.841  19.501  0.00  0.00    +0.000 A 
ATOM     11  O   UNL     1       1.676   8.435  18.355  0.00  0.00    +0.000 OA
ATOM     12  C   UNL     1       0.637  12.111  20.970  0.00  0.00    +0.000 C 
ATOM     13  N   UNL     1      -0.774  12.409  20.715  0.00  0.00    +0.000 NA
ENDROOT
BRANCH   1  15
ATOM     14  O   UNL     1      -2.743  12.081  18.341  0.00  0.00    +0.000 OA
ATOM     15  C   UNL     1      -1.663  12.659  18.249  0.00  0.00    +0.000 C 
BRANCH  15  16
ATOM     16  O   UNL     1      -1.116  12.838  17.039  0.00  0.00    +0.000 OA
ATOM     17  H   UNL     1      -1.535  13.496  16.472  0.00  0.00    +0.000 HD
ENDBRANCH  15  16
ENDBRANCH   1  15
BRANCH   9  18
ATOM     18  C   UNL     1       1.562   6.490  20.451  0.00  0.00    +0.000 C 
ATOM     19  C   UNL     1       2.540   5.939  19.716  0.00  0.00    +0.000 C 
BRANCH  19  20
ATOM     20  C   UNL     1       2.696   4.496  19.506  0.00  0.00    +0.000 A 
ATOM     21  C   UNL     1       1.691   3.641  19.978  0.00  0.00    +0.000 A 
ATOM     22  C   UNL     1       1.769   2.267  19.753  0.00  0.00    +0.000 A 
ATOM     23  C   UNL     1       2.850   1.736  19.052  0.00  0.00    +0.000 A 
ATOM     24  C   UNL     1       3.855   2.576  18.579  0.00  0.00    +0.000 A 
ATOM     25  C   UNL     1       3.774   3.953  18.798  0.00  0.00    +0.000 A 
ENDBRANCH  19  20
ENDBRANCH   9  18
BRANCH   2  26
ATOM     26  C   UNL     1       0.874  15.013  19.537  0.00  0.00    +0.000 C 
BRANCH  26  27
ATOM     27  O   UNL     1      -0.106  15.526  20.432  0.00  0.00    +0.000 OA
ATOM     28  H   UNL     1      -0.442  16.369  20.074  0.00  0.00    +0.000 HD
ENDBRANCH  26  27
ENDBRANCH   2  26
BRANCH  13  29
ATOM     29  C   UNL     1      -1.825  11.561  21.247  0.00  0.00    +0.000 C 
BRANCH  29  30
ATOM     30  C   UNL     1      -2.931  12.168  22.086  0.00  0.00    +0.000 A 
ATOM     31  C   UNL     1      -2.908  12.235  23.494  0.00  0.00    +0.000 A 
ATOM     32  C   UNL     1      -3.933  12.888  24.197  0.00  0.00    +0.000 A 
ATOM     33  C   UNL     1      -4.966  13.454  23.480  0.00  0.00    +0.000 A 
ATOM     34  C   UNL     1      -5.003  13.391  22.110  0.00  0.00    +0.000 A 
ATOM     35  C   UNL     1      -4.004  12.773  21.392  0.00  0.00    +0.000 A 
ATOM     36  O   UNL     1      -6.102  13.994  21.586  0.00  0.00    +0.000 OA
ATOM     37  C   UNL     1      -6.799  14.369  22.791  0.00  0.00    +0.000 C 
ATOM     38  O   UNL     1      -6.034  14.121  23.992  0.00  0.00    +0.000 OA
ENDBRANCH  29  30
ENDBRANCH  13  29
TORSDOF 8
ENDMDL
MODEL 5
REMARK VINA RESULT:      -8.0      6.054     10.995
REMARK  Name = 
REMARK  8 active torsions:
REMARK  status: ('A' for Active; 'I' for Inactive)
REMARK    1  A    between atoms: C_2  and  O_3
REMARK    2  A    between atoms: C_2  and  C_4
REMARK    3  A    between atoms: C_5  and  C_6
REMARK    4  A    between atoms: C_6  and  O_7
REMARK    5  A    between atoms: C_14  and  C_15
REMARK    6  A    between atoms: C_16  and  C_17
REMARK    7  A    between atoms: N_26  and  C_27
REMARK    8  A    between atoms: C_27  and  C_28
REMARK                            x       y       z     vdW  Elec       q    Type
REMARK                         _______ _______ _______ _____ _____    ______ ____
ROOT
ATOM      1  C   UNL     1       9.341  16.566  20.101  0.00  0.00    +0.000 C 
ATOM      2  C   UNL     1       9.991  16.782  18.712  0.00  0.00    +0.000 C 
ATOM      3  C   UNL     1      10.384  15.375  18.271  0.00  0.00    +0.000 C 
ATOM      4  C   UNL     1       9.198  14.586  17.683  0.00  0.00    +0.000 C 
ATOM      5  N   UNL     1       9.364  13.261  18.222  0.00  0.00    +0.000 N 
ATOM      6  C   UNL     1      10.307  13.229  19.218  0.00  0.00    +0.000 A 
ATOM      7  C   UNL     1      10.718  12.066  19.741  0.00  0.00    +0.000 A 
ATOM      8  C   UNL     1      10.049  10.855  19.331  0.00  0.00    +0.000 A 
ATOM      9  C   UNL     1       9.019  10.856  18.464  0.00  0.00    +0.000 A 
ATOM     10  C   UNL     1       8.649  12.156  17.793  0.00  0.00    +0.000 A 
ATOM     11  O   UNL     1       7.760  12.230  16.942  0.00  0.00    +0.000 OA
ATOM     12  C   UNL     1      10.730  14.623  19.567  0.00  0.00    +0.000 C 
ATOM     13  N   UNL     1       9.924  15.293  20.590  0.00  0.00    +0.000 NA
ENDROOT
BRANCH   1  15
ATOM     14  O   UNL     1       7.361  17.147  18.850  0.00  0.00    +0.000 OA
ATOM     15  C   UNL     1       7.822  16.725  19.908  0.00  0.00    +0.000 C 
BRANCH  15  16
ATOM     16  O   UNL     1       6.984  16.347  20.883  0.00  0.00    +0.000 OA
ATOM     17  H   UNL     1       6.344  17.005  21.177  0.00  0.00    +0.000 HD
ENDBRANCH  15  16
ENDBRANCH   1  15
BRANCH   9  18
ATOM     18  C   UNL     1       8.279   9.666  18.102  0.00  0.00    +0.000 C 
ATOM     19  C   UNL     1       8.586   8.425  18.512  0.00  0.00    +0.000 C 
BRANCH  19  20
ATOM     20  C   UNL     1       7.812   7.231  18.161  0.00  0.00    +0.000 A 
ATOM     21  C   UNL     1       6.990   7.277  17.028  0.00  0.00    +0.000 A 
ATOM     22  C   UNL     1       6.278   6.147  16.624  0.00  0.00    +0.000 A 
ATOM     23  C   UNL     1       6.384   4.962  17.348  0.00  0.00    +0.000 A 
ATOM     24  C   UNL     1       7.197   4.904  18.477  0.00  0.00    +0.000 A 
ATOM     25  C   UNL     1       7.916   6.032  18.878  0.00  0.00    +0.000 A 
ENDBRANCH  19  20
ENDBRANCH   9  18
BRANCH   2  26
ATOM     26  C   UNL     1      11.184  17.733  18.760  0.00  0.00    +0.000 C 
BRANCH  26  27
ATOM     27  O   UNL     1      11.613  18.045  17.440  0.00  0.00    +0.000 OA
ATOM     28  H   UNL     1      10.853  17.945  16.835  0.00  0.00    +0.000 HD
ENDBRANCH  26  27
ENDBRANCH   2  26
BRANCH  13  29
ATOM     29  C   UNL     1       9.340  14.547  21.689  0.00  0.00    +0.000 C 
BRANCH  29  30
ATOM     30  C   UNL     1       9.497  15.051  23.110  0.00  0.00    +0.000 A 
ATOM     31  C   UNL     1      10.441  16.021  23.504  0.00  0.00    +0.000 A 
ATOM     32  C   UNL     1      10.470  16.499  24.824  0.00  0.00    +0.000 A 
ATOM     33  C   UNL     1       9.560  15.989  25.727  0.00  0.00    +0.000 A 
ATOM     34  C   UNL     1       8.641  15.041  25.358  0.00  0.00    +0.000 A 
ATOM     35  C   UNL     1       8.577  14.567  24.067  0.00  0.00    +0.000 A 
ATOM     36  O   UNL     1       7.841  14.656  26.386  0.00  0.00    +0.000 OA
ATOM     37  C   UNL     1       8.421  15.410  27.470  0.00  0.00    +0.000 C 
ATOM     38  O   UNL     1       9.444  16.334  27.037  0.00  0.00    +0.000 OA
ENDBRANCH  29  30
ENDBRANCH  13  29
TORSDOF 8
ENDMDL
MODEL 6
REMARK VINA RESULT:      -8.0      4.682      9.401
REMARK  Name = 
REMARK  8 active torsions:
REMARK  status: ('A' for Active; 'I' for Inactive)
REMARK    1  A    between atoms: C_2  and  O_3
REMARK    2  A    between atoms: C_2  and  C_4
REMARK    3  A    between atoms: C_5  and  C_6
REMARK    4  A    between atoms: C_6  and  O_7
REMARK    5  A    between atoms: C_14  and  C_15
REMARK    6  A    between atoms: C_16  and  C_17
REMARK    7  A    between atoms: N_26  and  C_27
REMARK    8  A    between atoms: C_27  and  C_28
REMARK                            x       y       z     vdW  Elec       q    Type
REMARK                         _______ _______ _______ _____ _____    ______ ____
ROOT
ATOM      1  C   UNL     1       0.699  14.276  20.370  0.00  0.00    +0.000 C 
ATOM      2  C   UNL     1      -0.691  13.829  20.885  0.00  0.00    +0.000 C 
ATOM      3  C   UNL     1      -0.833  12.403  20.360  0.00  0.00    +0.000 C 
ATOM      4  C   UNL     1      -0.089  11.374  21.233  0.00  0.00    +0.000 C 
ATOM      5  N   UNL     1       0.511  10.480  20.277  0.00  0.00    +0.000 N 
ATOM      6  C   UNL     1       0.438  10.975  18.999  0.00  0.00    +0.000 A 
ATOM      7  C   UNL     1       0.800  10.226  17.949  0.00  0.00    +0.000 A 
ATOM      8  C   UNL     1       1.399   8.937  18.198  0.00  0.00    +0.000 A 
ATOM      9  C   UNL     1       1.623   8.473  19.442  0.00  0.00    +0.000 A 
ATOM     10  C   UNL     1       1.100   9.272  20.610  0.00  0.00    +0.000 A 
ATOM     11  O   UNL     1       1.210   8.887  21.775  0.00  0.00    +0.000 OA
ATOM     12  C   UNL     1      -0.071  12.383  19.024  0.00  0.00    +0.000 C 
ATOM     13  N   UNL     1       0.947  13.423  19.183  0.00  0.00    +0.000 NA
ENDROOT
BRANCH   1  15
ATOM     14  O   UNL     1       1.448  14.973  22.556  0.00  0.00    +0.000 OA
ATOM     15  C   UNL     1       1.648  14.251  21.582  0.00  0.00    +0.000 C 
BRANCH  15  16
ATOM     16  O   UNL     1       2.676  13.392  21.604  0.00  0.00    +0.000 OA
ATOM     17  H   UNL     1       3.338  13.533  22.291  0.00  0.00    +0.000 HD
ENDBRANCH  15  16
ENDBRANCH   1  15
BRANCH   9  18
ATOM     18  C   UNL     1       2.297   7.222  19.717  0.00  0.00    +0.000 C 
ATOM     19  C   UNL     1       2.213   6.127  18.947  0.00  0.00    +0.000 C 
BRANCH  19  20
ATOM     20  C   UNL     1       2.923   4.874  19.222  0.00  0.00    +0.000 A 
ATOM     21  C   UNL     1       4.167   4.664  18.612  0.00  0.00    +0.000 A 
ATOM     22  C   UNL     1       4.904   3.513  18.887  0.00  0.00    +0.000 A 
ATOM     23  C   UNL     1       4.406   2.562  19.775  0.00  0.00    +0.000 A 
ATOM     24  C   UNL     1       3.170   2.759  20.387  0.00  0.00    +0.000 A 
ATOM     25  C   UNL     1       2.435   3.915  20.117  0.00  0.00    +0.000 A 
ENDBRANCH  19  20
ENDBRANCH   9  18
BRANCH   2  26
ATOM     26  C   UNL     1      -1.819  14.741  20.408  0.00  0.00    +0.000 C 
BRANCH  26  27
ATOM     27  O   UNL     1      -1.355  15.581  19.358  0.00  0.00    +0.000 OA
ATOM     28  H   UNL     1      -0.845  16.316  19.750  0.00  0.00    +0.000 HD
ENDBRANCH  26  27
ENDBRANCH   2  26
BRANCH  13  29
ATOM     29  C   UNL     1       2.269  13.270  18.604  0.00  0.00    +0.000 C 
BRANCH  29  30
ATOM     30  C   UNL     1       3.187  14.471  18.494  0.00  0.00    +0.000 A 
ATOM     31  C   UNL     1       2.789  15.726  17.990  0.00  0.00    +0.000 A 
ATOM     32  C   UNL     1       3.675  16.815  17.997  0.00  0.00    +0.000 A 
ATOM     33  C   UNL     1       4.946  16.625  18.499  0.00  0.00    +0.000 A 
ATOM     34  C   UNL     1       5.347  15.408  18.987  0.00  0.00    +0.000 A 
ATOM     35  C   UNL     1       4.496  14.327  19.009  0.00  0.00    +0.000 A 
ATOM     36  O   UNL     1       6.633  15.416  19.427  0.00  0.00    +0.000 OA
ATOM     37  C   UNL     1       7.024  16.760  19.078  0.00  0.00    +0.000 C 
ATOM     38  O   UNL     1       5.928  17.562  18.585  0.00  0.00    +0.000 OA
ENDBRANCH  29  30
ENDBRANCH  13  29
TORSDOF 8
ENDMDL
MODEL 7
REMARK VINA RESULT:      -8.0      6.003     10.884
REMARK  Name = 
REMARK  8 active torsions:
REMARK  status: ('A' for Active; 'I' for Inactive)
REMARK    1  A    between atoms: C_2  and  O_3
REMARK    2  A    between atoms: C_2  and  C_4
REMARK    3  A    between atoms: C_5  and  C_6
REMARK    4  A    between atoms: C_6  and  O_7
REMARK    5  A    between atoms: C_14  and  C_15
REMARK    6  A    between atoms: C_16  and  C_17
REMARK    7  A    between atoms: N_26  and  C_27
REMARK    8  A    between atoms: C_27  and  C_28
REMARK                            x       y       z     vdW  Elec       q    Type
REMARK                         _______ _______ _______ _____ _____    ______ ____
ROOT
ATOM      1  C   UNL     1      -1.194  16.111  20.899  0.00  0.00    +0.000 C 
ATOM      2  C   UNL     1       0.205  16.368  21.510  0.00  0.00    +0.000 C 
ATOM      3  C   UNL     1       0.656  14.989  21.982  0.00  0.00    +0.000 C 
ATOM      4  C   UNL     1       1.226  14.129  20.837  0.00  0.00    +0.000 C 
ATOM      5  N   UNL     1       0.692  12.816  21.093  0.00  0.00    +0.000 N 
ATOM      6  C   UNL     1      -0.287  12.841  22.053  0.00  0.00    +0.000 A 
ATOM      7  C   UNL     1      -0.801  11.705  22.544  0.00  0.00    +0.000 A 
ATOM      8  C   UNL     1      -0.400  10.455  21.944  0.00  0.00    +0.000 A 
ATOM      9  C   UNL     1       0.450  10.394  20.901  0.00  0.00    +0.000 A 
ATOM     10  C   UNL     1       1.112  11.669  20.440  0.00  0.00    +0.000 A 
ATOM     11  O   UNL     1       1.947  11.689  19.534  0.00  0.00    +0.000 OA
ATOM     12  C   UNL     1      -0.633  14.258  22.395  0.00  0.00    +0.000 C 
ATOM     13  N   UNL     1      -1.670  14.876  21.568  0.00  0.00    +0.000 NA
ENDROOT
BRANCH   1  15
ATOM     14  O   UNL     1      -1.073  17.250  18.775  0.00  0.00    +0.000 OA
ATOM     15  C   UNL     1      -1.026  16.176  19.370  0.00  0.00    +0.000 C 
BRANCH  15  16
ATOM     16  O   UNL     1      -0.772  15.056  18.680  0.00  0.00    +0.000 OA
ATOM     17  H   UNL     1       0.139  14.741  18.694  0.00  0.00    +0.000 HD
ENDBRANCH  15  16
ENDBRANCH   1  15
BRANCH   9  18
ATOM     18  C   UNL     1       0.802   9.161  20.230  0.00  0.00    +0.000 C 
ATOM     19  C   UNL     1       1.643   8.239  20.723  0.00  0.00    +0.000 C 
BRANCH  19  20
ATOM     20  C   UNL     1       1.969   6.980  20.047  0.00  0.00    +0.000 A 
ATOM     21  C   UNL     1       1.670   5.776  20.697  0.00  0.00    +0.000 A 
ATOM     22  C   UNL     1       1.911   4.555  20.069  0.00  0.00    +0.000 A 
ATOM     23  C   UNL     1       2.451   4.526  18.785  0.00  0.00    +0.000 A 
ATOM     24  C   UNL     1       2.754   5.716  18.129  0.00  0.00    +0.000 A 
ATOM     25  C   UNL     1       2.506   6.940  18.754  0.00  0.00    +0.000 A 
ENDBRANCH  19  20
ENDBRANCH   9  18
BRANCH   2  26
ATOM     26  C   UNL     1       0.175  17.391  22.643  0.00  0.00    +0.000 C 
BRANCH  26  27
ATOM     27  O   UNL     1      -0.852  18.348  22.409  0.00  0.00    +0.000 OA
ATOM     28  H   UNL     1      -0.452  19.238  22.407  0.00  0.00    +0.000 HD
ENDBRANCH  26  27
ENDBRANCH   2  26
BRANCH  13  29
ATOM     29  C   UNL     1      -2.777  14.095  21.049  0.00  0.00    +0.000 C 
BRANCH  29  30
ATOM     30  C   UNL     1      -3.999  13.854  21.912  0.00  0.00    +0.000 A 
ATOM     31  C   UNL     1      -4.311  14.602  23.066  0.00  0.00    +0.000 A 
ATOM     32  C   UNL     1      -5.507  14.373  23.766  0.00  0.00    +0.000 A 
ATOM     33  C   UNL     1      -6.362  13.394  23.306  0.00  0.00    +0.000 A 
ATOM     34  C   UNL     1      -6.067  12.655  22.189  0.00  0.00    +0.000 A 
ATOM     35  C   UNL     1      -4.912  12.868  21.471  0.00  0.00    +0.000 A 
ATOM     36  O   UNL     1      -7.024  11.734  21.900  0.00  0.00    +0.000 OA
ATOM     37  C   UNL     1      -7.916  11.920  23.018  0.00  0.00    +0.000 C 
ATOM     38  O   UNL     1      -7.554  13.040  23.855  0.00  0.00    +0.000 OA
ENDBRANCH  29  30
ENDBRANCH  13  29
TORSDOF 8
ENDMDL
MODEL 8
REMARK VINA RESULT:      -8.0      5.680     10.209
REMARK  Name = 
REMARK  8 active torsions:
REMARK  status: ('A' for Active; 'I' for Inactive)
REMARK    1  A    between atoms: C_2  and  O_3
REMARK    2  A    between atoms: C_2  and  C_4
REMARK    3  A    between atoms: C_5  and  C_6
REMARK    4  A    between atoms: C_6  and  O_7
REMARK    5  A    between atoms: C_14  and  C_15
REMARK    6  A    between atoms: C_16  and  C_17
REMARK    7  A    between atoms: N_26  and  C_27
REMARK    8  A    between atoms: C_27  and  C_28
REMARK                            x       y       z     vdW  Elec       q    Type
REMARK                         _______ _______ _______ _____ _____    ______ ____
ROOT
ATOM      1  C   UNL     1       8.955  15.717  20.746  0.00  0.00    +0.000 C 
ATOM      2  C   UNL     1       9.827  16.043  19.509  0.00  0.00    +0.000 C 
ATOM      3  C   UNL     1      10.206  14.672  18.958  0.00  0.00    +0.000 C 
ATOM      4  C   UNL     1       9.085  14.047  18.103  0.00  0.00    +0.000 C 
ATOM      5  N   UNL     1       9.089  12.660  18.490  0.00  0.00    +0.000 N 
ATOM      6  C   UNL     1       9.859  12.442  19.604  0.00  0.00    +0.000 A 
ATOM      7  C   UNL     1      10.116  11.199  20.032  0.00  0.00    +0.000 A 
ATOM      8  C   UNL     1       9.454  10.097  19.377  0.00  0.00    +0.000 A 
ATOM      9  C   UNL     1       8.576  10.276  18.372  0.00  0.00    +0.000 A 
ATOM     10  C   UNL     1       8.390  11.669  17.822  0.00  0.00    +0.000 A 
ATOM     11  O   UNL     1       7.652  11.907  16.864  0.00  0.00    +0.000 OA
ATOM     12  C   UNL     1      10.299  13.750  20.186  0.00  0.00    +0.000 C 
ATOM     13  N   UNL     1       9.381  14.356  21.152  0.00  0.00    +0.000 NA
ENDROOT
BRANCH   1  15
ATOM     14  O   UNL     1       6.722  15.098  20.073  0.00  0.00    +0.000 OA
ATOM     15  C   UNL     1       7.497  16.011  20.348  0.00  0.00    +0.000 C 
BRANCH  15  16
ATOM     16  O   UNL     1       7.048  17.273  20.353  0.00  0.00    +0.000 OA
ATOM     17  H   UNL     1       7.672  17.950  20.638  0.00  0.00    +0.000 HD
ENDBRANCH  15  16
ENDBRANCH   1  15
BRANCH   9  18
ATOM     18  C   UNL     1       7.837   9.194  17.756  0.00  0.00    +0.000 C 
ATOM     19  C   UNL     1       7.909   7.909  18.137  0.00  0.00    +0.000 C 
BRANCH  19  20
ATOM     20  C   UNL     1       7.134   6.827  17.524  0.00  0.00    +0.000 A 
ATOM     21  C   UNL     1       7.589   5.511  17.676  0.00  0.00    +0.000 A 
ATOM     22  C   UNL     1       6.855   4.445  17.157  0.00  0.00    +0.000 A 
ATOM     23  C   UNL     1       5.659   4.683  16.485  0.00  0.00    +0.000 A 
ATOM     24  C   UNL     1       5.196   5.988  16.327  0.00  0.00    +0.000 A 
ATOM     25  C   UNL     1       5.927   7.056  16.852  0.00  0.00    +0.000 A 
ENDBRANCH  19  20
ENDBRANCH   9  18
BRANCH   2  26
ATOM     26  C   UNL     1      11.050  16.890  19.855  0.00  0.00    +0.000 C 
BRANCH  26  27
ATOM     27  O   UNL     1      10.639  18.132  20.416  0.00  0.00    +0.000 OA
ATOM     28  H   UNL     1      10.541  18.019  21.380  0.00  0.00    +0.000 HD
ENDBRANCH  26  27
ENDBRANCH   2  26
BRANCH  13  29
ATOM     29  C   UNL     1       8.589  13.534  22.048  0.00  0.00    +0.000 C 
BRANCH  29  30
ATOM     30  C   UNL     1       8.138  14.093  23.383  0.00  0.00    +0.000 A 
ATOM     31  C   UNL     1       8.899  14.988  24.162  0.00  0.00    +0.000 A 
ATOM     32  C   UNL     1       8.377  15.527  25.349  0.00  0.00    +0.000 A 
ATOM     33  C   UNL     1       7.109  15.152  25.739  0.00  0.00    +0.000 A 
ATOM     34  C   UNL     1       6.361  14.277  24.994  0.00  0.00    +0.000 A 
ATOM     35  C   UNL     1       6.838  13.746  23.817  0.00  0.00    +0.000 A 
ATOM     36  O   UNL     1       5.146  14.022  25.545  0.00  0.00    +0.000 OA
ATOM     37  C   UNL     1       5.249  14.772  26.773  0.00  0.00    +0.000 C 
ATOM     38  O   UNL     1       6.449  15.573  26.852  0.00  0.00    +0.000 OA
ENDBRANCH  29  30
ENDBRANCH  13  29
TORSDOF 8
ENDMDL
MODEL 9
REMARK VINA RESULT:      -8.0      5.481      9.864
REMARK  Name = 
REMARK  8 active torsions:
REMARK  status: ('A' for Active; 'I' for Inactive)
REMARK    1  A    between atoms: C_2  and  O_3
REMARK    2  A    between atoms: C_2  and  C_4
REMARK    3  A    between atoms: C_5  and  C_6
REMARK    4  A    between atoms: C_6  and  O_7
REMARK    5  A    between atoms: C_14  and  C_15
REMARK    6  A    between atoms: C_16  and  C_17
REMARK    7  A    between atoms: N_26  and  C_27
REMARK    8  A    between atoms: C_27  and  C_28
REMARK                            x       y       z     vdW  Elec       q    Type
REMARK                         _______ _______ _______ _____ _____    ______ ____
ROOT
ATOM      1  C   UNL     1       8.286  15.254  21.202  0.00  0.00    +0.000 C 
ATOM      2  C   UNL     1       9.184  15.774  20.053  0.00  0.00    +0.000 C 
ATOM      3  C   UNL     1       9.715  14.502  19.400  0.00  0.00    +0.000 C 
ATOM      4  C   UNL     1       8.701  13.867  18.428  0.00  0.00    +0.000 C 
ATOM      5  N   UNL     1       8.815  12.455  18.684  0.00  0.00    +0.000 N 
ATOM      6  C   UNL     1       9.546  12.198  19.816  0.00  0.00    +0.000 A 
ATOM      7  C   UNL     1       9.896  10.946  20.141  0.00  0.00    +0.000 A 
ATOM      8  C   UNL     1       9.372   9.859  19.349  0.00  0.00    +0.000 A 
ATOM      9  C   UNL     1       8.532  10.058  18.316  0.00  0.00    +0.000 A 
ATOM     10  C   UNL     1       8.245  11.476  17.888  0.00  0.00    +0.000 A 
ATOM     11  O   UNL     1       7.537  11.741  16.915  0.00  0.00    +0.000 OA
ATOM     12  C   UNL     1       9.833  13.476  20.541  0.00  0.00    +0.000 C 
ATOM     13  N   UNL     1       8.816  13.902  21.504  0.00  0.00    +0.000 NA
ENDROOT
BRANCH   1  15
ATOM     14  O   UNL     1       5.894  15.001  21.406  0.00  0.00    +0.000 OA
ATOM     15  C   UNL     1       6.828  15.455  20.749  0.00  0.00    +0.000 C 
BRANCH  15  16
ATOM     16  O   UNL     1       6.566  16.182  19.654  0.00  0.00    +0.000 OA
ATOM     17  H   UNL     1       5.635  16.326  19.448  0.00  0.00    +0.000 HD
ENDBRANCH  15  16
ENDBRANCH   1  15
BRANCH   9  18
ATOM     18  C   UNL     1       7.928   8.981  17.561  0.00  0.00    +0.000 C 
ATOM     19  C   UNL     1       7.670   7.758  18.051  0.00  0.00    +0.000 C 
BRANCH  19  20
ATOM     20  C   UNL     1       7.033   6.685  17.284  0.00  0.00    +0.000 A 
ATOM     21  C   UNL     1       5.827   6.960  16.626  0.00  0.00    +0.000 A 
ATOM     22  C   UNL     1       5.212   5.986  15.839  0.00  0.00    +0.000 A 
ATOM     23  C   UNL     1       5.799   4.730  15.700  0.00  0.00    +0.000 A 
ATOM     24  C   UNL     1       6.997   4.444  16.350  0.00  0.00    +0.000 A 
ATOM     25  C   UNL     1       7.617   5.421  17.133  0.00  0.00    +0.000 A 
ENDBRANCH  19  20
ENDBRANCH   9  18
BRANCH   2  26
ATOM     26  C   UNL     1      10.303  16.687  20.547  0.00  0.00    +0.000 C 
BRANCH  26  27
ATOM     27  O   UNL     1      10.359  16.666  21.969  0.00  0.00    +0.000 OA
ATOM     28  H   UNL     1       9.462  16.827  22.317  0.00  0.00    +0.000 HD
ENDBRANCH  26  27
ENDBRANCH   2  26
BRANCH  13  29
ATOM     29  C   UNL     1       8.060  12.930  22.273  0.00  0.00    +0.000 C 
BRANCH  29  30
ATOM     30  C   UNL     1       7.742  13.203  23.729  0.00  0.00    +0.000 A 
ATOM     31  C   UNL     1       8.612  13.871  24.616  0.00  0.00    +0.000 A 
ATOM     32  C   UNL     1       8.211  14.160  25.930  0.00  0.00    +0.000 A 
ATOM     33  C   UNL     1       6.952  13.768  26.335  0.00  0.00    +0.000 A 
ATOM     34  C   UNL     1       6.099  13.113  25.484  0.00  0.00    +0.000 A 
ATOM     35  C   UNL     1       6.457  12.831  24.185  0.00  0.00    +0.000 A 
ATOM     36  O   UNL     1       4.913  12.800  26.068  0.00  0.00    +0.000 OA
ATOM     37  C   UNL     1       5.151  13.258  27.415  0.00  0.00    +0.000 C 
ATOM     38  O   UNL     1       6.402  13.965  27.563  0.00  0.00    +0.000 OA
ENDBRANCH  29  30
ENDBRANCH  13  29
TORSDOF 8
ENDMDL
