MODEL 1
REMARK VINA RESULT:      -7.7      0.000      0.000
REMARK  Name = 
REMARK  5 active torsions:
REMARK  status: ('A' for Active; 'I' for Inactive)
REMARK    1  A    between atoms: C_2  and  C_3
REMARK    2  A    between atoms: C_3  and  C_4
REMARK    3  A    between atoms: C_4  and  C_5
REMARK    4  A    between atoms: N_10  and  C_11
REMARK    5  A    between atoms: C_23  and  C_24
REMARK                            x       y       z     vdW  Elec       q    Type
REMARK                         _______ _______ _______ _____ _____    ______ ____
ROOT
ATOM      1  C   UNL     1       1.168   9.489  17.949  0.00  0.00    +0.000 C 
ENDROOT
BRANCH   1   2
ATOM      2  C   UNL     1       1.459  10.910  18.405  0.00  0.00    +0.000 C 
ATOM      3  O   UNL     1       2.537  11.452  18.165  0.00  0.00    +0.000 OA
ATOM      4  N   UNL     1       0.423  11.577  19.059  0.00  0.00    +0.000 N 
ATOM      5  C   UNL     1       0.701  12.939  19.522  0.00  0.00    +0.000 C 
ATOM      6  C   UNL     1      -0.578  13.742  19.853  0.00  0.00    +0.000 C 
ATOM      7  N   UNL     1      -1.555  13.046  20.743  0.00  0.00    +0.000 NA
ATOM      8  C   UNL     1      -1.867  11.765  20.072  0.00  0.00    +0.000 C 
ATOM      9  C   UNL     1      -0.651  10.868  19.764  0.00  0.00    +0.000 C 
BRANCH   7  10
ATOM     10  C   UNL     1      -1.042  12.925  22.138  0.00  0.00    +0.000 C 
ATOM     11  C   UNL     1      -1.099  14.288  22.869  0.00  0.00    +0.000 C 
ATOM     12  C   UNL     1      -2.519  14.724  23.223  0.00  0.00    +0.000 C 
ATOM     13  C   UNL     1      -3.221  13.701  24.106  0.00  0.00    +0.000 C 
ATOM     14  C   UNL     1      -3.131  12.276  23.567  0.00  0.00    +0.000 C 
ATOM     15  C   UNL     1      -1.742  11.891  23.058  0.00  0.00    +0.000 C 
ENDBRANCH   7  10
ENDBRANCH   1   2
BRANCH   1  16
ATOM     16  C   UNL     1       2.439   8.659  17.809  0.00  0.00    +0.000 C 
BRANCH  16  18
ATOM     17  O   UNL     1       1.902   7.608  19.911  0.00  0.00    +0.000 OA
ATOM     18  C   UNL     1       2.501   7.541  18.836  0.00  0.00    +0.000 C 
ATOM     19  N   UNL     1       3.202   6.402  18.555  0.00  0.00    +0.000 N 
ATOM     20  C   UNL     1       4.017   6.222  17.476  0.00  0.00    +0.000 A 
ATOM     21  N   UNL     1       4.424   7.091  16.586  0.00  0.00    +0.000 NA
ATOM     22  N   UNL     1       5.235   6.517  15.634  0.00  0.00    +0.000 NA
ATOM     23  C   UNL     1       5.396   5.221  15.831  0.00  0.00    +0.000 A 
ATOM     24  S   UNL     1       4.599   4.636  17.250  0.00  0.00    +0.000 S 
ATOM     25  H   UNL     1       3.110   5.643  19.215  0.00  0.00    +0.000 HD
BRANCH  23  26
ATOM     26  C   UNL     1       6.159   4.293  14.950  0.00  0.00    +0.000 C 
ATOM     27  F   UNL     1       5.696   4.273  13.674  0.00  0.00    +0.000 F 
ATOM     28  F   UNL     1       7.478   4.621  14.877  0.00  0.00    +0.000 F 
ATOM     29  F   UNL     1       6.105   3.010  15.401  0.00  0.00    +0.000 F 
ENDBRANCH  23  26
ENDBRANCH  16  18
ENDBRANCH   1  16
TORSDOF 5
ENDMDL
MODEL 2
REMARK VINA RESULT:      -7.7      7.997      9.210
REMARK  Name = 
REMARK  5 active torsions:
REMARK  status: ('A' for Active; 'I' for Inactive)
REMARK    1  A    between atoms: C_2  and  C_3
REMARK    2  A    between atoms: C_3  and  C_4
REMARK    3  A    between atoms: C_4  and  C_5
REMARK    4  A    between atoms: N_10  and  C_11
REMARK    5  A    between atoms: C_23  and  C_24
REMARK                            x       y       z     vdW  Elec       q    Type
REMARK                         _______ _______ _______ _____ _____    ______ ____
ROOT
ATOM      1  C   UNL     1       7.410   6.506  16.605  0.00  0.00    +0.000 C 
ENDROOT
BRANCH   1   2
ATOM      2  C   UNL     1       6.006   6.115  16.172  0.00  0.00    +0.000 C 
ATOM      3  O   UNL     1       5.499   6.577  15.150  0.00  0.00    +0.000 OA
ATOM      4  N   UNL     1       5.352   5.169  16.961  0.00  0.00    +0.000 N 
ATOM      5  C   UNL     1       3.991   4.801  16.564  0.00  0.00    +0.000 C 
ATOM      6  C   UNL     1       3.501   3.488  17.215  0.00  0.00    +0.000 C 
ATOM      7  N   UNL     1       3.685   3.402  18.695  0.00  0.00    +0.000 NA
ATOM      8  C   UNL     1       5.127   3.631  18.934  0.00  0.00    +0.000 C 
ATOM      9  C   UNL     1       5.686   4.954  18.374  0.00  0.00    +0.000 C 
BRANCH   7  10
ATOM     10  C   UNL     1       2.766   4.326  19.420  0.00  0.00    +0.000 C 
ATOM     11  C   UNL     1       1.287   3.997  19.102  0.00  0.00    +0.000 C 
ATOM     12  C   UNL     1       0.805   2.700  19.748  0.00  0.00    +0.000 C 
ATOM     13  C   UNL     1       0.952   2.735  21.264  0.00  0.00    +0.000 C 
ATOM     14  C   UNL     1       2.338   3.174  21.725  0.00  0.00    +0.000 C 
ATOM     15  C   UNL     1       2.894   4.377  20.964  0.00  0.00    +0.000 C 
ENDBRANCH   7  10
ENDBRANCH   1   2
BRANCH   1  16
ATOM     16  C   UNL     1       7.424   7.805  17.404  0.00  0.00    +0.000 C 
BRANCH  16  18
ATOM     17  O   UNL     1       8.395   6.637  19.276  0.00  0.00    +0.000 OA
ATOM     18  C   UNL     1       8.284   7.694  18.650  0.00  0.00    +0.000 C 
ATOM     19  N   UNL     1       8.997   8.778  19.079  0.00  0.00    +0.000 N 
ATOM     20  C   UNL     1       8.887  10.043  18.581  0.00  0.00    +0.000 A 
ATOM     21  N   UNL     1       8.019  10.531  17.732  0.00  0.00    +0.000 NA
ATOM     22  N   UNL     1       8.247  11.861  17.464  0.00  0.00    +0.000 NA
ATOM     23  C   UNL     1       9.300  12.328  18.110  0.00  0.00    +0.000 A 
ATOM     24  S   UNL     1      10.045  11.160  19.145  0.00  0.00    +0.000 S 
ATOM     25  H   UNL     1       9.646   8.619  19.836  0.00  0.00    +0.000 HD
BRANCH  23  26
ATOM     26  C   UNL     1       9.856  13.704  17.994  0.00  0.00    +0.000 C 
ATOM     27  F   UNL     1       8.902  14.643  17.761  0.00  0.00    +0.000 F 
ATOM     28  F   UNL     1      10.511  14.093  19.121  0.00  0.00    +0.000 F 
ATOM     29  F   UNL     1      10.752  13.803  16.973  0.00  0.00    +0.000 F 
ENDBRANCH  23  26
ENDBRANCH  16  18
ENDBRANCH   1  16
TORSDOF 5
ENDMDL
MODEL 3
REMARK VINA RESULT:      -7.6      7.752      9.255
REMARK  Name = 
REMARK  5 active torsions:
REMARK  status: ('A' for Active; 'I' for Inactive)
REMARK    1  A    between atoms: C_2  and  C_3
REMARK    2  A    between atoms: C_3  and  C_4
REMARK    3  A    between atoms: C_4  and  C_5
REMARK    4  A    between atoms: N_10  and  C_11
REMARK    5  A    between atoms: C_23  and  C_24
REMARK                            x       y       z     vdW  Elec       q    Type
REMARK                         _______ _______ _______ _____ _____    ______ ____
ROOT
ATOM      1  C   UNL     1       6.146   7.827  17.156  0.00  0.00    +0.000 C 
ENDROOT
BRANCH   1   2
ATOM      2  C   UNL     1       5.540   6.668  16.383  0.00  0.00    +0.000 C 
ATOM      3  O   UNL     1       5.476   6.680  15.155  0.00  0.00    +0.000 OA
ATOM      4  N   UNL     1       5.112   5.574  17.137  0.00  0.00    +0.000 N 
ATOM      5  C   UNL     1       4.507   4.460  16.403  0.00  0.00    +0.000 C 
ATOM      6  C   UNL     1       4.442   3.153  17.225  0.00  0.00    +0.000 C 
ATOM      7  N   UNL     1       3.862   3.290  18.595  0.00  0.00    +0.000 NA
ATOM      8  C   UNL     1       4.672   4.328  19.272  0.00  0.00    +0.000 C 
ATOM      9  C   UNL     1       4.736   5.689  18.550  0.00  0.00    +0.000 C 
BRANCH   7  10
ATOM     10  C   UNL     1       2.396   3.558  18.550  0.00  0.00    +0.000 C 
ATOM     11  C   UNL     1       1.590   2.280  18.885  0.00  0.00    +0.000 C 
ATOM     12  C   UNL     1       1.667   1.886  20.359  0.00  0.00    +0.000 C 
ATOM     13  C   UNL     1       1.163   2.998  21.269  0.00  0.00    +0.000 C 
ATOM     14  C   UNL     1       1.784   4.357  20.961  0.00  0.00    +0.000 C 
ATOM     15  C   UNL     1       1.857   4.684  19.470  0.00  0.00    +0.000 C 
ENDBRANCH   7  10
ENDBRANCH   1   2
BRANCH   1  16
ATOM     16  C   UNL     1       7.671   7.786  17.154  0.00  0.00    +0.000 C 
BRANCH  16  18
ATOM     17  O   UNL     1       8.160   6.420  19.079  0.00  0.00    +0.000 OA
ATOM     18  C   UNL     1       8.233   7.527  18.541  0.00  0.00    +0.000 C 
ATOM     19  N   UNL     1       8.879   8.530  19.207  0.00  0.00    +0.000 N 
ATOM     20  C   UNL     1       8.934   9.834  18.811  0.00  0.00    +0.000 A 
ATOM     21  N   UNL     1       8.294  10.438  17.843  0.00  0.00    +0.000 NA
ATOM     22  N   UNL     1       8.630  11.769  17.748  0.00  0.00    +0.000 NA
ATOM     23  C   UNL     1       9.536  12.119  18.644  0.00  0.00    +0.000 A 
ATOM     24  S   UNL     1       9.986  10.832  19.707  0.00  0.00    +0.000 S 
ATOM     25  H   UNL     1       9.340   8.274  20.068  0.00  0.00    +0.000 HD
BRANCH  23  26
ATOM     26  C   UNL     1      10.161  13.465  18.771  0.00  0.00    +0.000 C 
ATOM     27  F   UNL     1      10.795  13.644  19.959  0.00  0.00    +0.000 F 
ATOM     28  F   UNL     1      11.087  13.697  17.801  0.00  0.00    +0.000 F 
ATOM     29  F   UNL     1       9.239  14.462  18.671  0.00  0.00    +0.000 F 
ENDBRANCH  23  26
ENDBRANCH  16  18
ENDBRANCH   1  16
TORSDOF 5
ENDMDL
MODEL 4
REMARK VINA RESULT:      -7.3      7.127      8.421
REMARK  Name = 
REMARK  5 active torsions:
REMARK  status: ('A' for Active; 'I' for Inactive)
REMARK    1  A    between atoms: C_2  and  C_3
REMARK    2  A    between atoms: C_3  and  C_4
REMARK    3  A    between atoms: C_4  and  C_5
REMARK    4  A    between atoms: N_10  and  C_11
REMARK    5  A    between atoms: C_23  and  C_24
REMARK                            x       y       z     vdW  Elec       q    Type
REMARK                         _______ _______ _______ _____ _____    ______ ____
ROOT
ATOM      1  C   UNL     1       7.275   8.264  17.144  0.00  0.00    +0.000 C 
ENDROOT
BRANCH   1   2
ATOM      2  C   UNL     1       8.268   8.531  18.264  0.00  0.00    +0.000 C 
ATOM      3  O   UNL     1       8.642   7.632  19.016  0.00  0.00    +0.000 OA
ATOM      4  N   UNL     1       8.766   9.830  18.357  0.00  0.00    +0.000 N 
ATOM      5  C   UNL     1       9.706  10.103  19.447  0.00  0.00    +0.000 C 
ATOM      6  C   UNL     1      10.511  11.406  19.244  0.00  0.00    +0.000 C 
ATOM      7  N   UNL     1       9.698  12.612  18.904  0.00  0.00    +0.000 NA
ATOM      8  C   UNL     1       8.925  12.247  17.696  0.00  0.00    +0.000 C 
ATOM      9  C   UNL     1       8.040  10.992  17.832  0.00  0.00    +0.000 C 
BRANCH   7  10
ATOM     10  C   UNL     1       8.882  13.073  20.065  0.00  0.00    +0.000 C 
ATOM     11  C   UNL     1       9.779  13.357  21.293  0.00  0.00    +0.000 C 
ATOM     12  C   UNL     1      10.627  14.618  21.143  0.00  0.00    +0.000 C 
ATOM     13  C   UNL     1       9.768  15.852  20.907  0.00  0.00    +0.000 C 
ATOM     14  C   UNL     1       8.738  15.667  19.797  0.00  0.00    +0.000 C 
ATOM     15  C   UNL     1       8.000  14.330  19.850  0.00  0.00    +0.000 C 
ENDBRANCH   7  10
ENDBRANCH   1   2
BRANCH   1  16
ATOM     16  C   UNL     1       6.293   7.153  17.498  0.00  0.00    +0.000 C 
BRANCH  16  18
ATOM     17  O   UNL     1       7.410   5.839  15.814  0.00  0.00    +0.000 OA
ATOM     18  C   UNL     1       6.480   5.929  16.618  0.00  0.00    +0.000 C 
ATOM     19  N   UNL     1       5.624   4.871  16.741  0.00  0.00    +0.000 N 
ATOM     20  C   UNL     1       4.480   4.861  17.483  0.00  0.00    +0.000 A 
ATOM     21  N   UNL     1       3.877   5.848  18.096  0.00  0.00    +0.000 NA
ATOM     22  N   UNL     1       2.744   5.433  18.757  0.00  0.00    +0.000 NA
ATOM     23  C   UNL     1       2.542   4.134  18.635  0.00  0.00    +0.000 A 
ATOM     24  S   UNL     1       3.714   3.347  17.637  0.00  0.00    +0.000 S 
ATOM     25  H   UNL     1       5.864   4.037  16.225  0.00  0.00    +0.000 HD
BRANCH  23  26
ATOM     26  C   UNL     1       1.446   3.357  19.277  0.00  0.00    +0.000 C 
ATOM     27  F   UNL     1       0.621   4.130  20.032  0.00  0.00    +0.000 F 
ATOM     28  F   UNL     1       0.656   2.729  18.364  0.00  0.00    +0.000 F 
ATOM     29  F   UNL     1       1.929   2.388  20.102  0.00  0.00    +0.000 F 
ENDBRANCH  23  26
ENDBRANCH  16  18
ENDBRANCH   1  16
TORSDOF 5
ENDMDL
MODEL 5
REMARK VINA RESULT:      -7.3      2.243      3.080
REMARK  Name = 
REMARK  5 active torsions:
REMARK  status: ('A' for Active; 'I' for Inactive)
REMARK    1  A    between atoms: C_2  and  C_3
REMARK    2  A    between atoms: C_3  and  C_4
REMARK    3  A    between atoms: C_4  and  C_5
REMARK    4  A    between atoms: N_10  and  C_11
REMARK    5  A    between atoms: C_23  and  C_24
REMARK                            x       y       z     vdW  Elec       q    Type
REMARK                         _______ _______ _______ _____ _____    ______ ____
ROOT
ATOM      1  C   UNL     1       1.151   8.753  17.978  0.00  0.00    +0.000 C 
ENDROOT
BRANCH   1   2
ATOM      2  C   UNL     1       0.646   9.774  18.984  0.00  0.00    +0.000 C 
ATOM      3  O   UNL     1       1.210   9.941  20.065  0.00  0.00    +0.000 OA
ATOM      4  N   UNL     1      -0.450  10.543  18.594  0.00  0.00    +0.000 N 
ATOM      5  C   UNL     1      -0.957  11.515  19.565  0.00  0.00    +0.000 C 
ATOM      6  C   UNL     1      -1.875  12.586  18.932  0.00  0.00    +0.000 C 
ATOM      7  N   UNL     1      -2.968  12.055  18.062  0.00  0.00    +0.000 NA
ATOM      8  C   UNL     1      -2.297  11.227  17.035  0.00  0.00    +0.000 C 
ATOM      9  C   UNL     1      -1.411  10.090  17.581  0.00  0.00    +0.000 C 
BRANCH   7  10
ATOM     10  C   UNL     1      -4.016  11.354  18.858  0.00  0.00    +0.000 C 
ATOM     11  C   UNL     1      -4.574  12.275  19.970  0.00  0.00    +0.000 C 
ATOM     12  C   UNL     1      -5.459  13.399  19.435  0.00  0.00    +0.000 C 
ATOM     13  C   UNL     1      -6.646  12.859  18.648  0.00  0.00    +0.000 C 
ATOM     14  C   UNL     1      -6.251  11.831  17.592  0.00  0.00    +0.000 C 
ATOM     15  C   UNL     1      -5.236  10.797  18.080  0.00  0.00    +0.000 C 
ENDBRANCH   7  10
ENDBRANCH   1   2
BRANCH   1  16
ATOM     16  C   UNL     1       2.570   8.292  18.289  0.00  0.00    +0.000 C 
BRANCH  16  18
ATOM     17  O   UNL     1       1.995   6.830  20.118  0.00  0.00    +0.000 OA
ATOM     18  C   UNL     1       2.585   6.974  19.044  0.00  0.00    +0.000 C 
ATOM     19  N   UNL     1       3.231   5.895  18.510  0.00  0.00    +0.000 N 
ATOM     20  C   UNL     1       4.031   5.920  17.406  0.00  0.00    +0.000 A 
ATOM     21  N   UNL     1       4.474   6.944  16.722  0.00  0.00    +0.000 NA
ATOM     22  N   UNL     1       5.253   6.558  15.656  0.00  0.00    +0.000 NA
ATOM     23  C   UNL     1       5.354   5.244  15.561  0.00  0.00    +0.000 A 
ATOM     24  S   UNL     1       4.537   4.398  16.829  0.00  0.00    +0.000 S 
ATOM     25  H   UNL     1       3.107   5.014  18.989  0.00  0.00    +0.000 HD
BRANCH  23  26
ATOM     26  C   UNL     1       6.068   4.499  14.487  0.00  0.00    +0.000 C 
ATOM     27  F   UNL     1       6.712   3.395  14.946  0.00  0.00    +0.000 F 
ATOM     28  F   UNL     1       5.225   4.074  13.507  0.00  0.00    +0.000 F 
ATOM     29  F   UNL     1       7.010   5.271  13.878  0.00  0.00    +0.000 F 
ENDBRANCH  23  26
ENDBRANCH  16  18
ENDBRANCH   1  16
TORSDOF 5
ENDMDL
MODEL 6
REMARK VINA RESULT:      -7.3      6.607     10.572
REMARK  Name = 
REMARK  5 active torsions:
REMARK  status: ('A' for Active; 'I' for Inactive)
REMARK    1  A    between atoms: C_2  and  C_3
REMARK    2  A    between atoms: C_3  and  C_4
REMARK    3  A    between atoms: C_4  and  C_5
REMARK    4  A    between atoms: N_10  and  C_11
REMARK    5  A    between atoms: C_23  and  C_24
REMARK                            x       y       z     vdW  Elec       q    Type
REMARK                         _______ _______ _______ _____ _____    ______ ____
ROOT
ATOM      1  C   UNL     1       0.953  10.401  19.787  0.00  0.00    +0.000 C 
ENDROOT
BRANCH   1   2
ATOM      2  C   UNL     1       1.565   9.605  18.645  0.00  0.00    +0.000 C 
ATOM      3  O   UNL     1       1.676  10.084  17.518  0.00  0.00    +0.000 OA
ATOM      4  N   UNL     1       2.038   8.331  18.959  0.00  0.00    +0.000 N 
ATOM      5  C   UNL     1       2.610   7.548  17.862  0.00  0.00    +0.000 C 
ATOM      6  C   UNL     1       3.466   6.355  18.346  0.00  0.00    +0.000 C 
ATOM      7  N   UNL     1       2.819   5.480  19.369  0.00  0.00    +0.000 NA
ATOM      8  C   UNL     1       2.441   6.376  20.484  0.00  0.00    +0.000 C 
ATOM      9  C   UNL     1       1.530   7.559  20.099  0.00  0.00    +0.000 C 
BRANCH   7  10
ATOM     10  C   UNL     1       1.699   4.684  18.786  0.00  0.00    +0.000 C 
ATOM     11  C   UNL     1       2.189   3.839  17.585  0.00  0.00    +0.000 C 
ATOM     12  C   UNL     1       3.068   2.660  17.995  0.00  0.00    +0.000 C 
ATOM     13  C   UNL     1       2.346   1.722  18.953  0.00  0.00    +0.000 C 
ATOM     14  C   UNL     1       1.697   2.444  20.130  0.00  0.00    +0.000 C 
ATOM     15  C   UNL     1       0.950   3.719  19.740  0.00  0.00    +0.000 C 
ENDBRANCH   7  10
ENDBRANCH   1   2
BRANCH   1  16
ATOM     16  C   UNL     1      -0.571  10.369  19.758  0.00  0.00    +0.000 C 
BRANCH  16  18
ATOM     17  O   UNL     1      -0.910  11.876  17.907  0.00  0.00    +0.000 OA
ATOM     18  C   UNL     1      -1.151  11.600  19.084  0.00  0.00    +0.000 C 
ATOM     19  N   UNL     1      -2.002  12.414  19.779  0.00  0.00    +0.000 N 
ATOM     20  C   UNL     1      -2.268  12.324  21.113  0.00  0.00    +0.000 A 
ATOM     21  N   UNL     1      -1.696  11.584  22.028  0.00  0.00    +0.000 NA
ATOM     22  N   UNL     1      -2.260  11.766  23.270  0.00  0.00    +0.000 NA
ATOM     23  C   UNL     1      -3.260  12.628  23.243  0.00  0.00    +0.000 A 
ATOM     24  S   UNL     1      -3.529  13.320  21.681  0.00  0.00    +0.000 S 
ATOM     25  H   UNL     1      -2.455  13.146  19.251  0.00  0.00    +0.000 HD
BRANCH  23  26
ATOM     26  C   UNL     1      -4.122  13.001  24.399  0.00  0.00    +0.000 C 
ATOM     27  F   UNL     1      -3.475  13.762  25.318  0.00  0.00    +0.000 F 
ATOM     28  F   UNL     1      -5.220  13.708  24.015  0.00  0.00    +0.000 F 
ATOM     29  F   UNL     1      -4.582  11.903  25.060  0.00  0.00    +0.000 F 
ENDBRANCH  23  26
ENDBRANCH  16  18
ENDBRANCH   1  16
TORSDOF 5
ENDMDL
MODEL 7
REMARK VINA RESULT:      -7.3      5.103      9.179
REMARK  Name = 
REMARK  5 active torsions:
REMARK  status: ('A' for Active; 'I' for Inactive)
REMARK    1  A    between atoms: C_2  and  C_3
REMARK    2  A    between atoms: C_3  and  C_4
REMARK    3  A    between atoms: C_4  and  C_5
REMARK    4  A    between atoms: N_10  and  C_11
REMARK    5  A    between atoms: C_23  and  C_24
REMARK                            x       y       z     vdW  Elec       q    Type
REMARK                         _______ _______ _______ _____ _____    ______ ____
ROOT
ATOM      1  C   UNL     1       0.834   9.725  20.339  0.00  0.00    +0.000 C 
ENDROOT
BRANCH   1   2
ATOM      2  C   UNL     1       1.437   9.273  19.018  0.00  0.00    +0.000 C 
ATOM      3  O   UNL     1       1.362   9.971  18.008  0.00  0.00    +0.000 OA
ATOM      4  N   UNL     1       2.120   8.057  19.030  0.00  0.00    +0.000 N 
ATOM      5  C   UNL     1       2.685   7.603  17.757  0.00  0.00    +0.000 C 
ATOM      6  C   UNL     1       3.750   6.495  17.925  0.00  0.00    +0.000 C 
ATOM      7  N   UNL     1       3.344   5.346  18.789  0.00  0.00    +0.000 NA
ATOM      8  C   UNL     1       2.954   5.938  20.088  0.00  0.00    +0.000 C 
ATOM      9  C   UNL     1       1.847   7.009  20.019  0.00  0.00    +0.000 C 
BRANCH   7  10
ATOM     10  C   UNL     1       2.299   4.506  18.135  0.00  0.00    +0.000 C 
ATOM     11  C   UNL     1       2.929   3.554  17.090  0.00  0.00    +0.000 C 
ATOM     12  C   UNL     1       3.728   2.414  17.716  0.00  0.00    +0.000 C 
ATOM     13  C   UNL     1       2.871   1.568  18.648  0.00  0.00    +0.000 C 
ATOM     14  C   UNL     1       2.084   2.395  19.659  0.00  0.00    +0.000 C 
ATOM     15  C   UNL     1       1.415   3.633  19.063  0.00  0.00    +0.000 C 
ENDBRANCH   7  10
ENDBRANCH   1   2
BRANCH   1  16
ATOM     16  C   UNL     1       0.010  10.999  20.189  0.00  0.00    +0.000 C 
BRANCH  16  18
ATOM     17  O   UNL     1      -0.301  11.769  22.452  0.00  0.00    +0.000 OA
ATOM     18  C   UNL     1       0.224  11.952  21.352  0.00  0.00    +0.000 C 
ATOM     19  N   UNL     1       1.054  13.027  21.201  0.00  0.00    +0.000 N 
ATOM     20  C   UNL     1       1.606  13.441  20.025  0.00  0.00    +0.000 A 
ATOM     21  N   UNL     1       1.368  13.033  18.805  0.00  0.00    +0.000 NA
ATOM     22  N   UNL     1       2.142  13.691  17.877  0.00  0.00    +0.000 NA
ATOM     23  C   UNL     1       2.957  14.566  18.437  0.00  0.00    +0.000 A 
ATOM     24  S   UNL     1       2.774  14.675  20.154  0.00  0.00    +0.000 S 
ATOM     25  H   UNL     1       1.259  13.557  22.036  0.00  0.00    +0.000 HD
BRANCH  23  26
ATOM     26  C   UNL     1       3.969  15.396  17.726  0.00  0.00    +0.000 C 
ATOM     27  F   UNL     1       5.122  14.724  17.474  0.00  0.00    +0.000 F 
ATOM     28  F   UNL     1       3.514  15.845  16.525  0.00  0.00    +0.000 F 
ATOM     29  F   UNL     1       4.313  16.500  18.445  0.00  0.00    +0.000 F 
ENDBRANCH  23  26
ENDBRANCH  16  18
ENDBRANCH   1  16
TORSDOF 5
ENDMDL
MODEL 8
REMARK VINA RESULT:      -7.3      7.126      8.494
REMARK  Name = 
REMARK  5 active torsions:
REMARK  status: ('A' for Active; 'I' for Inactive)
REMARK    1  A    between atoms: C_2  and  C_3
REMARK    2  A    between atoms: C_3  and  C_4
REMARK    3  A    between atoms: C_4  and  C_5
REMARK    4  A    between atoms: N_10  and  C_11
REMARK    5  A    between atoms: C_23  and  C_24
REMARK                            x       y       z     vdW  Elec       q    Type
REMARK                         _______ _______ _______ _____ _____    ______ ____
ROOT
ATOM      1  C   UNL     1       7.335   8.302  17.168  0.00  0.00    +0.000 C 
ENDROOT
BRANCH   1   2
ATOM      2  C   UNL     1       8.295   8.594  18.311  0.00  0.00    +0.000 C 
ATOM      3  O   UNL     1       8.658   7.709  19.084  0.00  0.00    +0.000 OA
ATOM      4  N   UNL     1       8.779   9.899  18.399  0.00  0.00    +0.000 N 
ATOM      5  C   UNL     1       9.687  10.196  19.509  0.00  0.00    +0.000 C 
ATOM      6  C   UNL     1      10.485  11.504  19.310  0.00  0.00    +0.000 C 
ATOM      7  N   UNL     1       9.670  12.697  18.932  0.00  0.00    +0.000 NA
ATOM      8  C   UNL     1       8.933  12.309  17.709  0.00  0.00    +0.000 C 
ATOM      9  C   UNL     1       8.056  11.047  17.839  0.00  0.00    +0.000 C 
BRANCH   7  10
ATOM     10  C   UNL     1       8.819  13.166  20.064  0.00  0.00    +0.000 C 
ATOM     11  C   UNL     1       9.681  13.470  21.313  0.00  0.00    +0.000 C 
ATOM     12  C   UNL     1      10.525  14.735  21.171  0.00  0.00    +0.000 C 
ATOM     13  C   UNL     1       9.664  15.961  20.897  0.00  0.00    +0.000 C 
ATOM     14  C   UNL     1       8.666  15.756  19.761  0.00  0.00    +0.000 C 
ATOM     15  C   UNL     1       7.936  14.414  19.810  0.00  0.00    +0.000 C 
ENDBRANCH   7  10
ENDBRANCH   1   2
BRANCH   1  16
ATOM     16  C   UNL     1       6.255   7.302  17.566  0.00  0.00    +0.000 C 
BRANCH  16  18
ATOM     17  O   UNL     1       7.417   5.712  16.175  0.00  0.00    +0.000 OA
ATOM     18  C   UNL     1       6.537   5.915  17.015  0.00  0.00    +0.000 C 
ATOM     19  N   UNL     1       5.831   4.844  17.486  0.00  0.00    +0.000 N 
ATOM     20  C   UNL     1       4.748   4.912  18.311  0.00  0.00    +0.000 A 
ATOM     21  N   UNL     1       4.067   5.958  18.706  0.00  0.00    +0.000 NA
ATOM     22  N   UNL     1       3.040   5.618  19.557  0.00  0.00    +0.000 NA
ATOM     23  C   UNL     1       2.996   4.318  19.791  0.00  0.00    +0.000 A 
ATOM     24  S   UNL     1       4.191   3.422  18.920  0.00  0.00    +0.000 S 
ATOM     25  H   UNL     1       6.140   3.932  17.179  0.00  0.00    +0.000 HD
BRANCH  23  26
ATOM     26  C   UNL     1       2.050   3.630  20.713  0.00  0.00    +0.000 C 
ATOM     27  F   UNL     1       1.916   2.306  20.442  0.00  0.00    +0.000 F 
ATOM     28  F   UNL     1       2.441   3.720  22.013  0.00  0.00    +0.000 F 
ATOM     29  F   UNL     1       0.800   4.167  20.647  0.00  0.00    +0.000 F 
ENDBRANCH  23  26
ENDBRANCH  16  18
ENDBRANCH   1  16
TORSDOF 5
ENDMDL
MODEL 9
REMARK VINA RESULT:      -7.3      2.212      3.176
REMARK  Name = 
REMARK  5 active torsions:
REMARK  status: ('A' for Active; 'I' for Inactive)
REMARK    1  A    between atoms: C_2  and  C_3
REMARK    2  A    between atoms: C_3  and  C_4
REMARK    3  A    between atoms: C_4  and  C_5
REMARK    4  A    between atoms: N_10  and  C_11
REMARK    5  A    between atoms: C_23  and  C_24
REMARK                            x       y       z     vdW  Elec       q    Type
REMARK                         _______ _______ _______ _____ _____    ______ ____
ROOT
ATOM      1  C   UNL     1       1.346   7.046  20.880  0.00  0.00    +0.000 C 
ENDROOT
BRANCH   1   2
ATOM      2  C   UNL     1       1.672   8.037  19.775  0.00  0.00    +0.000 C 
ATOM      3  O   UNL     1       2.500   7.776  18.903  0.00  0.00    +0.000 OA
ATOM      4  N   UNL     1       0.945   9.228  19.773  0.00  0.00    +0.000 N 
ATOM      5  C   UNL     1       1.266  10.199  18.724  0.00  0.00    +0.000 C 
ATOM      6  C   UNL     1       0.174  11.276  18.536  0.00  0.00    +0.000 C 
ATOM      7  N   UNL     1      -0.280  11.949  19.790  0.00  0.00    +0.000 NA
ATOM      8  C   UNL     1      -0.725  10.863  20.691  0.00  0.00    +0.000 C 
ATOM      9  C   UNL     1       0.328   9.777  20.986  0.00  0.00    +0.000 C 
BRANCH   7  10
ATOM     10  C   UNL     1       0.774  12.845  20.348  0.00  0.00    +0.000 C 
ATOM     11  C   UNL     1       1.258  13.859  19.283  0.00  0.00    +0.000 C 
ATOM     12  C   UNL     1       0.229  14.944  18.972  0.00  0.00    +0.000 C 
ATOM     13  C   UNL     1      -0.155  15.733  20.216  0.00  0.00    +0.000 C 
ATOM     14  C   UNL     1      -0.534  14.847  21.399  0.00  0.00    +0.000 C 
ATOM     15  C   UNL     1       0.406  13.661  21.614  0.00  0.00    +0.000 C 
ENDBRANCH   7  10
ENDBRANCH   1   2
BRANCH   1  16
ATOM     16  C   UNL     1       2.289   5.848  20.874  0.00  0.00    +0.000 C 
BRANCH  16  18
ATOM     17  O   UNL     1       0.610   4.233  20.254  0.00  0.00    +0.000 OA
ATOM     18  C   UNL     1       1.735   4.696  20.054  0.00  0.00    +0.000 C 
ATOM     19  N   UNL     1       2.479   4.174  19.032  0.00  0.00    +0.000 N 
ATOM     20  C   UNL     1       3.779   4.482  18.765  0.00  0.00    +0.000 A 
ATOM     21  N   UNL     1       4.629   5.188  19.466  0.00  0.00    +0.000 NA
ATOM     22  N   UNL     1       5.856   5.285  18.850  0.00  0.00    +0.000 NA
ATOM     23  C   UNL     1       5.882   4.660  17.687  0.00  0.00    +0.000 A 
ATOM     24  S   UNL     1       4.400   3.855  17.306  0.00  0.00    +0.000 S 
ATOM     25  H   UNL     1       2.018   3.497  18.442  0.00  0.00    +0.000 HD
BRANCH  23  26
ATOM     26  C   UNL     1       7.032   4.624  16.741  0.00  0.00    +0.000 C 
ATOM     27  F   UNL     1       7.302   5.837  16.191  0.00  0.00    +0.000 F 
ATOM     28  F   UNL     1       8.180   4.208  17.341  0.00  0.00    +0.000 F 
ATOM     29  F   UNL     1       6.807   3.771  15.704  0.00  0.00    +0.000 F 
ENDBRANCH  23  26
ENDBRANCH  16  18
ENDBRANCH   1  16
TORSDOF 5
ENDMDL
