MODEL 1
REMARK VINA RESULT:      -8.4      0.000      0.000
REMARK  Name = 
REMARK  7 active torsions:
REMARK  status: ('A' for Active; 'I' for Inactive)
REMARK    1  A    between atoms: C_1  and  C_2
REMARK    2  A    between atoms: C_5  and  C_6
REMARK    3  A    between atoms: N_8  and  O_9
REMARK    4  A    between atoms: O_9  and  C_10
REMARK    5  A    between atoms: C_10  and  C_11
REMARK    6  A    between atoms: C_21  and  C_22
REMARK    7  A    between atoms: C_23  and  C_24
REMARK                            x       y       z     vdW  Elec       q    Type
REMARK                         _______ _______ _______ _____ _____    ______ ____
ROOT
ATOM      1  C   UNL     1       7.314   6.468  18.312  0.00  0.00    +0.000 C 
ATOM      2  N   UNL     1       8.075   6.084  19.387  0.00  0.00    +0.000 N 
ATOM      3  N   UNL     1       7.423   7.591  17.677  0.00  0.00    +0.000 NA
ATOM      4  H   UNL     1       7.607   5.517  20.083  0.00  0.00    +0.000 HD
ATOM      5  H   UNL     1       8.534   6.894  19.796  0.00  0.00    +0.000 HD
ENDROOT
BRANCH   1  10
ATOM      6  C   UNL     1       2.368   5.863  20.747  0.00  0.00    +0.000 C 
ATOM      7  C   UNL     1       3.177   5.245  19.625  0.00  0.00    +0.000 A 
ATOM      8  N   UNL     1       4.360   5.742  19.399  0.00  0.00    +0.000 NA
ATOM      9  C   UNL     1       5.094   5.188  18.387  0.00  0.00    +0.000 A 
ATOM     10  C   UNL     1       6.363   5.460  17.893  0.00  0.00    +0.000 A 
ATOM     11  C   UNL     1       6.532   4.518  16.858  0.00  0.00    +0.000 A 
ATOM     12  N   UNL     1       5.497   3.700  16.703  0.00  0.00    +0.000 NA
ATOM     13  N   UNL     1       4.596   4.113  17.634  0.00  0.00    +0.000 N 
ATOM     14  C   UNL     1       3.322   3.576  17.876  0.00  0.00    +0.000 A 
ATOM     15  C   UNL     1       2.871   2.425  17.019  0.00  0.00    +0.000 C 
ATOM     16  C   UNL     1       2.554   4.099  18.857  0.00  0.00    +0.000 A 
ATOM     17  C   UNL     1       1.179   3.634  19.234  0.00  0.00    +0.000 C 
ENDBRANCH   1  10
BRANCH   3  18
ATOM     18  O   UNL     1       8.427   8.383  18.277  0.00  0.00    +0.000 OA
BRANCH  18  19
ATOM     19  C   UNL     1       8.206   9.751  17.934  0.00  0.00    +0.000 C 
BRANCH  19  20
ATOM     20  C   UNL     1       9.264  10.595  18.602  0.00  0.00    +0.000 A 
ATOM     21  C   UNL     1       9.348  10.677  20.000  0.00  0.00    +0.000 A 
ATOM     22  C   UNL     1      10.330  11.464  20.608  0.00  0.00    +0.000 A 
ATOM     23  C   UNL     1      11.241  12.176  19.826  0.00  0.00    +0.000 A 
ATOM     24  C   UNL     1      11.163  12.098  18.436  0.00  0.00    +0.000 A 
ATOM     25 CL   UNL     1      12.281  12.980  17.469  0.00  0.00    +0.000 Cl
ATOM     26  C   UNL     1      10.187  11.314  17.823  0.00  0.00    +0.000 A 
ENDBRANCH  19  20
ENDBRANCH  18  19
ENDBRANCH   3  18
TORSDOF 4
ENDMDL
MODEL 2
REMARK VINA RESULT:      -8.2      5.172      7.425
REMARK  Name = 
REMARK  7 active torsions:
REMARK  status: ('A' for Active; 'I' for Inactive)
REMARK    1  A    between atoms: C_1  and  C_2
REMARK    2  A    between atoms: C_5  and  C_6
REMARK    3  A    between atoms: N_8  and  O_9
REMARK    4  A    between atoms: O_9  and  C_10
REMARK    5  A    between atoms: C_10  and  C_11
REMARK    6  A    between atoms: C_21  and  C_22
REMARK    7  A    between atoms: C_23  and  C_24
REMARK                            x       y       z     vdW  Elec       q    Type
REMARK                         _______ _______ _______ _____ _____    ______ ____
ROOT
ATOM      1  C   UNL     1       2.422   6.514  19.240  0.00  0.00    +0.000 C 
ATOM      2  N   UNL     1       2.568   6.175  20.562  0.00  0.00    +0.000 N 
ATOM      3  N   UNL     1       2.579   5.710  18.237  0.00  0.00    +0.000 NA
ATOM      4  H   UNL     1       2.938   6.897  21.167  0.00  0.00    +0.000 HD
ATOM      5  H   UNL     1       3.083   5.302  20.643  0.00  0.00    +0.000 HD
ENDROOT
BRANCH   1  10
ATOM      6  C   UNL     1      -0.035   9.493  23.220  0.00  0.00    +0.000 C 
ATOM      7  C   UNL     1       0.432   9.657  21.788  0.00  0.00    +0.000 A 
ATOM      8  N   UNL     1       0.987   8.624  21.220  0.00  0.00    +0.000 NA
ATOM      9  C   UNL     1       1.410   8.766  19.928  0.00  0.00    +0.000 A 
ATOM     10  C   UNL     1       2.021   7.890  19.040  0.00  0.00    +0.000 A 
ATOM     11  C   UNL     1       2.176   8.653  17.865  0.00  0.00    +0.000 A 
ATOM     12  N   UNL     1       1.699   9.889  17.962  0.00  0.00    +0.000 NA
ATOM     13  N   UNL     1       1.235   9.975  19.236  0.00  0.00    +0.000 N 
ATOM     14  C   UNL     1       0.636  11.089  19.846  0.00  0.00    +0.000 A 
ATOM     15  C   UNL     1       0.491  12.343  19.028  0.00  0.00    +0.000 C 
ATOM     16  C   UNL     1       0.213  11.001  21.126  0.00  0.00    +0.000 A 
ATOM     17  C   UNL     1      -0.442  12.098  21.908  0.00  0.00    +0.000 C 
ENDBRANCH   1  10
BRANCH   3  18
ATOM     18  O   UNL     1       2.953   4.431  18.705  0.00  0.00    +0.000 OA
BRANCH  18  19
ATOM     19  C   UNL     1       3.386   3.641  17.597  0.00  0.00    +0.000 C 
BRANCH  19  20
ATOM     20  C   UNL     1       4.793   4.048  17.232  0.00  0.00    +0.000 A 
ATOM     21  C   UNL     1       5.747   4.325  18.224  0.00  0.00    +0.000 A 
ATOM     22  C   UNL     1       7.046   4.704  17.875  0.00  0.00    +0.000 A 
ATOM     23  C   UNL     1       7.407   4.812  16.531  0.00  0.00    +0.000 A 
ATOM     24  C   UNL     1       6.463   4.539  15.540  0.00  0.00    +0.000 A 
ATOM     25 CL   UNL     1       6.905   4.675  13.882  0.00  0.00    +0.000 Cl
ATOM     26  C   UNL     1       5.167   4.158  15.882  0.00  0.00    +0.000 A 
ENDBRANCH  19  20
ENDBRANCH  18  19
ENDBRANCH   3  18
TORSDOF 4
ENDMDL
MODEL 3
REMARK VINA RESULT:      -8.1      5.257      7.596
REMARK  Name = 
REMARK  7 active torsions:
REMARK  status: ('A' for Active; 'I' for Inactive)
REMARK    1  A    between atoms: C_1  and  C_2
REMARK    2  A    between atoms: C_5  and  C_6
REMARK    3  A    between atoms: N_8  and  O_9
REMARK    4  A    between atoms: O_9  and  C_10
REMARK    5  A    between atoms: C_10  and  C_11
REMARK    6  A    between atoms: C_21  and  C_22
REMARK    7  A    between atoms: C_23  and  C_24
REMARK                            x       y       z     vdW  Elec       q    Type
REMARK                         _______ _______ _______ _____ _____    ______ ____
ROOT
ATOM      1  C   UNL     1       6.088   4.799  15.842  0.00  0.00    +0.000 C 
ATOM      2  N   UNL     1       5.906   3.441  15.762  0.00  0.00    +0.000 N 
ATOM      3  N   UNL     1       6.952   5.482  15.162  0.00  0.00    +0.000 NA
ATOM      4  H   UNL     1       5.642   2.978  16.623  0.00  0.00    +0.000 HD
ATOM      5  H   UNL     1       6.713   3.007  15.323  0.00  0.00    +0.000 HD
ENDROOT
BRANCH   1  10
ATOM      6  C   UNL     1       2.498   1.954  18.969  0.00  0.00    +0.000 C 
ATOM      7  C   UNL     1       2.907   3.390  18.711  0.00  0.00    +0.000 A 
ATOM      8  N   UNL     1       3.853   3.593  17.838  0.00  0.00    +0.000 NA
ATOM      9  C   UNL     1       4.226   4.886  17.602  0.00  0.00    +0.000 A 
ATOM     10  C   UNL     1       5.170   5.449  16.752  0.00  0.00    +0.000 A 
ATOM     11  C   UNL     1       5.042   6.836  16.977  0.00  0.00    +0.000 A 
ATOM     12  N   UNL     1       4.102   7.151  17.860  0.00  0.00    +0.000 NA
ATOM     13  N   UNL     1       3.600   5.955  18.263  0.00  0.00    +0.000 N 
ATOM     14  C   UNL     1       2.580   5.738  19.203  0.00  0.00    +0.000 A 
ATOM     15  C   UNL     1       1.967   6.943  19.864  0.00  0.00    +0.000 C 
ATOM     16  C   UNL     1       2.186   4.475  19.480  0.00  0.00    +0.000 A 
ATOM     17  C   UNL     1       1.115   4.087  20.455  0.00  0.00    +0.000 C 
ENDBRANCH   1  10
BRANCH   3  18
ATOM     18  O   UNL     1       7.709   4.614  14.343  0.00  0.00    +0.000 OA
BRANCH  18  19
ATOM     19  C   UNL     1       7.499   4.967  12.976  0.00  0.00    +0.000 C 
BRANCH  19  20
ATOM     20  C   UNL     1       6.833   3.809  12.273  0.00  0.00    +0.000 A 
ATOM     21  C   UNL     1       7.576   2.698  11.845  0.00  0.00    +0.000 A 
ATOM     22  C   UNL     1       6.950   1.632  11.193  0.00  0.00    +0.000 A 
ATOM     23  C   UNL     1       5.573   1.663  10.963  0.00  0.00    +0.000 A 
ATOM     24  C   UNL     1       4.829   2.765  11.386  0.00  0.00    +0.000 A 
ATOM     25 CL   UNL     1       3.133   2.808  11.099  0.00  0.00    +0.000 Cl
ATOM     26  C   UNL     1       5.448   3.829  12.038  0.00  0.00    +0.000 A 
ENDBRANCH  19  20
ENDBRANCH  18  19
ENDBRANCH   3  18
TORSDOF 4
ENDMDL
MODEL 4
REMARK VINA RESULT:      -8.1      4.728      7.108
REMARK  Name = 
REMARK  7 active torsions:
REMARK  status: ('A' for Active; 'I' for Inactive)
REMARK    1  A    between atoms: C_1  and  C_2
REMARK    2  A    between atoms: C_5  and  C_6
REMARK    3  A    between atoms: N_8  and  O_9
REMARK    4  A    between atoms: O_9  and  C_10
REMARK    5  A    between atoms: C_10  and  C_11
REMARK    6  A    between atoms: C_21  and  C_22
REMARK    7  A    between atoms: C_23  and  C_24
REMARK                            x       y       z     vdW  Elec       q    Type
REMARK                         _______ _______ _______ _____ _____    ______ ____
ROOT
ATOM      1  C   UNL     1       2.486   6.258  19.125  0.00  0.00    +0.000 C 
ATOM      2  N   UNL     1       2.539   5.942  20.459  0.00  0.00    +0.000 N 
ATOM      3  N   UNL     1       2.660   5.426  18.148  0.00  0.00    +0.000 NA
ATOM      4  H   UNL     1       2.908   6.659  21.070  0.00  0.00    +0.000 HD
ATOM      5  H   UNL     1       3.008   5.049  20.586  0.00  0.00    +0.000 HD
ENDROOT
BRANCH   1  10
ATOM      6  C   UNL     1       0.100   9.480  22.957  0.00  0.00    +0.000 C 
ATOM      7  C   UNL     1       0.607   9.576  21.533  0.00  0.00    +0.000 A 
ATOM      8  N   UNL     1       1.120   8.499  21.008  0.00  0.00    +0.000 NA
ATOM      9  C   UNL     1       1.579   8.580  19.723  0.00  0.00    +0.000 A 
ATOM     10  C   UNL     1       2.162   7.647  18.876  0.00  0.00    +0.000 A 
ATOM     11  C   UNL     1       2.383   8.366  17.683  0.00  0.00    +0.000 A 
ATOM     12  N   UNL     1       1.970   9.627  17.732  0.00  0.00    +0.000 NA
ATOM     13  N   UNL     1       1.483   9.775  18.992  0.00  0.00    +0.000 N 
ATOM     14  C   UNL     1       0.930  10.936  19.555  0.00  0.00    +0.000 A 
ATOM     15  C   UNL     1       0.869  12.171  18.698  0.00  0.00    +0.000 C 
ATOM     16  C   UNL     1       0.475  10.909  20.827  0.00  0.00    +0.000 A 
ATOM     17  C   UNL     1      -0.140  12.062  21.561  0.00  0.00    +0.000 C 
ENDBRANCH   1  10
BRANCH   3  18
ATOM     18  O   UNL     1       2.947   4.142  18.661  0.00  0.00    +0.000 OA
BRANCH  18  19
ATOM     19  C   UNL     1       3.700   3.413  17.691  0.00  0.00    +0.000 C 
BRANCH  19  20
ATOM     20  C   UNL     1       4.907   4.231  17.302  0.00  0.00    +0.000 A 
ATOM     21  C   UNL     1       5.156   4.560  15.960  0.00  0.00    +0.000 A 
ATOM     22  C   UNL     1       6.279   5.315  15.610  0.00  0.00    +0.000 A 
ATOM     23  C   UNL     1       7.165   5.751  16.596  0.00  0.00    +0.000 A 
ATOM     24  C   UNL     1       6.923   5.427  17.931  0.00  0.00    +0.000 A 
ATOM     25 CL   UNL     1       8.018   5.960  19.149  0.00  0.00    +0.000 Cl
ATOM     26  C   UNL     1       5.805   4.676  18.287  0.00  0.00    +0.000 A 
ENDBRANCH  19  20
ENDBRANCH  18  19
ENDBRANCH   3  18
TORSDOF 4
ENDMDL
MODEL 5
REMARK VINA RESULT:      -7.9      1.357      1.730
REMARK  Name = 
REMARK  7 active torsions:
REMARK  status: ('A' for Active; 'I' for Inactive)
REMARK    1  A    between atoms: C_1  and  C_2
REMARK    2  A    between atoms: C_5  and  C_6
REMARK    3  A    between atoms: N_8  and  O_9
REMARK    4  A    between atoms: O_9  and  C_10
REMARK    5  A    between atoms: C_10  and  C_11
REMARK    6  A    between atoms: C_21  and  C_22
REMARK    7  A    between atoms: C_23  and  C_24
REMARK                            x       y       z     vdW  Elec       q    Type
REMARK                         _______ _______ _______ _____ _____    ______ ____
ROOT
ATOM      1  C   UNL     1       6.527   6.320  16.857  0.00  0.00    +0.000 C 
ATOM      2  N   UNL     1       7.453   6.079  15.874  0.00  0.00    +0.000 N 
ATOM      3  N   UNL     1       6.443   7.402  17.562  0.00  0.00    +0.000 NA
ATOM      4  H   UNL     1       7.763   5.120  15.782  0.00  0.00    +0.000 HD
ATOM      5  H   UNL     1       8.231   6.729  15.962  0.00  0.00    +0.000 HD
ENDROOT
BRANCH   1  10
ATOM      6  C   UNL     1       2.207   6.694  20.315  0.00  0.00    +0.000 C 
ATOM      7  C   UNL     1       2.815   5.704  19.343  0.00  0.00    +0.000 A 
ATOM      8  N   UNL     1       3.897   6.071  18.716  0.00  0.00    +0.000 NA
ATOM      9  C   UNL     1       4.450   5.181  17.838  0.00  0.00    +0.000 A 
ATOM     10  C   UNL     1       5.577   5.241  17.028  0.00  0.00    +0.000 A 
ATOM     11  C   UNL     1       5.597   3.987  16.383  0.00  0.00    +0.000 A 
ATOM     12  N   UNL     1       4.604   3.182  16.746  0.00  0.00    +0.000 NA
ATOM     13  N   UNL     1       3.882   3.914  17.634  0.00  0.00    +0.000 N 
ATOM     14  C   UNL     1       2.717   3.516  18.310  0.00  0.00    +0.000 A 
ATOM     15  C   UNL     1       2.179   2.139  18.028  0.00  0.00    +0.000 C 
ATOM     16  C   UNL     1       2.126   4.366  19.178  0.00  0.00    +0.000 A 
ATOM     17  C   UNL     1       0.885   4.085  19.970  0.00  0.00    +0.000 C 
ENDBRANCH   1  10
BRANCH   3  18
ATOM     18  O   UNL     1       7.473   8.295  17.190  0.00  0.00    +0.000 OA
BRANCH  18  19
ATOM     19  C   UNL     1       8.359   8.468  18.297  0.00  0.00    +0.000 C 
BRANCH  19  20
ATOM     20  C   UNL     1       8.750   9.924  18.380  0.00  0.00    +0.000 A 
ATOM     21  C   UNL     1       8.105  10.892  17.595  0.00  0.00    +0.000 A 
ATOM     22  C   UNL     1       8.477  12.237  17.677  0.00  0.00    +0.000 A 
ATOM     23  C   UNL     1       9.496  12.630  18.546  0.00  0.00    +0.000 A 
ATOM     24  C   UNL     1      10.141  11.672  19.329  0.00  0.00    +0.000 A 
ATOM     25 CL   UNL     1      11.402  12.154  20.398  0.00  0.00    +0.000 Cl
ATOM     26  C   UNL     1       9.773  10.330  19.253  0.00  0.00    +0.000 A 
ENDBRANCH  19  20
ENDBRANCH  18  19
ENDBRANCH   3  18
TORSDOF 4
ENDMDL
MODEL 6
REMARK VINA RESULT:      -7.9      1.206      1.533
REMARK  Name = 
REMARK  7 active torsions:
REMARK  status: ('A' for Active; 'I' for Inactive)
REMARK    1  A    between atoms: C_1  and  C_2
REMARK    2  A    between atoms: C_5  and  C_6
REMARK    3  A    between atoms: N_8  and  O_9
REMARK    4  A    between atoms: O_9  and  C_10
REMARK    5  A    between atoms: C_10  and  C_11
REMARK    6  A    between atoms: C_21  and  C_22
REMARK    7  A    between atoms: C_23  and  C_24
REMARK                            x       y       z     vdW  Elec       q    Type
REMARK                         _______ _______ _______ _____ _____    ______ ____
ROOT
ATOM      1  C   UNL     1       7.380   6.507  18.371  0.00  0.00    +0.000 C 
ATOM      2  N   UNL     1       8.128   6.081  19.439  0.00  0.00    +0.000 N 
ATOM      3  N   UNL     1       7.497   7.655  17.783  0.00  0.00    +0.000 NA
ATOM      4  H   UNL     1       7.651   5.486  20.106  0.00  0.00    +0.000 HD
ATOM      5  H   UNL     1       8.581   6.874  19.886  0.00  0.00    +0.000 HD
ENDROOT
BRANCH   1  10
ATOM      6  C   UNL     1       2.378   5.850  20.672  0.00  0.00    +0.000 C 
ATOM      7  C   UNL     1       3.209   5.263  19.550  0.00  0.00    +0.000 A 
ATOM      8  N   UNL     1       4.399   5.762  19.367  0.00  0.00    +0.000 NA
ATOM      9  C   UNL     1       5.154   5.236  18.355  0.00  0.00    +0.000 A 
ATOM     10  C   UNL     1       6.435   5.517  17.899  0.00  0.00    +0.000 A 
ATOM     11  C   UNL     1       6.624   4.606  16.840  0.00  0.00    +0.000 A 
ATOM     12  N   UNL     1       5.590   3.798  16.637  0.00  0.00    +0.000 NA
ATOM     13  N   UNL     1       4.670   4.187  17.558  0.00  0.00    +0.000 N 
ATOM     14  C   UNL     1       3.389   3.648  17.755  0.00  0.00    +0.000 A 
ATOM     15  C   UNL     1       2.953   2.526  16.852  0.00  0.00    +0.000 C 
ATOM     16  C   UNL     1       2.600   4.143  18.734  0.00  0.00    +0.000 A 
ATOM     17  C   UNL     1       1.215   3.674  19.064  0.00  0.00    +0.000 C 
ENDBRANCH   1  10
BRANCH   3  18
ATOM     18  O   UNL     1       8.493   8.422  18.427  0.00  0.00    +0.000 OA
BRANCH  18  19
ATOM     19  C   UNL     1       8.513   9.730  17.855  0.00  0.00    +0.000 C 
BRANCH  19  20
ATOM     20  C   UNL     1       9.413  10.609  18.689  0.00  0.00    +0.000 A 
ATOM     21  C   UNL     1      10.625  11.097  18.176  0.00  0.00    +0.000 A 
ATOM     22  C   UNL     1      11.452  11.907  18.957  0.00  0.00    +0.000 A 
ATOM     23  C   UNL     1      11.079  12.241  20.260  0.00  0.00    +0.000 A 
ATOM     24  C   UNL     1       9.875  11.759  20.776  0.00  0.00    +0.000 A 
ATOM     25 CL   UNL     1       9.415  12.164  22.384  0.00  0.00    +0.000 Cl
ATOM     26  C   UNL     1       9.045  10.952  20.001  0.00  0.00    +0.000 A 
ENDBRANCH  19  20
ENDBRANCH  18  19
ENDBRANCH   3  18
TORSDOF 4
ENDMDL
MODEL 7
REMARK VINA RESULT:      -7.8      5.814      8.094
REMARK  Name = 
REMARK  7 active torsions:
REMARK  status: ('A' for Active; 'I' for Inactive)
REMARK    1  A    between atoms: C_1  and  C_2
REMARK    2  A    between atoms: C_5  and  C_6
REMARK    3  A    between atoms: N_8  and  O_9
REMARK    4  A    between atoms: O_9  and  C_10
REMARK    5  A    between atoms: C_10  and  C_11
REMARK    6  A    between atoms: C_21  and  C_22
REMARK    7  A    between atoms: C_23  and  C_24
REMARK                            x       y       z     vdW  Elec       q    Type
REMARK                         _______ _______ _______ _____ _____    ______ ____
ROOT
ATOM      1  C   UNL     1       1.819   8.116  19.572  0.00  0.00    +0.000 C 
ATOM      2  N   UNL     1       1.639   7.695  20.865  0.00  0.00    +0.000 N 
ATOM      3  N   UNL     1       1.385   9.230  19.078  0.00  0.00    +0.000 NA
ATOM      4  H   UNL     1       1.529   6.697  20.996  0.00  0.00    +0.000 HD
ATOM      5  H   UNL     1       0.890   8.225  21.303  0.00  0.00    +0.000 HD
ENDROOT
BRANCH   1  10
ATOM      6  C   UNL     1       1.585   2.620  20.277  0.00  0.00    +0.000 C 
ATOM      7  C   UNL     1       2.291   3.634  19.401  0.00  0.00    +0.000 A 
ATOM      8  N   UNL     1       2.019   4.892  19.607  0.00  0.00    +0.000 NA
ATOM      9  C   UNL     1       2.653   5.812  18.819  0.00  0.00    +0.000 A 
ATOM     10  C   UNL     1       2.605   7.199  18.773  0.00  0.00    +0.000 A 
ATOM     11  C   UNL     1       3.511   7.535  17.747  0.00  0.00    +0.000 A 
ATOM     12  N   UNL     1       4.107   6.485  17.193  0.00  0.00    +0.000 NA
ATOM     13  N   UNL     1       3.575   5.414  17.838  0.00  0.00    +0.000 N 
ATOM     14  C   UNL     1       3.870   4.060  17.615  0.00  0.00    +0.000 A 
ATOM     15  C   UNL     1       4.870   3.727  16.541  0.00  0.00    +0.000 C 
ATOM     16  C   UNL     1       3.259   3.113  18.360  0.00  0.00    +0.000 A 
ATOM     17  C   UNL     1       3.470   1.634  18.240  0.00  0.00    +0.000 C 
ENDBRANCH   1  10
BRANCH   3  18
ATOM     18  O   UNL     1       0.665   9.942  20.064  0.00  0.00    +0.000 OA
BRANCH  18  19
ATOM     19  C   UNL     1       0.389  11.256  19.579  0.00  0.00    +0.000 C 
BRANCH  19  20
ATOM     20  C   UNL     1      -1.013  11.281  19.020  0.00  0.00    +0.000 A 
ATOM     21  C   UNL     1      -2.037  11.989  19.667  0.00  0.00    +0.000 A 
ATOM     22  C   UNL     1      -3.333  12.003  19.143  0.00  0.00    +0.000 A 
ATOM     23  C   UNL     1      -3.620  11.310  17.966  0.00  0.00    +0.000 A 
ATOM     24  C   UNL     1      -2.606  10.604  17.318  0.00  0.00    +0.000 A 
ATOM     25 CL   UNL     1      -2.958   9.745  15.869  0.00  0.00    +0.000 Cl
ATOM     26  C   UNL     1      -1.312  10.588  17.835  0.00  0.00    +0.000 A 
ENDBRANCH  19  20
ENDBRANCH  18  19
ENDBRANCH   3  18
TORSDOF 4
ENDMDL
MODEL 8
REMARK VINA RESULT:      -7.7      5.436      8.227
REMARK  Name = 
REMARK  7 active torsions:
REMARK  status: ('A' for Active; 'I' for Inactive)
REMARK    1  A    between atoms: C_1  and  C_2
REMARK    2  A    between atoms: C_5  and  C_6
REMARK    3  A    between atoms: N_8  and  O_9
REMARK    4  A    between atoms: O_9  and  C_10
REMARK    5  A    between atoms: C_10  and  C_11
REMARK    6  A    between atoms: C_21  and  C_22
REMARK    7  A    between atoms: C_23  and  C_24
REMARK                            x       y       z     vdW  Elec       q    Type
REMARK                         _______ _______ _______ _____ _____    ______ ____
ROOT
ATOM      1  C   UNL     1       1.905   8.092  19.414  0.00  0.00    +0.000 C 
ATOM      2  N   UNL     1       2.054   8.663  18.176  0.00  0.00    +0.000 N 
ATOM      3  N   UNL     1       2.356   6.930  19.764  0.00  0.00    +0.000 NA
ATOM      4  H   UNL     1       1.286   9.242  17.859  0.00  0.00    +0.000 HD
ATOM      5  H   UNL     1       2.310   7.954  17.493  0.00  0.00    +0.000 HD
ENDROOT
BRANCH   1  10
ATOM      6  C   UNL     1      -1.854  11.845  17.822  0.00  0.00    +0.000 C 
ATOM      7  C   UNL     1      -1.220  11.327  19.096  0.00  0.00    +0.000 A 
ATOM      8  N   UNL     1      -0.330  10.383  18.978  0.00  0.00    +0.000 NA
ATOM      9  C   UNL     1       0.246   9.912  20.125  0.00  0.00    +0.000 A 
ATOM     10  C   UNL     1       1.211   8.940  20.359  0.00  0.00    +0.000 A 
ATOM     11  C   UNL     1       1.371   8.954  21.760  0.00  0.00    +0.000 A 
ATOM     12  N   UNL     1       0.613   9.852  22.378  0.00  0.00    +0.000 NA
ATOM     13  N   UNL     1      -0.097  10.440  21.380  0.00  0.00    +0.000 N 
ATOM     14  C   UNL     1      -1.055  11.459  21.509  0.00  0.00    +0.000 A 
ATOM     15  C   UNL     1      -1.360  11.964  22.893  0.00  0.00    +0.000 C 
ATOM     16  C   UNL     1      -1.661  11.948  20.405  0.00  0.00    +0.000 A 
ATOM     17  C   UNL     1      -2.698  13.031  20.382  0.00  0.00    +0.000 C 
ENDBRANCH   1  10
BRANCH   3  18
ATOM     18  O   UNL     1       3.003   6.319  18.667  0.00  0.00    +0.000 OA
BRANCH  18  19
ATOM     19  C   UNL     1       3.635   5.118  19.111  0.00  0.00    +0.000 C 
BRANCH  19  20
ATOM     20  C   UNL     1       4.945   4.961  18.378  0.00  0.00    +0.000 A 
ATOM     21  C   UNL     1       6.162   5.303  18.989  0.00  0.00    +0.000 A 
ATOM     22  C   UNL     1       7.369   5.157  18.301  0.00  0.00    +0.000 A 
ATOM     23  C   UNL     1       7.375   4.667  16.994  0.00  0.00    +0.000 A 
ATOM     24  C   UNL     1       6.169   4.326  16.381  0.00  0.00    +0.000 A 
ATOM     25 CL   UNL     1       6.174   3.726  14.767  0.00  0.00    +0.000 Cl
ATOM     26  C   UNL     1       4.963   4.467  17.063  0.00  0.00    +0.000 A 
ENDBRANCH  19  20
ENDBRANCH  18  19
ENDBRANCH   3  18
TORSDOF 4
ENDMDL
MODEL 9
REMARK VINA RESULT:      -7.7      6.946      9.756
REMARK  Name = 
REMARK  7 active torsions:
REMARK  status: ('A' for Active; 'I' for Inactive)
REMARK    1  A    between atoms: C_1  and  C_2
REMARK    2  A    between atoms: C_5  and  C_6
REMARK    3  A    between atoms: N_8  and  O_9
REMARK    4  A    between atoms: O_9  and  C_10
REMARK    5  A    between atoms: C_10  and  C_11
REMARK    6  A    between atoms: C_21  and  C_22
REMARK    7  A    between atoms: C_23  and  C_24
REMARK                            x       y       z     vdW  Elec       q    Type
REMARK                         _______ _______ _______ _____ _____    ______ ____
ROOT
ATOM      1  C   UNL     1       1.175   9.650  18.387  0.00  0.00    +0.000 C 
ATOM      2  N   UNL     1       2.090  10.457  17.760  0.00  0.00    +0.000 N 
ATOM      3  N   UNL     1       1.315   8.381  18.601  0.00  0.00    +0.000 NA
ATOM      4  H   UNL     1       1.708  11.211  17.203  0.00  0.00    +0.000 HD
ATOM      5  H   UNL     1       2.754   9.891  17.239  0.00  0.00    +0.000 HD
ENDROOT
BRANCH   1  10
ATOM      6  C   UNL     1      -3.374  10.232  15.268  0.00  0.00    +0.000 C 
ATOM      7  C   UNL     1      -2.870  10.617  16.644  0.00  0.00    +0.000 A 
ATOM      8  N   UNL     1      -1.664  10.242  16.964  0.00  0.00    +0.000 NA
ATOM      9  C   UNL     1      -1.205  10.586  18.205  0.00  0.00    +0.000 A 
ATOM     10  C   UNL     1       0.004  10.362  18.852  0.00  0.00    +0.000 A 
ATOM     11  C   UNL     1      -0.161  10.994  20.102  0.00  0.00    +0.000 A 
ATOM     12  N   UNL     1      -1.339  11.588  20.252  0.00  0.00    +0.000 NA
ATOM     13  N   UNL     1      -1.998  11.332  19.091  0.00  0.00    +0.000 N 
ATOM     14  C   UNL     1      -3.298  11.738  18.748  0.00  0.00    +0.000 A 
ATOM     15  C   UNL     1      -4.075  12.532  19.761  0.00  0.00    +0.000 C 
ATOM     16  C   UNL     1      -3.801  11.409  17.537  0.00  0.00    +0.000 A 
ATOM     17  C   UNL     1      -5.164  11.769  17.029  0.00  0.00    +0.000 C 
ENDBRANCH   1  10
BRANCH   3  18
ATOM     18  O   UNL     1       2.543   7.939  18.063  0.00  0.00    +0.000 OA
BRANCH  18  19
ATOM     19  C   UNL     1       3.139   7.010  18.970  0.00  0.00    +0.000 C 
BRANCH  19  20
ATOM     20  C   UNL     1       3.025   5.623  18.386  0.00  0.00    +0.000 A 
ATOM     21  C   UNL     1       3.931   5.169  17.416  0.00  0.00    +0.000 A 
ATOM     22  C   UNL     1       3.814   3.883  16.880  0.00  0.00    +0.000 A 
ATOM     23  C   UNL     1       2.790   3.036  17.308  0.00  0.00    +0.000 A 
ATOM     24  C   UNL     1       1.885   3.483  18.271  0.00  0.00    +0.000 A 
ATOM     25 CL   UNL     1       0.618   2.442  18.797  0.00  0.00    +0.000 Cl
ATOM     26  C   UNL     1       1.998   4.762  18.811  0.00  0.00    +0.000 A 
ENDBRANCH  19  20
ENDBRANCH  18  19
ENDBRANCH   3  18
TORSDOF 4
ENDMDL
