MODEL 1
REMARK VINA RESULT:      -7.4      0.000      0.000
REMARK  Name = 
REMARK  12 active torsions:
REMARK  status: ('A' for Active; 'I' for Inactive)
REMARK    1  A    between atoms: C_1  and  C_2
REMARK    2  A    between atoms: C_2  and  O_3
REMARK    3  A    between atoms: O_3  and  C_4
REMARK    4  A    between atoms: C_4  and  C_6
REMARK    5  A    between atoms: C_6  and  N_7
REMARK    6  A    between atoms: C_6  and  C_26
REMARK    7  A    between atoms: C_8  and  C_10
REMARK    8  A    between atoms: C_14  and  C_15
REMARK    9  A    between atoms: C_15  and  C_17
REMARK   10  A    between atoms: C_26  and  C_27
REMARK   11  A    between atoms: C_26  and  C_28
REMARK   12  A    between atoms: C_28  and  C_29
REMARK                            x       y       z     vdW  Elec       q    Type
REMARK                         _______ _______ _______ _____ _____    ______ ____
ROOT
ATOM      1  C   UNL     1       2.427   7.377  20.038  0.00  0.00    +0.000 C 
ATOM      2  C   UNL     1       1.243   7.241  21.033  0.00  0.00    +0.000 C 
ATOM      3  C   UNL     1       0.425   8.538  20.919  0.00  0.00    +0.000 C 
ATOM      4  N   UNL     1       0.854   9.077  19.640  0.00  0.00    +0.000 N 
ATOM      5  C   UNL     1       0.480  10.145  18.886  0.00  0.00    +0.000 A 
ATOM      6  C   UNL     1       1.385  10.163  17.822  0.00  0.00    +0.000 A 
ATOM      7  C   UNL     1       2.341   9.123  18.000  0.00  0.00    +0.000 A 
ATOM      8  C   UNL     1       1.969   8.470  19.142  0.00  0.00    +0.000 A 
ENDROOT
BRANCH   1  10
ATOM      9  N   UNL     1       3.810   5.357  19.723  0.00  0.00    +0.000 N 
ATOM     10  C   UNL     1       2.709   6.076  19.304  0.00  0.00    +0.000 C 
ATOM     11  O   UNL     1       2.043   5.743  18.324  0.00  0.00    +0.000 OA
ATOM     12  H   UNL     1       4.203   5.572  20.638  0.00  0.00    +0.000 HD
BRANCH   9  13
ATOM     13  C   UNL     1       4.263   4.151  19.028  0.00  0.00    +0.000 C 
BRANCH  13  14
ATOM     14  C   UNL     1       4.241   2.951  20.010  0.00  0.00    +0.000 C 
ATOM     15  O   UNL     1       5.118   2.105  20.128  0.00  0.00    +0.000 OA
BRANCH  14  16
ATOM     16  O   UNL     1       3.022   2.881  20.641  0.00  0.00    +0.000 OA
BRANCH  16  18
ATOM     17  C   UNL     1       0.662   3.077  20.069  0.00  0.00    +0.000 C 
ATOM     18  C   UNL     1       1.958   2.322  19.853  0.00  0.00    +0.000 C 
ENDBRANCH  16  18
ENDBRANCH  14  16
ENDBRANCH  13  14
BRANCH  13  19
ATOM     19  C   UNL     1       5.607   4.307  18.257  0.00  0.00    +0.000 C 
ATOM     20  C   UNL     1       5.409   4.085  16.744  0.00  0.00    +0.000 C 
BRANCH  19  21
ATOM     21  C   UNL     1       6.234   5.703  18.496  0.00  0.00    +0.000 C 
ATOM     22  C   UNL     1       7.663   5.646  19.022  0.00  0.00    +0.000 C 
ENDBRANCH  19  21
ENDBRANCH  13  19
ENDBRANCH   9  13
ENDBRANCH   1  10
BRANCH   5  23
ATOM     23  C   UNL     1      -0.638  11.023  19.185  0.00  0.00    +0.000 C 
ATOM     24  O   UNL     1      -0.600  11.862  20.082  0.00  0.00    +0.000 OA
BRANCH  23  25
ATOM     25  C   UNL     1      -1.882  10.918  18.366  0.00  0.00    +0.000 A 
ATOM     26  C   UNL     1      -1.951  10.052  17.265  0.00  0.00    +0.000 A 
ATOM     27  C   UNL     1      -3.127   9.955  16.518  0.00  0.00    +0.000 A 
ATOM     28  C   UNL     1      -4.229  10.738  16.855  0.00  0.00    +0.000 A 
ATOM     29  C   UNL     1      -4.157  11.627  17.929  0.00  0.00    +0.000 A 
ATOM     30  C   UNL     1      -2.983  11.723  18.682  0.00  0.00    +0.000 A 
ENDBRANCH  23  25
ENDBRANCH   5  23
TORSDOF 9
ENDMDL
MODEL 2
REMARK VINA RESULT:      -7.4      1.275      2.719
REMARK  Name = 
REMARK  12 active torsions:
REMARK  status: ('A' for Active; 'I' for Inactive)
REMARK    1  A    between atoms: C_1  and  C_2
REMARK    2  A    between atoms: C_2  and  O_3
REMARK    3  A    between atoms: O_3  and  C_4
REMARK    4  A    between atoms: C_4  and  C_6
REMARK    5  A    between atoms: C_6  and  N_7
REMARK    6  A    between atoms: C_6  and  C_26
REMARK    7  A    between atoms: C_8  and  C_10
REMARK    8  A    between atoms: C_14  and  C_15
REMARK    9  A    between atoms: C_15  and  C_17
REMARK   10  A    between atoms: C_26  and  C_27
REMARK   11  A    between atoms: C_26  and  C_28
REMARK   12  A    between atoms: C_28  and  C_29
REMARK                            x       y       z     vdW  Elec       q    Type
REMARK                         _______ _______ _______ _____ _____    ______ ____
ROOT
ATOM      1  C   UNL     1       1.852   7.818  20.751  0.00  0.00    +0.000 C 
ATOM      2  C   UNL     1       0.594   8.075  21.626  0.00  0.00    +0.000 C 
ATOM      3  C   UNL     1      -0.045   9.370  21.100  0.00  0.00    +0.000 C 
ATOM      4  N   UNL     1       0.534   9.500  19.774  0.00  0.00    +0.000 N 
ATOM      5  C   UNL     1       0.348  10.359  18.737  0.00  0.00    +0.000 A 
ATOM      6  C   UNL     1       1.319   9.999  17.799  0.00  0.00    +0.000 A 
ATOM      7  C   UNL     1       2.124   8.952  18.334  0.00  0.00    +0.000 A 
ATOM      8  C   UNL     1       1.596   8.671  19.563  0.00  0.00    +0.000 A 
ENDROOT
BRANCH   1  10
ATOM      9  N   UNL     1       3.127   6.007  19.661  0.00  0.00    +0.000 N 
ATOM     10  C   UNL     1       2.020   6.346  20.411  0.00  0.00    +0.000 C 
ATOM     11  O   UNL     1       1.153   5.524  20.708  0.00  0.00    +0.000 OA
ATOM     12  H   UNL     1       3.892   6.677  19.607  0.00  0.00    +0.000 HD
BRANCH   9  13
ATOM     13  C   UNL     1       3.345   4.648  19.164  0.00  0.00    +0.000 C 
BRANCH  13  14
ATOM     14  C   UNL     1       4.828   4.251  19.383  0.00  0.00    +0.000 C 
ATOM     15  O   UNL     1       5.234   3.138  19.692  0.00  0.00    +0.000 OA
BRANCH  14  16
ATOM     16  O   UNL     1       5.628   5.366  19.322  0.00  0.00    +0.000 OA
BRANCH  16  18
ATOM     17  C   UNL     1       7.608   4.882  17.988  0.00  0.00    +0.000 C 
ATOM     18  C   UNL     1       6.270   5.589  18.057  0.00  0.00    +0.000 C 
ENDBRANCH  16  18
ENDBRANCH  14  16
ENDBRANCH  13  14
BRANCH  13  19
ATOM     19  C   UNL     1       2.834   4.391  17.716  0.00  0.00    +0.000 C 
ATOM     20  C   UNL     1       3.720   3.362  16.987  0.00  0.00    +0.000 C 
BRANCH  19  21
ATOM     21  C   UNL     1       1.365   3.897  17.718  0.00  0.00    +0.000 C 
ATOM     22  C   UNL     1       1.131   2.689  18.619  0.00  0.00    +0.000 C 
ENDBRANCH  19  21
ENDBRANCH  13  19
ENDBRANCH   9  13
ENDBRANCH   1  10
BRANCH   5  23
ATOM     23  C   UNL     1      -0.669  11.394  18.686  0.00  0.00    +0.000 C 
ATOM     24  O   UNL     1      -0.522  12.494  19.214  0.00  0.00    +0.000 OA
BRANCH  23  25
ATOM     25  C   UNL     1      -1.943  11.125  17.955  0.00  0.00    +0.000 A 
ATOM     26  C   UNL     1      -1.979  10.235  16.872  0.00  0.00    +0.000 A 
ATOM     27  C   UNL     1      -3.181   9.983  16.208  0.00  0.00    +0.000 A 
ATOM     28  C   UNL     1      -4.345  10.636  16.608  0.00  0.00    +0.000 A 
ATOM     29  C   UNL     1      -4.310  11.549  17.663  0.00  0.00    +0.000 A 
ATOM     30  C   UNL     1      -3.109  11.799  18.334  0.00  0.00    +0.000 A 
ENDBRANCH  23  25
ENDBRANCH   5  23
TORSDOF 9
ENDMDL
MODEL 3
REMARK VINA RESULT:      -7.4      1.379      2.669
REMARK  Name = 
REMARK  12 active torsions:
REMARK  status: ('A' for Active; 'I' for Inactive)
REMARK    1  A    between atoms: C_1  and  C_2
REMARK    2  A    between atoms: C_2  and  O_3
REMARK    3  A    between atoms: O_3  and  C_4
REMARK    4  A    between atoms: C_4  and  C_6
REMARK    5  A    between atoms: C_6  and  N_7
REMARK    6  A    between atoms: C_6  and  C_26
REMARK    7  A    between atoms: C_8  and  C_10
REMARK    8  A    between atoms: C_14  and  C_15
REMARK    9  A    between atoms: C_15  and  C_17
REMARK   10  A    between atoms: C_26  and  C_27
REMARK   11  A    between atoms: C_26  and  C_28
REMARK   12  A    between atoms: C_28  and  C_29
REMARK                            x       y       z     vdW  Elec       q    Type
REMARK                         _______ _______ _______ _____ _____    ______ ____
ROOT
ATOM      1  C   UNL     1       2.067   7.745  20.356  0.00  0.00    +0.000 C 
ATOM      2  C   UNL     1       0.828   7.674  21.291  0.00  0.00    +0.000 C 
ATOM      3  C   UNL     1      -0.026   8.915  20.977  0.00  0.00    +0.000 C 
ATOM      4  N   UNL     1       0.463   9.320  19.670  0.00  0.00    +0.000 N 
ATOM      5  C   UNL     1       0.100  10.277  18.776  0.00  0.00    +0.000 A 
ATOM      6  C   UNL     1       1.069  10.210  17.771  0.00  0.00    +0.000 A 
ATOM      7  C   UNL     1       2.048   9.238  18.126  0.00  0.00    +0.000 A 
ATOM      8  C   UNL     1       1.628   8.706  19.313  0.00  0.00    +0.000 A 
ENDROOT
BRANCH   1  10
ATOM      9  N   UNL     1       3.634   6.298  19.114  0.00  0.00    +0.000 N 
ATOM     10  C   UNL     1       2.440   6.380  19.799  0.00  0.00    +0.000 C 
ATOM     11  O   UNL     1       1.661   5.431  19.874  0.00  0.00    +0.000 OA
ATOM     12  H   UNL     1       4.313   7.047  19.243  0.00  0.00    +0.000 HD
BRANCH   9  13
ATOM     13  C   UNL     1       4.055   5.077  18.425  0.00  0.00    +0.000 C 
BRANCH  13  14
ATOM     14  C   UNL     1       5.263   4.455  19.173  0.00  0.00    +0.000 C 
ATOM     15  O   UNL     1       5.400   3.271  19.453  0.00  0.00    +0.000 OA
BRANCH  14  16
ATOM     16  O   UNL     1       6.107   5.446  19.611  0.00  0.00    +0.000 OA
BRANCH  16  18
ATOM     17  C   UNL     1       7.778   6.712  18.369  0.00  0.00    +0.000 C 
ATOM     18  C   UNL     1       7.433   5.408  19.059  0.00  0.00    +0.000 C 
ENDBRANCH  16  18
ENDBRANCH  14  16
ENDBRANCH  13  14
BRANCH  13  19
ATOM     19  C   UNL     1       4.277   5.233  16.892  0.00  0.00    +0.000 C 
ATOM     20  C   UNL     1       4.731   6.663  16.538  0.00  0.00    +0.000 C 
BRANCH  19  21
ATOM     21  C   UNL     1       5.324   4.217  16.370  0.00  0.00    +0.000 C 
ATOM     22  C   UNL     1       5.571   4.315  14.869  0.00  0.00    +0.000 C 
ENDBRANCH  19  21
ENDBRANCH  13  19
ENDBRANCH   9  13
ENDBRANCH   1  10
BRANCH   5  23
ATOM     23  C   UNL     1      -1.064  11.136  18.904  0.00  0.00    +0.000 C 
ATOM     24  O   UNL     1      -1.167  11.984  19.787  0.00  0.00    +0.000 OA
BRANCH  23  25
ATOM     25  C   UNL     1      -2.178  10.999  17.920  0.00  0.00    +0.000 A 
ATOM     26  C   UNL     1      -3.371  11.721  18.075  0.00  0.00    +0.000 A 
ATOM     27  C   UNL     1      -4.398  11.593  17.138  0.00  0.00    +0.000 A 
ATOM     28  C   UNL     1      -4.247  10.729  16.056  0.00  0.00    +0.000 A 
ATOM     29  C   UNL     1      -3.076   9.983  15.912  0.00  0.00    +0.000 A 
ATOM     30  C   UNL     1      -2.043  10.112  16.846  0.00  0.00    +0.000 A 
ENDBRANCH  23  25
ENDBRANCH   5  23
TORSDOF 9
ENDMDL
MODEL 4
REMARK VINA RESULT:      -7.4      1.012      1.060
REMARK  Name = 
REMARK  12 active torsions:
REMARK  status: ('A' for Active; 'I' for Inactive)
REMARK    1  A    between atoms: C_1  and  C_2
REMARK    2  A    between atoms: C_2  and  O_3
REMARK    3  A    between atoms: O_3  and  C_4
REMARK    4  A    between atoms: C_4  and  C_6
REMARK    5  A    between atoms: C_6  and  N_7
REMARK    6  A    between atoms: C_6  and  C_26
REMARK    7  A    between atoms: C_8  and  C_10
REMARK    8  A    between atoms: C_14  and  C_15
REMARK    9  A    between atoms: C_15  and  C_17
REMARK   10  A    between atoms: C_26  and  C_27
REMARK   11  A    between atoms: C_26  and  C_28
REMARK   12  A    between atoms: C_28  and  C_29
REMARK                            x       y       z     vdW  Elec       q    Type
REMARK                         _______ _______ _______ _____ _____    ______ ____
ROOT
ATOM      1  C   UNL     1       2.559   6.983  19.623  0.00  0.00    +0.000 C 
ATOM      2  C   UNL     1       1.506   6.829  20.754  0.00  0.00    +0.000 C 
ATOM      3  C   UNL     1       0.814   8.195  20.895  0.00  0.00    +0.000 C 
ATOM      4  N   UNL     1       1.126   8.845  19.634  0.00  0.00    +0.000 N 
ATOM      5  C   UNL     1       0.767  10.024  19.060  0.00  0.00    +0.000 A 
ATOM      6  C   UNL     1       1.525  10.093  17.887  0.00  0.00    +0.000 A 
ATOM      7  C   UNL     1       2.387   8.962  17.817  0.00  0.00    +0.000 A 
ATOM      8  C   UNL     1       2.101   8.210  18.923  0.00  0.00    +0.000 A 
ENDROOT
BRANCH   1  10
ATOM      9  N   UNL     1       3.774   5.016  18.758  0.00  0.00    +0.000 N 
ATOM     10  C   UNL     1       2.612   5.760  18.722  0.00  0.00    +0.000 C 
ATOM     11  O   UNL     1       1.701   5.515  17.931  0.00  0.00    +0.000 OA
ATOM     12  H   UNL     1       4.403   5.148  19.548  0.00  0.00    +0.000 HD
BRANCH   9  13
ATOM     13  C   UNL     1       4.003   3.887  17.856  0.00  0.00    +0.000 C 
BRANCH  13  14
ATOM     14  C   UNL     1       3.739   2.559  18.613  0.00  0.00    +0.000 C 
ATOM     15  O   UNL     1       3.615   1.454  18.102  0.00  0.00    +0.000 OA
BRANCH  14  16
ATOM     16  O   UNL     1       3.517   2.814  19.945  0.00  0.00    +0.000 OA
BRANCH  16  18
ATOM     17  C   UNL     1       1.788   3.228  21.612  0.00  0.00    +0.000 C 
ATOM     18  C   UNL     1       2.245   2.373  20.448  0.00  0.00    +0.000 C 
ENDBRANCH  16  18
ENDBRANCH  14  16
ENDBRANCH  13  14
BRANCH  13  19
ATOM     19  C   UNL     1       5.365   3.918  17.101  0.00  0.00    +0.000 C 
ATOM     20  C   UNL     1       5.166   4.236  15.606  0.00  0.00    +0.000 C 
BRANCH  19  21
ATOM     21  C   UNL     1       6.329   4.957  17.725  0.00  0.00    +0.000 C 
ATOM     22  C   UNL     1       7.796   4.547  17.652  0.00  0.00    +0.000 C 
ENDBRANCH  19  21
ENDBRANCH  13  19
ENDBRANCH   9  13
ENDBRANCH   1  10
BRANCH   5  23
ATOM     23  C   UNL     1      -0.209  10.951  19.604  0.00  0.00    +0.000 C 
ATOM     24  O   UNL     1       0.053  11.725  20.523  0.00  0.00    +0.000 OA
BRANCH  23  25
ATOM     25  C   UNL     1      -1.583  10.983  19.023  0.00  0.00    +0.000 A 
ATOM     26  C   UNL     1      -1.985  10.038  18.068  0.00  0.00    +0.000 A 
ATOM     27  C   UNL     1      -3.279  10.072  17.545  0.00  0.00    +0.000 A 
ATOM     28  C   UNL     1      -4.169  11.062  17.957  0.00  0.00    +0.000 A 
ATOM     29  C   UNL     1      -3.766  12.026  18.882  0.00  0.00    +0.000 A 
ATOM     30  C   UNL     1      -2.472  11.992  19.412  0.00  0.00    +0.000 A 
ENDBRANCH  23  25
ENDBRANCH   5  23
TORSDOF 9
ENDMDL
MODEL 5
REMARK VINA RESULT:      -7.3      1.009      1.446
REMARK  Name = 
REMARK  12 active torsions:
REMARK  status: ('A' for Active; 'I' for Inactive)
REMARK    1  A    between atoms: C_1  and  C_2
REMARK    2  A    between atoms: C_2  and  O_3
REMARK    3  A    between atoms: O_3  and  C_4
REMARK    4  A    between atoms: C_4  and  C_6
REMARK    5  A    between atoms: C_6  and  N_7
REMARK    6  A    between atoms: C_6  and  C_26
REMARK    7  A    between atoms: C_8  and  C_10
REMARK    8  A    between atoms: C_14  and  C_15
REMARK    9  A    between atoms: C_15  and  C_17
REMARK   10  A    between atoms: C_26  and  C_27
REMARK   11  A    between atoms: C_26  and  C_28
REMARK   12  A    between atoms: C_28  and  C_29
REMARK                            x       y       z     vdW  Elec       q    Type
REMARK                         _______ _______ _______ _____ _____    ______ ____
ROOT
ATOM      1  C   UNL     1       2.652   7.122  19.578  0.00  0.00    +0.000 C 
ATOM      2  C   UNL     1       1.651   6.922  20.749  0.00  0.00    +0.000 C 
ATOM      3  C   UNL     1       0.883   8.247  20.897  0.00  0.00    +0.000 C 
ATOM      4  N   UNL     1       1.110   8.895  19.617  0.00  0.00    +0.000 N 
ATOM      5  C   UNL     1       0.658  10.040  19.041  0.00  0.00    +0.000 A 
ATOM      6  C   UNL     1       1.367  10.136  17.840  0.00  0.00    +0.000 A 
ATOM      7  C   UNL     1       2.294   9.058  17.753  0.00  0.00    +0.000 A 
ATOM      8  C   UNL     1       2.095   8.308  18.879  0.00  0.00    +0.000 A 
ENDROOT
BRANCH   1  10
ATOM      9  N   UNL     1       3.978   5.271  18.626  0.00  0.00    +0.000 N 
ATOM     10  C   UNL     1       2.747   5.891  18.692  0.00  0.00    +0.000 C 
ATOM     11  O   UNL     1       1.796   5.535  17.997  0.00  0.00    +0.000 OA
ATOM     12  H   UNL     1       4.662   5.485  19.349  0.00  0.00    +0.000 HD
BRANCH   9  13
ATOM     13  C   UNL     1       4.238   4.151  17.721  0.00  0.00    +0.000 C 
BRANCH  13  14
ATOM     14  C   UNL     1       4.079   2.816  18.494  0.00  0.00    +0.000 C 
ATOM     15  O   UNL     1       3.602   1.781  18.047  0.00  0.00    +0.000 OA
BRANCH  14  16
ATOM     16  O   UNL     1       4.421   2.992  19.813  0.00  0.00    +0.000 OA
BRANCH  16  18
ATOM     17  C   UNL     1       2.307   3.063  21.022  0.00  0.00    +0.000 C 
ATOM     18  C   UNL     1       3.589   2.300  20.758  0.00  0.00    +0.000 C 
ENDBRANCH  16  18
ENDBRANCH  14  16
ENDBRANCH  13  14
BRANCH  13  19
ATOM     19  C   UNL     1       5.566   4.255  16.914  0.00  0.00    +0.000 C 
ATOM     20  C   UNL     1       5.381   5.109  15.645  0.00  0.00    +0.000 C 
BRANCH  19  21
ATOM     21  C   UNL     1       6.703   4.856  17.779  0.00  0.00    +0.000 C 
ATOM     22  C   UNL     1       7.176   6.223  17.297  0.00  0.00    +0.000 C 
ENDBRANCH  19  21
ENDBRANCH  13  19
ENDBRANCH   9  13
ENDBRANCH   1  10
BRANCH   5  23
ATOM     23  C   UNL     1      -0.352  10.915  19.608  0.00  0.00    +0.000 C 
ATOM     24  O   UNL     1      -0.136  11.632  20.583  0.00  0.00    +0.000 OA
BRANCH  23  25
ATOM     25  C   UNL     1      -1.706  10.963  18.981  0.00  0.00    +0.000 A 
ATOM     26  C   UNL     1      -2.628  11.961  19.330  0.00  0.00    +0.000 A 
ATOM     27  C   UNL     1      -3.885  12.000  18.723  0.00  0.00    +0.000 A 
ATOM     28  C   UNL     1      -4.234  11.032  17.784  0.00  0.00    +0.000 A 
ATOM     29  C   UNL     1      -3.334  10.016  17.456  0.00  0.00    +0.000 A 
ATOM     30  C   UNL     1      -2.072   9.977  18.058  0.00  0.00    +0.000 A 
ENDBRANCH  23  25
ENDBRANCH   5  23
TORSDOF 9
ENDMDL
MODEL 6
REMARK VINA RESULT:      -7.2      1.135      1.951
REMARK  Name = 
REMARK  12 active torsions:
REMARK  status: ('A' for Active; 'I' for Inactive)
REMARK    1  A    between atoms: C_1  and  C_2
REMARK    2  A    between atoms: C_2  and  O_3
REMARK    3  A    between atoms: O_3  and  C_4
REMARK    4  A    between atoms: C_4  and  C_6
REMARK    5  A    between atoms: C_6  and  N_7
REMARK    6  A    between atoms: C_6  and  C_26
REMARK    7  A    between atoms: C_8  and  C_10
REMARK    8  A    between atoms: C_14  and  C_15
REMARK    9  A    between atoms: C_15  and  C_17
REMARK   10  A    between atoms: C_26  and  C_27
REMARK   11  A    between atoms: C_26  and  C_28
REMARK   12  A    between atoms: C_28  and  C_29
REMARK                            x       y       z     vdW  Elec       q    Type
REMARK                         _______ _______ _______ _____ _____    ______ ____
ROOT
ATOM      1  C   UNL     1       2.653   7.077  19.620  0.00  0.00    +0.000 C 
ATOM      2  C   UNL     1       1.569   6.858  20.710  0.00  0.00    +0.000 C 
ATOM      3  C   UNL     1       0.802   8.186  20.834  0.00  0.00    +0.000 C 
ATOM      4  N   UNL     1       1.126   8.862  19.590  0.00  0.00    +0.000 N 
ATOM      5  C   UNL     1       0.726  10.025  19.010  0.00  0.00    +0.000 A 
ATOM      6  C   UNL     1       1.522  10.143  17.867  0.00  0.00    +0.000 A 
ATOM      7  C   UNL     1       2.444   9.059  17.822  0.00  0.00    +0.000 A 
ATOM      8  C   UNL     1       2.158   8.285  18.911  0.00  0.00    +0.000 A 
ENDROOT
BRANCH   1  10
ATOM      9  N   UNL     1       4.085   5.554  18.306  0.00  0.00    +0.000 N 
ATOM     10  C   UNL     1       2.804   5.866  18.713  0.00  0.00    +0.000 C 
ATOM     11  O   UNL     1       1.817   5.265  18.290  0.00  0.00    +0.000 OA
ATOM     12  H   UNL     1       4.863   5.956  18.825  0.00  0.00    +0.000 HD
BRANCH   9  13
ATOM     13  C   UNL     1       4.357   4.490  17.339  0.00  0.00    +0.000 C 
BRANCH  13  14
ATOM     14  C   UNL     1       4.263   3.113  18.049  0.00  0.00    +0.000 C 
ATOM     15  O   UNL     1       3.758   2.100  17.583  0.00  0.00    +0.000 OA
BRANCH  14  16
ATOM     16  O   UNL     1       4.702   3.221  19.346  0.00  0.00    +0.000 OA
BRANCH  16  18
ATOM     17  C   UNL     1       2.827   2.883  20.865  0.00  0.00    +0.000 C 
ATOM     18  C   UNL     1       4.097   2.306  20.274  0.00  0.00    +0.000 C 
ENDBRANCH  16  18
ENDBRANCH  14  16
ENDBRANCH  13  14
BRANCH  13  19
ATOM     19  C   UNL     1       5.658   4.679  16.506  0.00  0.00    +0.000 C 
ATOM     20  C   UNL     1       6.906   4.664  17.411  0.00  0.00    +0.000 C 
BRANCH  19  21
ATOM     21  C   UNL     1       5.796   3.581  15.422  0.00  0.00    +0.000 C 
ATOM     22  C   UNL     1       6.143   4.128  14.042  0.00  0.00    +0.000 C 
ENDBRANCH  19  21
ENDBRANCH  13  19
ENDBRANCH   9  13
ENDBRANCH   1  10
BRANCH   5  23
ATOM     23  C   UNL     1      -0.316  10.896  19.524  0.00  0.00    +0.000 C 
ATOM     24  O   UNL     1      -0.137  11.653  20.476  0.00  0.00    +0.000 OA
BRANCH  23  25
ATOM     25  C   UNL     1      -1.657  10.888  18.869  0.00  0.00    +0.000 A 
ATOM     26  C   UNL     1      -2.628  11.845  19.199  0.00  0.00    +0.000 A 
ATOM     27  C   UNL     1      -3.873  11.832  18.566  0.00  0.00    +0.000 A 
ATOM     28  C   UNL     1      -4.160  10.852  17.619  0.00  0.00    +0.000 A 
ATOM     29  C   UNL     1      -3.211   9.875  17.309  0.00  0.00    +0.000 A 
ATOM     30  C   UNL     1      -1.962   9.888  17.938  0.00  0.00    +0.000 A 
ENDBRANCH  23  25
ENDBRANCH   5  23
TORSDOF 9
ENDMDL
MODEL 7
REMARK VINA RESULT:      -7.2      1.036      2.896
REMARK  Name = 
REMARK  12 active torsions:
REMARK  status: ('A' for Active; 'I' for Inactive)
REMARK    1  A    between atoms: C_1  and  C_2
REMARK    2  A    between atoms: C_2  and  O_3
REMARK    3  A    between atoms: O_3  and  C_4
REMARK    4  A    between atoms: C_4  and  C_6
REMARK    5  A    between atoms: C_6  and  N_7
REMARK    6  A    between atoms: C_6  and  C_26
REMARK    7  A    between atoms: C_8  and  C_10
REMARK    8  A    between atoms: C_14  and  C_15
REMARK    9  A    between atoms: C_15  and  C_17
REMARK   10  A    between atoms: C_26  and  C_27
REMARK   11  A    between atoms: C_26  and  C_28
REMARK   12  A    between atoms: C_28  and  C_29
REMARK                            x       y       z     vdW  Elec       q    Type
REMARK                         _______ _______ _______ _____ _____    ______ ____
ROOT
ATOM      1  C   UNL     1       2.264   7.602  20.155  0.00  0.00    +0.000 C 
ATOM      2  C   UNL     1       1.093   7.623  21.175  0.00  0.00    +0.000 C 
ATOM      3  C   UNL     1       0.373   8.968  20.985  0.00  0.00    +0.000 C 
ATOM      4  N   UNL     1       0.815   9.386  19.666  0.00  0.00    +0.000 N 
ATOM      5  C   UNL     1       0.507  10.427  18.847  0.00  0.00    +0.000 A 
ATOM      6  C   UNL     1       1.390  10.305  17.771  0.00  0.00    +0.000 A 
ATOM      7  C   UNL     1       2.269   9.209  18.005  0.00  0.00    +0.000 A 
ATOM      8  C   UNL     1       1.871   8.664  19.194  0.00  0.00    +0.000 A 
ENDROOT
BRANCH   1  10
ATOM      9  N   UNL     1       3.090   5.278  20.251  0.00  0.00    +0.000 N 
ATOM     10  C   UNL     1       2.433   6.237  19.507  0.00  0.00    +0.000 C 
ATOM     11  O   UNL     1       2.088   6.041  18.342  0.00  0.00    +0.000 OA
ATOM     12  H   UNL     1       3.182   5.429  21.254  0.00  0.00    +0.000 HD
BRANCH   9  13
ATOM     13  C   UNL     1       3.425   3.963  19.703  0.00  0.00    +0.000 C 
BRANCH  13  14
ATOM     14  C   UNL     1       4.551   4.116  18.647  0.00  0.00    +0.000 C 
ATOM     15  O   UNL     1       4.405   4.071  17.432  0.00  0.00    +0.000 OA
BRANCH  14  16
ATOM     16  O   UNL     1       5.775   4.169  19.268  0.00  0.00    +0.000 OA
BRANCH  16  18
ATOM     17  C   UNL     1       7.679   5.381  18.351  0.00  0.00    +0.000 C 
ATOM     18  C   UNL     1       6.434   5.444  19.212  0.00  0.00    +0.000 C 
ENDBRANCH  16  18
ENDBRANCH  14  16
ENDBRANCH  13  14
BRANCH  13  19
ATOM     19  C   UNL     1       2.207   3.130  19.205  0.00  0.00    +0.000 C 
ATOM     20  C   UNL     1       2.608   1.669  18.926  0.00  0.00    +0.000 C 
BRANCH  19  21
ATOM     21  C   UNL     1       1.049   3.159  20.234  0.00  0.00    +0.000 C 
ATOM     22  C   UNL     1       1.415   2.544  21.580  0.00  0.00    +0.000 C 
ENDBRANCH  19  21
ENDBRANCH  13  19
ENDBRANCH   9  13
ENDBRANCH   1  10
BRANCH   5  23
ATOM     23  C   UNL     1      -0.535  11.405  19.102  0.00  0.00    +0.000 C 
ATOM     24  O   UNL     1      -0.331  12.442  19.730  0.00  0.00    +0.000 OA
BRANCH  23  25
ATOM     25  C   UNL     1      -1.909  11.158  18.573  0.00  0.00    +0.000 A 
ATOM     26  C   UNL     1      -2.146  10.154  17.622  0.00  0.00    +0.000 A 
ATOM     27  C   UNL     1      -3.439   9.925  17.147  0.00  0.00    +0.000 A 
ATOM     28  C   UNL     1      -4.495  10.711  17.604  0.00  0.00    +0.000 A 
ATOM     29  C   UNL     1      -4.262  11.733  18.525  0.00  0.00    +0.000 A 
ATOM     30  C   UNL     1      -2.969  11.962  19.006  0.00  0.00    +0.000 A 
ENDBRANCH  23  25
ENDBRANCH   5  23
TORSDOF 9
ENDMDL
MODEL 8
REMARK VINA RESULT:      -7.2      1.849      8.683
REMARK  Name = 
REMARK  12 active torsions:
REMARK  status: ('A' for Active; 'I' for Inactive)
REMARK    1  A    between atoms: C_1  and  C_2
REMARK    2  A    between atoms: C_2  and  O_3
REMARK    3  A    between atoms: O_3  and  C_4
REMARK    4  A    between atoms: C_4  and  C_6
REMARK    5  A    between atoms: C_6  and  N_7
REMARK    6  A    between atoms: C_6  and  C_26
REMARK    7  A    between atoms: C_8  and  C_10
REMARK    8  A    between atoms: C_14  and  C_15
REMARK    9  A    between atoms: C_15  and  C_17
REMARK   10  A    between atoms: C_26  and  C_27
REMARK   11  A    between atoms: C_26  and  C_28
REMARK   12  A    between atoms: C_28  and  C_29
REMARK                            x       y       z     vdW  Elec       q    Type
REMARK                         _______ _______ _______ _____ _____    ______ ____
ROOT
ATOM      1  C   UNL     1       1.662   9.198  19.474  0.00  0.00    +0.000 C 
ATOM      2  C   UNL     1       2.064   9.289  17.976  0.00  0.00    +0.000 C 
ATOM      3  C   UNL     1       2.831   7.996  17.651  0.00  0.00    +0.000 C 
ATOM      4  N   UNL     1       2.435   7.107  18.730  0.00  0.00    +0.000 N 
ATOM      5  C   UNL     1       2.669   5.799  19.015  0.00  0.00    +0.000 A 
ATOM      6  C   UNL     1       2.097   5.603  20.274  0.00  0.00    +0.000 A 
ATOM      7  C   UNL     1       1.579   6.840  20.754  0.00  0.00    +0.000 A 
ATOM      8  C   UNL     1       1.808   7.747  19.757  0.00  0.00    +0.000 A 
ENDROOT
BRANCH   1  10
ATOM      9  N   UNL     1      -0.437  10.176  18.618  0.00  0.00    +0.000 N 
ATOM     10  C   UNL     1       0.256   9.721  19.721  0.00  0.00    +0.000 C 
ATOM     11  O   UNL     1      -0.191   9.822  20.863  0.00  0.00    +0.000 OA
ATOM     12  H   UNL     1      -0.104   9.899  17.696  0.00  0.00    +0.000 HD
BRANCH   9  13
ATOM     13  C   UNL     1      -1.749  10.814  18.731  0.00  0.00    +0.000 C 
BRANCH  13  14
ATOM     14  C   UNL     1      -2.697  10.238  17.647  0.00  0.00    +0.000 C 
ATOM     15  O   UNL     1      -3.713   9.588  17.856  0.00  0.00    +0.000 OA
BRANCH  14  16
ATOM     16  O   UNL     1      -2.160  10.436  16.398  0.00  0.00    +0.000 OA
BRANCH  16  18
ATOM     17  C   UNL     1      -3.722  10.414  14.529  0.00  0.00    +0.000 C 
ATOM     18  C   UNL     1      -2.726   9.626  15.355  0.00  0.00    +0.000 C 
ENDBRANCH  16  18
ENDBRANCH  14  16
ENDBRANCH  13  14
BRANCH  13  19
ATOM     19  C   UNL     1      -1.718  12.370  18.776  0.00  0.00    +0.000 C 
ATOM     20  C   UNL     1      -2.240  12.899  20.126  0.00  0.00    +0.000 C 
BRANCH  19  21
ATOM     21  C   UNL     1      -0.288  12.911  18.529  0.00  0.00    +0.000 C 
ATOM     22  C   UNL     1       0.395  13.426  19.791  0.00  0.00    +0.000 C 
ENDBRANCH  19  21
ENDBRANCH  13  19
ENDBRANCH   9  13
ENDBRANCH   1  10
BRANCH   5  23
ATOM     23  C   UNL     1       3.362   4.868  18.142  0.00  0.00    +0.000 C 
ATOM     24  O   UNL     1       2.770   4.046  17.446  0.00  0.00    +0.000 OA
BRANCH  23  25
ATOM     25  C   UNL     1       4.852   4.913  18.070  0.00  0.00    +0.000 A 
ATOM     26  C   UNL     1       5.537   4.407  16.955  0.00  0.00    +0.000 A 
ATOM     27  C   UNL     1       6.931   4.470  16.897  0.00  0.00    +0.000 A 
ATOM     28  C   UNL     1       7.646   5.019  17.959  0.00  0.00    +0.000 A 
ATOM     29  C   UNL     1       6.974   5.495  19.086  0.00  0.00    +0.000 A 
ATOM     30  C   UNL     1       5.578   5.438  19.145  0.00  0.00    +0.000 A 
ENDBRANCH  23  25
ENDBRANCH   5  23
TORSDOF 9
ENDMDL
MODEL 9
REMARK VINA RESULT:      -7.2      1.875      8.550
REMARK  Name = 
REMARK  12 active torsions:
REMARK  status: ('A' for Active; 'I' for Inactive)
REMARK    1  A    between atoms: C_1  and  C_2
REMARK    2  A    between atoms: C_2  and  O_3
REMARK    3  A    between atoms: O_3  and  C_4
REMARK    4  A    between atoms: C_4  and  C_6
REMARK    5  A    between atoms: C_6  and  N_7
REMARK    6  A    between atoms: C_6  and  C_26
REMARK    7  A    between atoms: C_8  and  C_10
REMARK    8  A    between atoms: C_14  and  C_15
REMARK    9  A    between atoms: C_15  and  C_17
REMARK   10  A    between atoms: C_26  and  C_27
REMARK   11  A    between atoms: C_26  and  C_28
REMARK   12  A    between atoms: C_28  and  C_29
REMARK                            x       y       z     vdW  Elec       q    Type
REMARK                         _______ _______ _______ _____ _____    ______ ____
ROOT
ATOM      1  C   UNL     1       2.014   8.283  19.882  0.00  0.00    +0.000 C 
ATOM      2  C   UNL     1       2.326   8.633  18.402  0.00  0.00    +0.000 C 
ATOM      3  C   UNL     1       2.911   7.361  17.767  0.00  0.00    +0.000 C 
ATOM      4  N   UNL     1       2.483   6.318  18.683  0.00  0.00    +0.000 N 
ATOM      5  C   UNL     1       2.578   4.962  18.688  0.00  0.00    +0.000 A 
ATOM      6  C   UNL     1       2.070   4.575  19.931  0.00  0.00    +0.000 A 
ATOM      7  C   UNL     1       1.735   5.737  20.684  0.00  0.00    +0.000 A 
ATOM      8  C   UNL     1       2.005   6.798  19.866  0.00  0.00    +0.000 A 
ENDROOT
BRANCH   1  10
ATOM      9  N   UNL     1       0.270  10.019  19.683  0.00  0.00    +0.000 N 
ATOM     10  C   UNL     1       0.700   8.888  20.348  0.00  0.00    +0.000 C 
ATOM     11  O   UNL     1       0.110   8.443  21.332  0.00  0.00    +0.000 OA
ATOM     12  H   UNL     1       0.684  10.228  18.777  0.00  0.00    +0.000 HD
BRANCH   9  13
ATOM     13  C   UNL     1      -0.913  10.769  20.107  0.00  0.00    +0.000 C 
BRANCH  13  14
ATOM     14  C   UNL     1      -1.774  11.118  18.864  0.00  0.00    +0.000 C 
ATOM     15  O   UNL     1      -2.568  12.046  18.780  0.00  0.00    +0.000 OA
BRANCH  14  16
ATOM     16  O   UNL     1      -1.629  10.147  17.904  0.00  0.00    +0.000 OA
BRANCH  16  18
ATOM     17  C   UNL     1      -2.682  10.279  15.710  0.00  0.00    +0.000 C 
ATOM     18  C   UNL     1      -2.818   9.845  17.155  0.00  0.00    +0.000 C 
ENDBRANCH  16  18
ENDBRANCH  14  16
ENDBRANCH  13  14
BRANCH  13  19
ATOM     19  C   UNL     1      -0.620  11.988  21.030  0.00  0.00    +0.000 C 
ATOM     20  C   UNL     1      -0.797  11.616  22.516  0.00  0.00    +0.000 C 
BRANCH  19  21
ATOM     21  C   UNL     1       0.812  12.533  20.802  0.00  0.00    +0.000 C 
ATOM     22  C   UNL     1       0.891  13.599  19.714  0.00  0.00    +0.000 C 
ENDBRANCH  19  21
ENDBRANCH  13  19
ENDBRANCH   9  13
ENDBRANCH   1  10
BRANCH   5  23
ATOM     23  C   UNL     1       3.097   4.160  17.594  0.00  0.00    +0.000 C 
ATOM     24  O   UNL     1       2.394   3.387  16.947  0.00  0.00    +0.000 OA
BRANCH  23  25
ATOM     25  C   UNL     1       4.539   4.282  17.226  0.00  0.00    +0.000 A 
ATOM     26  C   UNL     1       4.963   4.107  15.900  0.00  0.00    +0.000 A 
ATOM     27  C   UNL     1       6.313   4.239  15.570  0.00  0.00    +0.000 A 
ATOM     28  C   UNL     1       7.246   4.524  16.564  0.00  0.00    +0.000 A 
ATOM     29  C   UNL     1       6.837   4.666  17.891  0.00  0.00    +0.000 A 
ATOM     30  C   UNL     1       5.485   4.539  18.225  0.00  0.00    +0.000 A 
ENDBRANCH  23  25
ENDBRANCH   5  23
TORSDOF 9
ENDMDL
