MODEL 1
REMARK VINA RESULT:      -8.3      0.000      0.000
REMARK  Name = 
REMARK  6 active torsions:
REMARK  status: ('A' for Active; 'I' for Inactive)
REMARK    1  A    between atoms: O_1  and  C_2
REMARK    2  A    between atoms: C_2  and  C_3
REMARK    3  A    between atoms: C_2  and  C_10
REMARK    4  A    between atoms: C_2  and  C_28
REMARK    5  A    between atoms: C_17  and  C_18
REMARK    6  A    between atoms: C_19  and  C_20
REMARK                            x       y       z     vdW  Elec       q    Type
REMARK                         _______ _______ _______ _____ _____    ______ ____
ROOT
ATOM      1  C   UNL     1       4.849   5.252  17.921  0.00  0.00    +0.000 A 
ATOM      2  C   UNL     1       5.307   3.935  17.999  0.00  0.00    +0.000 A 
ATOM      3  C   UNL     1       4.768   3.041  18.929  0.00  0.00    +0.000 A 
ATOM      4  C   UNL     1       3.714   3.382  19.754  0.00  0.00    +0.000 A 
ATOM      5  N   UNL     1       3.264   2.444  20.608  0.00  0.00    +0.000 NA
ATOM      6  C   UNL     1       2.214   2.745  21.393  0.00  0.00    +0.000 A 
ATOM      7  C   UNL     1       1.554   3.954  21.355  0.00  0.00    +0.000 A 
ATOM      8  C   UNL     1       2.013   4.941  20.474  0.00  0.00    +0.000 A 
ATOM      9  C   UNL     1       3.156   4.676  19.662  0.00  0.00    +0.000 A 
ATOM     10  C   UNL     1       3.791   5.603  18.787  0.00  0.00    +0.000 A 
ENDROOT
BRANCH   8  11
ATOM     11  C   UNL     1       1.290   6.229  20.521  0.00  0.00    +0.000 C 
ATOM     12  C   UNL     1       1.839   7.418  20.820  0.00  0.00    +0.000 C 
BRANCH  12  13
ATOM     13  C   UNL     1       1.048   8.641  21.037  0.00  0.00    +0.000 A 
ATOM     14  C   UNL     1       0.661   8.955  22.348  0.00  0.00    +0.000 A 
ATOM     15  C   UNL     1      -0.171  10.047  22.603  0.00  0.00    +0.000 A 
ATOM     16  C   UNL     1      -0.609  10.850  21.553  0.00  0.00    +0.000 A 
ATOM     17  C   UNL     1      -0.192  10.577  20.251  0.00  0.00    +0.000 A 
ATOM     18  C   UNL     1       0.639   9.482  19.995  0.00  0.00    +0.000 A 
ENDBRANCH  12  13
ENDBRANCH   8  11
BRANCH   1  19
ATOM     19  C   UNL     1       5.454   6.301  16.963  0.00  0.00    +0.000 C 
BRANCH  19  20
ATOM     20  C   UNL     1       6.608   7.168  17.504  0.00  0.00    +0.000 A 
ATOM     21  C   UNL     1       6.679   8.521  17.091  0.00  0.00    +0.000 A 
ATOM     22  C   UNL     1       7.631   9.402  17.613  0.00  0.00    +0.000 A 
ATOM     23  C   UNL     1       8.568   8.940  18.529  0.00  0.00    +0.000 A 
ATOM     24 CL   UNL     1       9.711  10.028  19.210  0.00  0.00    +0.000 Cl
ATOM     25  C   UNL     1       8.575   7.601  18.902  0.00  0.00    +0.000 A 
ATOM     26  C   UNL     1       7.612   6.723  18.390  0.00  0.00    +0.000 A 
ENDBRANCH  19  20
BRANCH  19  27
ATOM     27  C   UNL     1       5.937   5.491  15.759  0.00  0.00    +0.000 A 
ATOM     28  C   UNL     1       5.148   4.655  14.978  0.00  0.00    +0.000 A 
ATOM     29  S   UNL     1       6.076   3.911  13.746  0.00  0.00    +0.000 S 
ATOM     30  C   UNL     1       7.462   4.737  14.317  0.00  0.00    +0.000 A 
ATOM     31  N   UNL     1       7.284   5.508  15.367  0.00  0.00    +0.000 NA
ENDBRANCH  19  27
BRANCH  19  32
ATOM     32  O   UNL     1       4.425   7.231  16.578  0.00  0.00    +0.000 OA
ATOM     33  H   UNL     1       4.877   8.019  16.237  0.00  0.00    +0.000 HD
ENDBRANCH  19  32
ENDBRANCH   1  19
TORSDOF 6
ENDMDL
MODEL 2
REMARK VINA RESULT:      -7.9      5.449      8.815
REMARK  Name = 
REMARK  6 active torsions:
REMARK  status: ('A' for Active; 'I' for Inactive)
REMARK    1  A    between atoms: O_1  and  C_2
REMARK    2  A    between atoms: C_2  and  C_3
REMARK    3  A    between atoms: C_2  and  C_10
REMARK    4  A    between atoms: C_2  and  C_28
REMARK    5  A    between atoms: C_17  and  C_18
REMARK    6  A    between atoms: C_19  and  C_20
REMARK                            x       y       z     vdW  Elec       q    Type
REMARK                         _______ _______ _______ _____ _____    ______ ____
ROOT
ATOM      1  C   UNL     1      -0.947  10.599  18.963  0.00  0.00    +0.000 A 
ATOM      2  C   UNL     1      -1.094  10.192  17.635  0.00  0.00    +0.000 A 
ATOM      3  C   UNL     1      -2.295  10.400  16.949  0.00  0.00    +0.000 A 
ATOM      4  C   UNL     1      -3.357  11.082  17.512  0.00  0.00    +0.000 A 
ATOM      5  N   UNL     1      -4.465  11.235  16.763  0.00  0.00    +0.000 NA
ATOM      6  C   UNL     1      -5.494  11.929  17.281  0.00  0.00    +0.000 A 
ATOM      7  C   UNL     1      -5.471  12.515  18.528  0.00  0.00    +0.000 A 
ATOM      8  C   UNL     1      -4.327  12.360  19.320  0.00  0.00    +0.000 A 
ATOM      9  C   UNL     1      -3.234  11.589  18.824  0.00  0.00    +0.000 A 
ATOM     10  C   UNL     1      -2.045  11.270  19.542  0.00  0.00    +0.000 A 
ENDROOT
BRANCH   8  11
ATOM     11  C   UNL     1      -4.389  12.973  20.664  0.00  0.00    +0.000 C 
ATOM     12  C   UNL     1      -3.880  14.171  20.996  0.00  0.00    +0.000 C 
BRANCH  12  13
ATOM     13  C   UNL     1      -3.800  14.657  22.383  0.00  0.00    +0.000 A 
ATOM     14  C   UNL     1      -4.535  15.801  22.727  0.00  0.00    +0.000 A 
ATOM     15  C   UNL     1      -4.423  16.365  24.000  0.00  0.00    +0.000 A 
ATOM     16  C   UNL     1      -3.589  15.780  24.949  0.00  0.00    +0.000 A 
ATOM     17  C   UNL     1      -2.890  14.616  24.635  0.00  0.00    +0.000 A 
ATOM     18  C   UNL     1      -3.001  14.052  23.360  0.00  0.00    +0.000 A 
ENDBRANCH  12  13
ENDBRANCH   8  11
BRANCH   1  19
ATOM     19  C   UNL     1       0.330  10.334  19.789  0.00  0.00    +0.000 C 
BRANCH  19  20
ATOM     20  C   UNL     1       1.273   9.220  19.293  0.00  0.00    +0.000 A 
ATOM     21  C   UNL     1       1.542   8.134  20.161  0.00  0.00    +0.000 A 
ATOM     22  C   UNL     1       2.302   7.033  19.753  0.00  0.00    +0.000 A 
ATOM     23  C   UNL     1       2.853   7.013  18.478  0.00  0.00    +0.000 A 
ATOM     24 CL   UNL     1       3.749   5.644  17.952  0.00  0.00    +0.000 Cl
ATOM     25  C   UNL     1       2.672   8.094  17.623  0.00  0.00    +0.000 A 
ATOM     26  C   UNL     1       1.898   9.189  18.028  0.00  0.00    +0.000 A 
ENDBRANCH  19  20
BRANCH  19  27
ATOM     27  C   UNL     1       1.071  11.673  19.797  0.00  0.00    +0.000 A 
ATOM     28  C   UNL     1       1.413  12.413  18.672  0.00  0.00    +0.000 A 
ATOM     29  S   UNL     1       2.260  13.836  19.109  0.00  0.00    +0.000 S 
ATOM     30  C   UNL     1       2.121  13.390  20.755  0.00  0.00    +0.000 A 
ATOM     31  N   UNL     1       1.510  12.252  20.997  0.00  0.00    +0.000 NA
ENDBRANCH  19  27
BRANCH  19  32
ATOM     32  O   UNL     1      -0.048   9.948  21.123  0.00  0.00    +0.000 OA
ATOM     33  H   UNL     1       0.423   9.122  21.317  0.00  0.00    +0.000 HD
ENDBRANCH  19  32
ENDBRANCH   1  19
TORSDOF 6
ENDMDL
MODEL 3
REMARK VINA RESULT:      -7.7      5.728      9.095
REMARK  Name = 
REMARK  6 active torsions:
REMARK  status: ('A' for Active; 'I' for Inactive)
REMARK    1  A    between atoms: O_1  and  C_2
REMARK    2  A    between atoms: C_2  and  C_3
REMARK    3  A    between atoms: C_2  and  C_10
REMARK    4  A    between atoms: C_2  and  C_28
REMARK    5  A    between atoms: C_17  and  C_18
REMARK    6  A    between atoms: C_19  and  C_20
REMARK                            x       y       z     vdW  Elec       q    Type
REMARK                         _______ _______ _______ _____ _____    ______ ____
ROOT
ATOM      1  C   UNL     1      -1.108  10.748  19.179  0.00  0.00    +0.000 A 
ATOM      2  C   UNL     1      -1.473  10.065  18.018  0.00  0.00    +0.000 A 
ATOM      3  C   UNL     1      -2.758  10.198  17.480  0.00  0.00    +0.000 A 
ATOM      4  C   UNL     1      -3.694  11.061  18.014  0.00  0.00    +0.000 A 
ATOM      5  N   UNL     1      -4.898  11.121  17.416  0.00  0.00    +0.000 NA
ATOM      6  C   UNL     1      -5.810  11.983  17.899  0.00  0.00    +0.000 A 
ATOM      7  C   UNL     1      -5.573  12.831  18.959  0.00  0.00    +0.000 A 
ATOM      8  C   UNL     1      -4.327  12.778  19.594  0.00  0.00    +0.000 A 
ATOM      9  C   UNL     1      -3.352  11.840  19.141  0.00  0.00    +0.000 A 
ATOM     10  C   UNL     1      -2.079  11.607  19.737  0.00  0.00    +0.000 A 
ENDROOT
BRANCH   8  11
ATOM     11  C   UNL     1      -4.159  13.679  20.754  0.00  0.00    +0.000 C 
ATOM     12  C   UNL     1      -4.748  13.523  21.951  0.00  0.00    +0.000 C 
BRANCH  12  13
ATOM     13  C   UNL     1      -4.701  14.542  23.012  0.00  0.00    +0.000 A 
ATOM     14  C   UNL     1      -5.817  15.373  23.182  0.00  0.00    +0.000 A 
ATOM     15  C   UNL     1      -5.793  16.420  24.107  0.00  0.00    +0.000 A 
ATOM     16  C   UNL     1      -4.659  16.634  24.887  0.00  0.00    +0.000 A 
ATOM     17  C   UNL     1      -3.561  15.784  24.762  0.00  0.00    +0.000 A 
ATOM     18  C   UNL     1      -3.585  14.738  23.835  0.00  0.00    +0.000 A 
ENDBRANCH  12  13
ENDBRANCH   8  11
BRANCH   1  19
ATOM     19  C   UNL     1       0.271  10.586  19.855  0.00  0.00    +0.000 C 
BRANCH  19  20
ATOM     20  C   UNL     1       1.186   9.461  19.330  0.00  0.00    +0.000 A 
ATOM     21  C   UNL     1       1.467   8.370  20.188  0.00  0.00    +0.000 A 
ATOM     22  C   UNL     1       2.202   7.262  19.756  0.00  0.00    +0.000 A 
ATOM     23  C   UNL     1       2.715   7.237  18.466  0.00  0.00    +0.000 A 
ATOM     24 CL   UNL     1       3.579   5.858  17.911  0.00  0.00    +0.000 Cl
ATOM     25  C   UNL     1       2.523   8.322  17.618  0.00  0.00    +0.000 A 
ATOM     26  C   UNL     1       1.773   9.425  18.047  0.00  0.00    +0.000 A 
ENDBRANCH  19  20
BRANCH  19  27
ATOM     27  C   UNL     1       0.956  11.940  19.666  0.00  0.00    +0.000 A 
ATOM     28  C   UNL     1       1.707  12.607  20.625  0.00  0.00    +0.000 A 
ATOM     29  S   UNL     1       2.277  14.106  20.025  0.00  0.00    +0.000 S 
ATOM     30  C   UNL     1       1.499  13.784  18.535  0.00  0.00    +0.000 A 
ATOM     31  N   UNL     1       0.833  12.653  18.463  0.00  0.00    +0.000 NA
ENDBRANCH  19  27
BRANCH  19  32
ATOM     32  O   UNL     1       0.076  10.298  21.252  0.00  0.00    +0.000 OA
ATOM     33  H   UNL     1       0.937  10.014  21.599  0.00  0.00    +0.000 HD
ENDBRANCH  19  32
ENDBRANCH   1  19
TORSDOF 6
ENDMDL
MODEL 4
REMARK VINA RESULT:      -7.6      6.005      9.235
REMARK  Name = 
REMARK  6 active torsions:
REMARK  status: ('A' for Active; 'I' for Inactive)
REMARK    1  A    between atoms: O_1  and  C_2
REMARK    2  A    between atoms: C_2  and  C_3
REMARK    3  A    between atoms: C_2  and  C_10
REMARK    4  A    between atoms: C_2  and  C_28
REMARK    5  A    between atoms: C_17  and  C_18
REMARK    6  A    between atoms: C_19  and  C_20
REMARK                            x       y       z     vdW  Elec       q    Type
REMARK                         _______ _______ _______ _____ _____    ______ ____
ROOT
ATOM      1  C   UNL     1       1.503  13.693  19.934  0.00  0.00    +0.000 A 
ATOM      2  C   UNL     1       0.354  14.429  19.641  0.00  0.00    +0.000 A 
ATOM      3  C   UNL     1      -0.695  13.862  18.909  0.00  0.00    +0.000 A 
ATOM      4  C   UNL     1      -0.686  12.539  18.513  0.00  0.00    +0.000 A 
ATOM      5  N   UNL     1      -1.750  12.091  17.820  0.00  0.00    +0.000 NA
ATOM      6  C   UNL     1      -1.776  10.795  17.458  0.00  0.00    +0.000 A 
ATOM      7  C   UNL     1      -0.786   9.892  17.779  0.00  0.00    +0.000 A 
ATOM      8  C   UNL     1       0.328  10.345  18.495  0.00  0.00    +0.000 A 
ATOM      9  C   UNL     1       0.415  11.724  18.853  0.00  0.00    +0.000 A 
ATOM     10  C   UNL     1       1.519  12.349  19.502  0.00  0.00    +0.000 A 
ENDROOT
BRANCH   8  11
ATOM     11  C   UNL     1       1.373   9.335  18.762  0.00  0.00    +0.000 C 
ATOM     12  C   UNL     1       1.937   8.538  17.839  0.00  0.00    +0.000 C 
BRANCH  12  13
ATOM     13  C   UNL     1       2.835   7.422  18.177  0.00  0.00    +0.000 A 
ATOM     14  C   UNL     1       2.535   6.649  19.307  0.00  0.00    +0.000 A 
ATOM     15  C   UNL     1       3.402   5.639  19.732  0.00  0.00    +0.000 A 
ATOM     16  C   UNL     1       4.569   5.378  19.020  0.00  0.00    +0.000 A 
ATOM     17  C   UNL     1       4.855   6.107  17.866  0.00  0.00    +0.000 A 
ATOM     18  C   UNL     1       3.988   7.119  17.442  0.00  0.00    +0.000 A 
ENDBRANCH  12  13
ENDBRANCH   8  11
BRANCH   1  19
ATOM     19  C   UNL     1       2.719  14.286  20.677  0.00  0.00    +0.000 C 
BRANCH  19  20
ATOM     20  C   UNL     1       3.955  14.650  19.830  0.00  0.00    +0.000 A 
ATOM     21  C   UNL     1       5.167  14.940  20.502  0.00  0.00    +0.000 A 
ATOM     22  C   UNL     1       6.358  15.178  19.808  0.00  0.00    +0.000 A 
ATOM     23  C   UNL     1       6.356  15.178  18.419  0.00  0.00    +0.000 A 
ATOM     24 CL   UNL     1       7.823  15.423  17.559  0.00  0.00    +0.000 Cl
ATOM     25  C   UNL     1       5.170  14.971  17.724  0.00  0.00    +0.000 A 
ATOM     26  C   UNL     1       3.981  14.718  18.420  0.00  0.00    +0.000 A 
ENDBRANCH  19  20
BRANCH  19  27
ATOM     27  C   UNL     1       2.177  15.541  21.365  0.00  0.00    +0.000 A 
ATOM     28  C   UNL     1       2.215  16.828  20.844  0.00  0.00    +0.000 A 
ATOM     29  S   UNL     1       1.531  17.953  21.939  0.00  0.00    +0.000 S 
ATOM     30  C   UNL     1       1.224  16.673  23.033  0.00  0.00    +0.000 A 
ATOM     31  N   UNL     1       1.613  15.478  22.648  0.00  0.00    +0.000 NA
ENDBRANCH  19  27
BRANCH  19  32
ATOM     32  O   UNL     1       3.189  13.330  21.645  0.00  0.00    +0.000 OA
ATOM     33  H   UNL     1       2.612  12.553  21.570  0.00  0.00    +0.000 HD
ENDBRANCH  19  32
ENDBRANCH   1  19
TORSDOF 6
ENDMDL
MODEL 5
REMARK VINA RESULT:      -7.5      6.373      9.212
REMARK  Name = 
REMARK  6 active torsions:
REMARK  status: ('A' for Active; 'I' for Inactive)
REMARK    1  A    between atoms: O_1  and  C_2
REMARK    2  A    between atoms: C_2  and  C_3
REMARK    3  A    between atoms: C_2  and  C_10
REMARK    4  A    between atoms: C_2  and  C_28
REMARK    5  A    between atoms: C_17  and  C_18
REMARK    6  A    between atoms: C_19  and  C_20
REMARK                            x       y       z     vdW  Elec       q    Type
REMARK                         _______ _______ _______ _____ _____    ______ ____
ROOT
ATOM      1  C   UNL     1      -1.359  10.941  18.359  0.00  0.00    +0.000 A 
ATOM      2  C   UNL     1      -1.900  10.213  17.298  0.00  0.00    +0.000 A 
ATOM      3  C   UNL     1      -3.282  10.173  17.086  0.00  0.00    +0.000 A 
ATOM      4  C   UNL     1      -4.167  10.904  17.853  0.00  0.00    +0.000 A 
ATOM      5  N   UNL     1      -5.477  10.801  17.560  0.00  0.00    +0.000 NA
ATOM      6  C   UNL     1      -6.351  11.535  18.272  0.00  0.00    +0.000 A 
ATOM      7  C   UNL     1      -5.979  12.409  19.271  0.00  0.00    +0.000 A 
ATOM      8  C   UNL     1      -4.621  12.524  19.589  0.00  0.00    +0.000 A 
ATOM      9  C   UNL     1      -3.669  11.724  18.889  0.00  0.00    +0.000 A 
ATOM     10  C   UNL     1      -2.271  11.664  19.158  0.00  0.00    +0.000 A 
ENDROOT
BRANCH   8  11
ATOM     11  C   UNL     1      -4.298  13.442  20.702  0.00  0.00    +0.000 C 
ATOM     12  C   UNL     1      -4.145  13.081  21.987  0.00  0.00    +0.000 C 
BRANCH  12  13
ATOM     13  C   UNL     1      -4.010  14.050  23.087  0.00  0.00    +0.000 A 
ATOM     14  C   UNL     1      -4.767  15.228  23.028  0.00  0.00    +0.000 A 
ATOM     15  C   UNL     1      -4.609  16.227  23.991  0.00  0.00    +0.000 A 
ATOM     16  C   UNL     1      -3.705  16.051  25.036  0.00  0.00    +0.000 A 
ATOM     17  C   UNL     1      -2.981  14.863  25.133  0.00  0.00    +0.000 A 
ATOM     18  C   UNL     1      -3.139  13.864  24.167  0.00  0.00    +0.000 A 
ENDBRANCH  12  13
ENDBRANCH   8  11
BRANCH   1  19
ATOM     19  C   UNL     1       0.151  10.966  18.682  0.00  0.00    +0.000 C 
BRANCH  19  20
ATOM     20  C   UNL     1       0.842  12.344  18.716  0.00  0.00    +0.000 A 
ATOM     21  C   UNL     1       2.238  12.399  18.482  0.00  0.00    +0.000 A 
ATOM     22  C   UNL     1       2.923  13.614  18.394  0.00  0.00    +0.000 A 
ATOM     23  C   UNL     1       2.237  14.807  18.583  0.00  0.00    +0.000 A 
ATOM     24 CL   UNL     1       3.063  16.306  18.429  0.00  0.00    +0.000 Cl
ATOM     25  C   UNL     1       0.881  14.790  18.888  0.00  0.00    +0.000 A 
ATOM     26  C   UNL     1       0.192  13.572  18.962  0.00  0.00    +0.000 A 
ENDBRANCH  19  20
BRANCH  19  27
ATOM     27  C   UNL     1       0.264  10.297  20.054  0.00  0.00    +0.000 A 
ATOM     28  C   UNL     1      -0.226  10.814  21.247  0.00  0.00    +0.000 A 
ATOM     29  S   UNL     1       0.132   9.772  22.558  0.00  0.00    +0.000 S 
ATOM     30  C   UNL     1       0.908   8.702  21.471  0.00  0.00    +0.000 A 
ATOM     31  N   UNL     1       0.937   9.076  20.212  0.00  0.00    +0.000 NA
ENDBRANCH  19  27
BRANCH  19  32
ATOM     32  O   UNL     1       0.856  10.209  17.681  0.00  0.00    +0.000 OA
ATOM     33  H   UNL     1       0.486   9.313  17.699  0.00  0.00    +0.000 HD
ENDBRANCH  19  32
ENDBRANCH   1  19
TORSDOF 6
ENDMDL
MODEL 6
REMARK VINA RESULT:      -7.5      5.583      8.976
REMARK  Name = 
REMARK  6 active torsions:
REMARK  status: ('A' for Active; 'I' for Inactive)
REMARK    1  A    between atoms: O_1  and  C_2
REMARK    2  A    between atoms: C_2  and  C_3
REMARK    3  A    between atoms: C_2  and  C_10
REMARK    4  A    between atoms: C_2  and  C_28
REMARK    5  A    between atoms: C_17  and  C_18
REMARK    6  A    between atoms: C_19  and  C_20
REMARK                            x       y       z     vdW  Elec       q    Type
REMARK                         _______ _______ _______ _____ _____    ______ ____
ROOT
ATOM      1  C   UNL     1      -1.170  10.746  19.094  0.00  0.00    +0.000 A 
ATOM      2  C   UNL     1      -1.362  10.268  17.797  0.00  0.00    +0.000 A 
ATOM      3  C   UNL     1      -2.575  10.468  17.130  0.00  0.00    +0.000 A 
ATOM      4  C   UNL     1      -3.605  11.208  17.678  0.00  0.00    +0.000 A 
ATOM      5  N   UNL     1      -4.727  11.348  16.949  0.00  0.00    +0.000 NA
ATOM      6  C   UNL     1      -5.726  12.096  17.451  0.00  0.00    +0.000 A 
ATOM      7  C   UNL     1      -5.656  12.751  18.661  0.00  0.00    +0.000 A 
ATOM      8  C   UNL     1      -4.496  12.612  19.432  0.00  0.00    +0.000 A 
ATOM      9  C   UNL     1      -3.435  11.786  18.956  0.00  0.00    +0.000 A 
ATOM     10  C   UNL     1      -2.236  11.477  19.661  0.00  0.00    +0.000 A 
ENDROOT
BRANCH   8  11
ATOM     11  C   UNL     1      -4.508  13.302  20.740  0.00  0.00    +0.000 C 
ATOM     12  C   UNL     1      -4.070  14.552  20.964  0.00  0.00    +0.000 C 
BRANCH  12  13
ATOM     13  C   UNL     1      -3.928  15.128  22.310  0.00  0.00    +0.000 A 
ATOM     14  C   UNL     1      -3.411  14.314  23.328  0.00  0.00    +0.000 A 
ATOM     15  C   UNL     1      -3.345  14.775  24.645  0.00  0.00    +0.000 A 
ATOM     16  C   UNL     1      -3.775  16.062  24.956  0.00  0.00    +0.000 A 
ATOM     17  C   UNL     1      -4.245  16.898  23.944  0.00  0.00    +0.000 A 
ATOM     18  C   UNL     1      -4.313  16.437  22.626  0.00  0.00    +0.000 A 
ENDBRANCH  12  13
ENDBRANCH   8  11
BRANCH   1  19
ATOM     19  C   UNL     1       0.120  10.495  19.904  0.00  0.00    +0.000 C 
BRANCH  19  20
ATOM     20  C   UNL     1       1.025   9.333  19.447  0.00  0.00    +0.000 A 
ATOM     21  C   UNL     1       1.540   9.363  18.128  0.00  0.00    +0.000 A 
ATOM     22  C   UNL     1       2.448   8.403  17.669  0.00  0.00    +0.000 A 
ATOM     23  C   UNL     1       2.828   7.361  18.504  0.00  0.00    +0.000 A 
ATOM     24 CL   UNL     1       3.980   6.205  17.963  0.00  0.00    +0.000 Cl
ATOM     25  C   UNL     1       2.287   7.257  19.780  0.00  0.00    +0.000 A 
ATOM     26  C   UNL     1       1.389   8.227  20.244  0.00  0.00    +0.000 A 
ENDBRANCH  19  20
BRANCH  19  27
ATOM     27  C   UNL     1       0.892  11.813  19.819  0.00  0.00    +0.000 A 
ATOM     28  C   UNL     1       1.033  12.595  18.679  0.00  0.00    +0.000 A 
ATOM     29  S   UNL     1       1.995  13.976  18.998  0.00  0.00    +0.000 S 
ATOM     30  C   UNL     1       2.165  13.459  20.621  0.00  0.00    +0.000 A 
ATOM     31  N   UNL     1       1.575  12.326  20.932  0.00  0.00    +0.000 NA
ENDBRANCH  19  27
BRANCH  19  32
ATOM     32  O   UNL     1      -0.233  10.192  21.266  0.00  0.00    +0.000 OA
ATOM     33  H   UNL     1      -0.818  10.905  21.566  0.00  0.00    +0.000 HD
ENDBRANCH  19  32
ENDBRANCH   1  19
TORSDOF 6
ENDMDL
MODEL 7
REMARK VINA RESULT:      -7.3      6.867      9.677
REMARK  Name = 
REMARK  6 active torsions:
REMARK  status: ('A' for Active; 'I' for Inactive)
REMARK    1  A    between atoms: O_1  and  C_2
REMARK    2  A    between atoms: C_2  and  C_3
REMARK    3  A    between atoms: C_2  and  C_10
REMARK    4  A    between atoms: C_2  and  C_28
REMARK    5  A    between atoms: C_17  and  C_18
REMARK    6  A    between atoms: C_19  and  C_20
REMARK                            x       y       z     vdW  Elec       q    Type
REMARK                         _______ _______ _______ _____ _____    ______ ____
ROOT
ATOM      1  C   UNL     1      -1.812  11.349  18.370  0.00  0.00    +0.000 A 
ATOM      2  C   UNL     1      -2.292  10.948  17.122  0.00  0.00    +0.000 A 
ATOM      3  C   UNL     1      -3.656  11.021  16.820  0.00  0.00    +0.000 A 
ATOM      4  C   UNL     1      -4.577  11.560  17.696  0.00  0.00    +0.000 A 
ATOM      5  N   UNL     1      -5.865  11.590  17.304  0.00  0.00    +0.000 NA
ATOM      6  C   UNL     1      -6.770  12.146  18.129  0.00  0.00    +0.000 A 
ATOM      7  C   UNL     1      -6.452  12.711  19.344  0.00  0.00    +0.000 A 
ATOM      8  C   UNL     1      -5.117  12.684  19.767  0.00  0.00    +0.000 A 
ATOM      9  C   UNL     1      -4.136  12.058  18.942  0.00  0.00    +0.000 A 
ATOM     10  C   UNL     1      -2.762  11.873  19.272  0.00  0.00    +0.000 A 
ENDROOT
BRANCH   8  11
ATOM     11  C   UNL     1      -4.855  13.263  21.102  0.00  0.00    +0.000 C 
ATOM     12  C   UNL     1      -4.354  14.488  21.332  0.00  0.00    +0.000 C 
BRANCH  12  13
ATOM     13  C   UNL     1      -3.935  14.951  22.665  0.00  0.00    +0.000 A 
ATOM     14  C   UNL     1      -2.803  14.361  23.245  0.00  0.00    +0.000 A 
ATOM     15  C   UNL     1      -2.415  14.689  24.546  0.00  0.00    +0.000 A 
ATOM     16  C   UNL     1      -3.143  15.627  25.274  0.00  0.00    +0.000 A 
ATOM     17  C   UNL     1      -4.241  16.257  24.691  0.00  0.00    +0.000 A 
ATOM     18  C   UNL     1      -4.631  15.927  23.389  0.00  0.00    +0.000 A 
ENDBRANCH  12  13
ENDBRANCH   8  11
BRANCH   1  19
ATOM     19  C   UNL     1      -0.330  11.227  18.783  0.00  0.00    +0.000 C 
BRANCH  19  20
ATOM     20  C   UNL     1       0.516  12.516  18.765  0.00  0.00    +0.000 A 
ATOM     21  C   UNL     1       1.920  12.394  18.627  0.00  0.00    +0.000 A 
ATOM     22  C   UNL     1       2.749  13.514  18.499  0.00  0.00    +0.000 A 
ATOM     23  C   UNL     1       2.197  14.788  18.551  0.00  0.00    +0.000 A 
ATOM     24 CL   UNL     1       3.202  16.167  18.346  0.00  0.00    +0.000 Cl
ATOM     25  C   UNL     1       0.832  14.948  18.759  0.00  0.00    +0.000 A 
ATOM     26  C   UNL     1       0.002  13.826  18.873  0.00  0.00    +0.000 A 
ENDBRANCH  19  20
BRANCH  19  27
ATOM     27  C   UNL     1      -0.369  10.655  20.201  0.00  0.00    +0.000 A 
ATOM     28  C   UNL     1      -0.516  11.396  21.367  0.00  0.00    +0.000 A 
ATOM     29  S   UNL     1      -0.481  10.381  22.746  0.00  0.00    +0.000 S 
ATOM     30  C   UNL     1      -0.276   9.027  21.721  0.00  0.00    +0.000 A 
ATOM     31  N   UNL     1      -0.212   9.280  20.433  0.00  0.00    +0.000 NA
ENDBRANCH  19  27
BRANCH  19  32
ATOM     32  O   UNL     1       0.334  10.322  17.881  0.00  0.00    +0.000 OA
ATOM     33  H   UNL     1       0.903  10.865  17.312  0.00  0.00    +0.000 HD
ENDBRANCH  19  32
ENDBRANCH   1  19
TORSDOF 6
ENDMDL
MODEL 8
REMARK VINA RESULT:      -7.3      7.177      9.792
REMARK  Name = 
REMARK  6 active torsions:
REMARK  status: ('A' for Active; 'I' for Inactive)
REMARK    1  A    between atoms: O_1  and  C_2
REMARK    2  A    between atoms: C_2  and  C_3
REMARK    3  A    between atoms: C_2  and  C_10
REMARK    4  A    between atoms: C_2  and  C_28
REMARK    5  A    between atoms: C_17  and  C_18
REMARK    6  A    between atoms: C_19  and  C_20
REMARK                            x       y       z     vdW  Elec       q    Type
REMARK                         _______ _______ _______ _____ _____    ______ ____
ROOT
ATOM      1  C   UNL     1      -1.795  11.461  18.405  0.00  0.00    +0.000 A 
ATOM      2  C   UNL     1      -2.257  11.066  17.148  0.00  0.00    +0.000 A 
ATOM      3  C   UNL     1      -3.625  11.062  16.855  0.00  0.00    +0.000 A 
ATOM      4  C   UNL     1      -4.572  11.518  17.751  0.00  0.00    +0.000 A 
ATOM      5  N   UNL     1      -5.862  11.479  17.366  0.00  0.00    +0.000 NA
ATOM      6  C   UNL     1      -6.795  11.954  18.211  0.00  0.00    +0.000 A 
ATOM      7  C   UNL     1      -6.504  12.503  19.441  0.00  0.00    +0.000 A 
ATOM      8  C   UNL     1      -5.167  12.547  19.856  0.00  0.00    +0.000 A 
ATOM      9  C   UNL     1      -4.155  12.007  19.008  0.00  0.00    +0.000 A 
ATOM     10  C   UNL     1      -2.770  11.899  19.327  0.00  0.00    +0.000 A 
ENDROOT
BRANCH   8  11
ATOM     11  C   UNL     1      -4.932  13.104  21.205  0.00  0.00    +0.000 C 
ATOM     12  C   UNL     1      -4.504  14.349  21.467  0.00  0.00    +0.000 C 
BRANCH  12  13
ATOM     13  C   UNL     1      -4.106  14.800  22.811  0.00  0.00    +0.000 A 
ATOM     14  C   UNL     1      -4.825  15.850  23.398  0.00  0.00    +0.000 A 
ATOM     15  C   UNL     1      -4.433  16.385  24.627  0.00  0.00    +0.000 A 
ATOM     16  C   UNL     1      -3.329  15.860  25.294  0.00  0.00    +0.000 A 
ATOM     17  C   UNL     1      -2.634  14.784  24.744  0.00  0.00    +0.000 A 
ATOM     18  C   UNL     1      -3.026  14.250  23.513  0.00  0.00    +0.000 A 
ENDBRANCH  12  13
ENDBRANCH   8  11
BRANCH   1  19
ATOM     19  C   UNL     1      -0.305  11.420  18.807  0.00  0.00    +0.000 C 
BRANCH  19  20
ATOM     20  C   UNL     1       0.477  12.748  18.752  0.00  0.00    +0.000 A 
ATOM     21  C   UNL     1      -0.258  13.956  18.668  0.00  0.00    +0.000 A 
ATOM     22  C   UNL     1       0.367  15.205  18.717  0.00  0.00    +0.000 A 
ATOM     23  C   UNL     1       1.752  15.279  18.804  0.00  0.00    +0.000 A 
ATOM     24 CL   UNL     1       2.525  16.810  18.913  0.00  0.00    +0.000 Cl
ATOM     25  C   UNL     1       2.512  14.115  18.814  0.00  0.00    +0.000 A 
ATOM     26  C   UNL     1       1.883  12.864  18.780  0.00  0.00    +0.000 A 
ENDBRANCH  19  20
BRANCH  19  27
ATOM     27  C   UNL     1      -0.305  10.880  20.238  0.00  0.00    +0.000 A 
ATOM     28  C   UNL     1      -0.193   9.542  20.597  0.00  0.00    +0.000 A 
ATOM     29  S   UNL     1      -0.265   9.356  22.297  0.00  0.00    +0.000 S 
ATOM     30  C   UNL     1      -0.437  11.051  22.457  0.00  0.00    +0.000 A 
ATOM     31  N   UNL     1      -0.464  11.738  21.337  0.00  0.00    +0.000 NA
ENDBRANCH  19  27
BRANCH  19  32
ATOM     32  O   UNL     1       0.395  10.528  17.920  0.00  0.00    +0.000 OA
ATOM     33  H   UNL     1       1.163  10.195  18.410  0.00  0.00    +0.000 HD
ENDBRANCH  19  32
ENDBRANCH   1  19
TORSDOF 6
ENDMDL
MODEL 9
REMARK VINA RESULT:      -7.2      2.912      7.113
REMARK  Name = 
REMARK  6 active torsions:
REMARK  status: ('A' for Active; 'I' for Inactive)
REMARK    1  A    between atoms: O_1  and  C_2
REMARK    2  A    between atoms: C_2  and  C_3
REMARK    3  A    between atoms: C_2  and  C_10
REMARK    4  A    between atoms: C_2  and  C_28
REMARK    5  A    between atoms: C_17  and  C_18
REMARK    6  A    between atoms: C_19  and  C_20
REMARK                            x       y       z     vdW  Elec       q    Type
REMARK                         _______ _______ _______ _____ _____    ______ ____
ROOT
ATOM      1  C   UNL     1       3.868   5.327  18.431  0.00  0.00    +0.000 A 
ATOM      2  C   UNL     1       3.453   4.274  17.613  0.00  0.00    +0.000 A 
ATOM      3  C   UNL     1       4.162   3.942  16.455  0.00  0.00    +0.000 A 
ATOM      4  C   UNL     1       5.340   4.573  16.104  0.00  0.00    +0.000 A 
ATOM      5  N   UNL     1       5.949   4.171  14.973  0.00  0.00    +0.000 NA
ATOM      6  C   UNL     1       7.116   4.749  14.636  0.00  0.00    +0.000 A 
ATOM      7  C   UNL     1       7.739   5.714  15.397  0.00  0.00    +0.000 A 
ATOM      8  C   UNL     1       7.115   6.145  16.574  0.00  0.00    +0.000 A 
ATOM      9  C   UNL     1       5.852   5.591  16.939  0.00  0.00    +0.000 A 
ATOM     10  C   UNL     1       5.057   5.988  18.053  0.00  0.00    +0.000 A 
ENDROOT
BRANCH   8  11
ATOM     11  C   UNL     1       7.814   7.216  17.316  0.00  0.00    +0.000 C 
ATOM     12  C   UNL     1       7.390   8.486  17.430  0.00  0.00    +0.000 C 
BRANCH  12  13
ATOM     13  C   UNL     1       8.208   9.560  18.016  0.00  0.00    +0.000 A 
ATOM     14  C   UNL     1       8.119  10.842  17.455  0.00  0.00    +0.000 A 
ATOM     15  C   UNL     1       8.942  11.877  17.906  0.00  0.00    +0.000 A 
ATOM     16  C   UNL     1       9.849  11.647  18.937  0.00  0.00    +0.000 A 
ATOM     17  C   UNL     1       9.913  10.390  19.536  0.00  0.00    +0.000 A 
ATOM     18  C   UNL     1       9.090   9.353  19.083  0.00  0.00    +0.000 A 
ENDBRANCH  12  13
ENDBRANCH   8  11
BRANCH   1  19
ATOM     19  C   UNL     1       3.087   5.783  19.682  0.00  0.00    +0.000 C 
BRANCH  19  20
ATOM     20  C   UNL     1       2.223   7.053  19.550  0.00  0.00    +0.000 A 
ATOM     21  C   UNL     1       1.519   7.505  20.693  0.00  0.00    +0.000 A 
ATOM     22  C   UNL     1       0.796   8.702  20.688  0.00  0.00    +0.000 A 
ATOM     23  C   UNL     1       0.721   9.456  19.523  0.00  0.00    +0.000 A 
ATOM     24 CL   UNL     1      -0.126  10.952  19.522  0.00  0.00    +0.000 Cl
ATOM     25  C   UNL     1       1.338   9.007  18.361  0.00  0.00    +0.000 A 
ATOM     26  C   UNL     1       2.074   7.815  18.372  0.00  0.00    +0.000 A 
ENDBRANCH  19  20
BRANCH  19  27
ATOM     27  C   UNL     1       2.200   4.589  20.040  0.00  0.00    +0.000 A 
ATOM     28  C   UNL     1       2.340   3.787  21.166  0.00  0.00    +0.000 A 
ATOM     29  S   UNL     1       1.165   2.541  21.181  0.00  0.00    +0.000 S 
ATOM     30  C   UNL     1       0.542   3.137  19.703  0.00  0.00    +0.000 A 
ATOM     31  N   UNL     1       1.159   4.180  19.193  0.00  0.00    +0.000 NA
ENDBRANCH  19  27
BRANCH  19  32
ATOM     32  O   UNL     1       4.022   6.065  20.740  0.00  0.00    +0.000 OA
ATOM     33  H   UNL     1       3.496   6.327  21.512  0.00  0.00    +0.000 HD
ENDBRANCH  19  32
ENDBRANCH   1  19
TORSDOF 6
ENDMDL
