MODEL 1
REMARK VINA RESULT:      -8.0      0.000      0.000
REMARK  Name = 
REMARK  4 active torsions:
REMARK  status: ('A' for Active; 'I' for Inactive)
REMARK    1  A    between atoms: C_1  and  N_2
REMARK    2  A    between atoms: C_9  and  N_10
REMARK    3  A    between atoms: C_11  and  C_13
REMARK    4  A    between atoms: C_16  and  C_17
REMARK                            x       y       z     vdW  Elec       q    Type
REMARK                         _______ _______ _______ _____ _____    ______ ____
ROOT
ATOM      1  N   UNL     1       2.133   7.496  19.153  0.00  0.00    +0.000 N 
ATOM      2  C   UNL     1       1.728   8.739  18.642  0.00  0.00    +0.000 C 
ATOM      3  O   UNL     1       1.883   9.158  17.510  0.00  0.00    +0.000 OA
ATOM      4  H   UNL     1       1.845   7.258  20.094  0.00  0.00    +0.000 HD
ENDROOT
BRANCH   1  13
ATOM      5  C   UNL     1       6.921   7.433  17.356  0.00  0.00    +0.000 C 
ATOM      6  N   UNL     1       6.259   6.247  16.821  0.00  0.00    +0.000 N 
ATOM      7  C   UNL     1       7.126   5.168  16.353  0.00  0.00    +0.000 C 
ATOM      8  C   UNL     1       6.353   4.208  15.463  0.00  0.00    +0.000 C 
ATOM      9  C   UNL     1       5.185   3.611  16.234  0.00  0.00    +0.000 C 
ATOM     10  C   UNL     1       4.385   4.666  16.950  0.00  0.00    +0.000 A 
ATOM     11  C   UNL     1       3.072   4.386  17.351  0.00  0.00    +0.000 A 
ATOM     12  C   UNL     1       2.330   5.317  18.067  0.00  0.00    +0.000 A 
ATOM     13  C   UNL     1       2.873   6.542  18.409  0.00  0.00    +0.000 A 
ATOM     14  C   UNL     1       4.179   6.838  17.982  0.00  0.00    +0.000 A 
ATOM     15  C   UNL     1       4.971   5.915  17.263  0.00  0.00    +0.000 A 
ENDBRANCH   1  13
BRANCH   2  16
ATOM     16  C   UNL     1       0.951   9.605  19.564  0.00  0.00    +0.000 A 
ATOM     17  C   UNL     1       1.099   9.471  20.944  0.00  0.00    +0.000 A 
ATOM     18  N   UNL     1       0.506  10.327  21.815  0.00  0.00    +0.000 NA
ATOM     19  C   UNL     1      -0.227  11.328  21.258  0.00  0.00    +0.000 A 
ATOM     20  C   UNL     1      -0.369  11.425  19.872  0.00  0.00    +0.000 A 
ATOM     21  N   UNL     1       0.191  10.568  18.992  0.00  0.00    +0.000 NA
BRANCH  19  22
ATOM     22  C   UNL     1      -0.853  12.291  22.166  0.00  0.00    +0.000 A 
ATOM     23  C   UNL     1      -2.027  11.965  22.864  0.00  0.00    +0.000 A 
ATOM     24  C   UNL     1      -2.671  12.909  23.662  0.00  0.00    +0.000 A 
ATOM     25  C   UNL     1      -2.141  14.191  23.788  0.00  0.00    +0.000 A 
ATOM     26  C   UNL     1      -0.956  14.522  23.138  0.00  0.00    +0.000 A 
ATOM     27  C   UNL     1      -0.311  13.577  22.342  0.00  0.00    +0.000 A 
ENDBRANCH  19  22
ENDBRANCH   2  16
TORSDOF 3
ENDMDL
MODEL 2
REMARK VINA RESULT:      -8.0      1.950     10.118
REMARK  Name = 
REMARK  4 active torsions:
REMARK  status: ('A' for Active; 'I' for Inactive)
REMARK    1  A    between atoms: C_1  and  N_2
REMARK    2  A    between atoms: C_9  and  N_10
REMARK    3  A    between atoms: C_11  and  C_13
REMARK    4  A    between atoms: C_16  and  C_17
REMARK                            x       y       z     vdW  Elec       q    Type
REMARK                         _______ _______ _______ _____ _____    ______ ____
ROOT
ATOM      1  N   UNL     1       2.558   7.758  18.762  0.00  0.00    +0.000 N 
ATOM      2  C   UNL     1       3.070   6.458  18.897  0.00  0.00    +0.000 C 
ATOM      3  O   UNL     1       2.858   5.670  19.799  0.00  0.00    +0.000 OA
ATOM      4  H   UNL     1       2.754   8.255  17.902  0.00  0.00    +0.000 HD
ENDROOT
BRANCH   1  13
ATOM      5  C   UNL     1      -0.422  11.913  18.657  0.00  0.00    +0.000 C 
ATOM      6  N   UNL     1      -0.388  11.459  20.044  0.00  0.00    +0.000 N 
ATOM      7  C   UNL     1      -1.467  11.925  20.912  0.00  0.00    +0.000 C 
ATOM      8  C   UNL     1      -1.097  11.736  22.374  0.00  0.00    +0.000 C 
ATOM      9  C   UNL     1      -0.829  10.265  22.657  0.00  0.00    +0.000 C 
ATOM     10  C   UNL     1       0.097   9.657  21.638  0.00  0.00    +0.000 A 
ATOM     11  C   UNL     1       0.783   8.475  21.946  0.00  0.00    +0.000 A 
ATOM     12  C   UNL     1       1.597   7.855  21.005  0.00  0.00    +0.000 A 
ATOM     13  C   UNL     1       1.743   8.388  19.737  0.00  0.00    +0.000 A 
ATOM     14  C   UNL     1       1.081   9.590  19.436  0.00  0.00    +0.000 A 
ATOM     15  C   UNL     1       0.235  10.245  20.359  0.00  0.00    +0.000 A 
ENDBRANCH   1  13
BRANCH   2  16
ATOM     16  C   UNL     1       3.897   5.960  17.768  0.00  0.00    +0.000 A 
ATOM     17  C   UNL     1       3.863   4.612  17.414  0.00  0.00    +0.000 A 
ATOM     18  N   UNL     1       4.502   4.144  16.311  0.00  0.00    +0.000 NA
ATOM     19  C   UNL     1       5.161   5.072  15.568  0.00  0.00    +0.000 A 
ATOM     20  C   UNL     1       5.190   6.413  15.959  0.00  0.00    +0.000 A 
ATOM     21  N   UNL     1       4.583   6.893  17.065  0.00  0.00    +0.000 NA
BRANCH  19  22
ATOM     22  C   UNL     1       5.833   4.610  14.352  0.00  0.00    +0.000 A 
ATOM     23  C   UNL     1       7.096   5.108  13.993  0.00  0.00    +0.000 A 
ATOM     24  C   UNL     1       7.699   4.734  12.793  0.00  0.00    +0.000 A 
ATOM     25  C   UNL     1       7.054   3.842  11.940  0.00  0.00    +0.000 A 
ATOM     26  C   UNL     1       5.821   3.305  12.295  0.00  0.00    +0.000 A 
ATOM     27  C   UNL     1       5.219   3.677  13.497  0.00  0.00    +0.000 A 
ENDBRANCH  19  22
ENDBRANCH   2  16
TORSDOF 3
ENDMDL
MODEL 3
REMARK VINA RESULT:      -8.0      0.671      1.317
REMARK  Name = 
REMARK  4 active torsions:
REMARK  status: ('A' for Active; 'I' for Inactive)
REMARK    1  A    between atoms: C_1  and  N_2
REMARK    2  A    between atoms: C_9  and  N_10
REMARK    3  A    between atoms: C_11  and  C_13
REMARK    4  A    between atoms: C_16  and  C_17
REMARK                            x       y       z     vdW  Elec       q    Type
REMARK                         _______ _______ _______ _____ _____    ______ ____
ROOT
ATOM      1  N   UNL     1       2.240   7.642  19.358  0.00  0.00    +0.000 N 
ATOM      2  C   UNL     1       1.666   8.802  18.814  0.00  0.00    +0.000 C 
ATOM      3  O   UNL     1       1.568   9.095  17.637  0.00  0.00    +0.000 OA
ATOM      4  H   UNL     1       2.159   7.501  20.357  0.00  0.00    +0.000 HD
ENDROOT
BRANCH   1  13
ATOM      5  C   UNL     1       6.907   7.266  17.302  0.00  0.00    +0.000 C 
ATOM      6  N   UNL     1       6.143   6.122  16.813  0.00  0.00    +0.000 N 
ATOM      7  C   UNL     1       6.913   4.988  16.306  0.00  0.00    +0.000 C 
ATOM      8  C   UNL     1       6.032   4.076  15.468  0.00  0.00    +0.000 C 
ATOM      9  C   UNL     1       4.873   3.558  16.306  0.00  0.00    +0.000 C 
ATOM     10  C   UNL     1       4.183   4.665  17.057  0.00  0.00    +0.000 A 
ATOM     11  C   UNL     1       2.879   4.471  17.531  0.00  0.00    +0.000 A 
ATOM     12  C   UNL     1       2.238   5.450  18.280  0.00  0.00    +0.000 A 
ATOM     13  C   UNL     1       2.876   6.639  18.582  0.00  0.00    +0.000 A 
ATOM     14  C   UNL     1       4.172   6.850  18.081  0.00  0.00    +0.000 A 
ATOM     15  C   UNL     1       4.863   5.875  17.327  0.00  0.00    +0.000 A 
ENDBRANCH   1  13
BRANCH   2  16
ATOM     16  C   UNL     1       1.034   9.735  19.781  0.00  0.00    +0.000 A 
ATOM     17  C   UNL     1       0.998  11.103  19.515  0.00  0.00    +0.000 A 
ATOM     18  N   UNL     1       0.318  11.970  20.308  0.00  0.00    +0.000 NA
ATOM     19  C   UNL     1      -0.334  11.420  21.366  0.00  0.00    +0.000 A 
ATOM     20  C   UNL     1      -0.265  10.047  21.614  0.00  0.00    +0.000 A 
ATOM     21  N   UNL     1       0.426   9.173  20.852  0.00  0.00    +0.000 NA
BRANCH  19  22
ATOM     22  C   UNL     1      -1.108  12.320  22.224  0.00  0.00    +0.000 A 
ATOM     23  C   UNL     1      -0.642  13.611  22.517  0.00  0.00    +0.000 A 
ATOM     24  C   UNL     1      -1.333  14.439  23.401  0.00  0.00    +0.000 A 
ATOM     25  C   UNL     1      -2.511  13.992  23.993  0.00  0.00    +0.000 A 
ATOM     26  C   UNL     1      -3.013  12.731  23.685  0.00  0.00    +0.000 A 
ATOM     27  C   UNL     1      -2.323  11.905  22.799  0.00  0.00    +0.000 A 
ENDBRANCH  19  22
ENDBRANCH   2  16
TORSDOF 3
ENDMDL
MODEL 4
REMARK VINA RESULT:      -7.9      1.986      3.040
REMARK  Name = 
REMARK  4 active torsions:
REMARK  status: ('A' for Active; 'I' for Inactive)
REMARK    1  A    between atoms: C_1  and  N_2
REMARK    2  A    between atoms: C_9  and  N_10
REMARK    3  A    between atoms: C_11  and  C_13
REMARK    4  A    between atoms: C_16  and  C_17
REMARK                            x       y       z     vdW  Elec       q    Type
REMARK                         _______ _______ _______ _____ _____    ______ ____
ROOT
ATOM      1  N   UNL     1       1.517   7.900  20.390  0.00  0.00    +0.000 N 
ATOM      2  C   UNL     1       1.057   9.095  19.814  0.00  0.00    +0.000 C 
ATOM      3  O   UNL     1       1.058   9.393  18.634  0.00  0.00    +0.000 OA
ATOM      4  H   UNL     1       1.359   7.764  21.381  0.00  0.00    +0.000 HD
ENDROOT
BRANCH   1  13
ATOM      5  C   UNL     1       1.275   2.800  20.688  0.00  0.00    +0.000 C 
ATOM      6  N   UNL     1       2.313   3.112  19.710  0.00  0.00    +0.000 N 
ATOM      7  C   UNL     1       2.673   2.048  18.776  0.00  0.00    +0.000 C 
ATOM      8  C   UNL     1       4.008   2.346  18.114  0.00  0.00    +0.000 C 
ATOM      9  C   UNL     1       3.932   3.667  17.361  0.00  0.00    +0.000 C 
ATOM     10  C   UNL     1       3.333   4.760  18.204  0.00  0.00    +0.000 A 
ATOM     11  C   UNL     1       3.559   6.100  17.862  0.00  0.00    +0.000 A 
ATOM     12  C   UNL     1       2.969   7.131  18.583  0.00  0.00    +0.000 A 
ATOM     13  C   UNL     1       2.137   6.858  19.654  0.00  0.00    +0.000 A 
ATOM     14  C   UNL     1       1.935   5.516  20.020  0.00  0.00    +0.000 A 
ATOM     15  C   UNL     1       2.505   4.439  19.305  0.00  0.00    +0.000 A 
ENDBRANCH   1  13
BRANCH   2  16
ATOM     16  C   UNL     1       0.423  10.067  20.740  0.00  0.00    +0.000 A 
ATOM     17  C   UNL     1       0.005  11.312  20.272  0.00  0.00    +0.000 A 
ATOM     18  N   UNL     1      -0.694  12.174  21.055  0.00  0.00    +0.000 NA
ATOM     19  C   UNL     1      -0.970  11.742  22.314  0.00  0.00    +0.000 A 
ATOM     20  C   UNL     1      -0.522  10.496  22.758  0.00  0.00    +0.000 A 
ATOM     21  N   UNL     1       0.195   9.636  22.003  0.00  0.00    +0.000 NA
BRANCH  19  22
ATOM     22  C   UNL     1      -1.752  12.631  23.175  0.00  0.00    +0.000 A 
ATOM     23  C   UNL     1      -3.039  12.268  23.605  0.00  0.00    +0.000 A 
ATOM     24  C   UNL     1      -3.818  13.147  24.355  0.00  0.00    +0.000 A 
ATOM     25  C   UNL     1      -3.316  14.400  24.700  0.00  0.00    +0.000 A 
ATOM     26  C   UNL     1      -2.028  14.764  24.319  0.00  0.00    +0.000 A 
ATOM     27  C   UNL     1      -1.247  13.882  23.572  0.00  0.00    +0.000 A 
ENDBRANCH  19  22
ENDBRANCH   2  16
TORSDOF 3
ENDMDL
MODEL 5
REMARK VINA RESULT:      -7.9      1.183      1.491
REMARK  Name = 
REMARK  4 active torsions:
REMARK  status: ('A' for Active; 'I' for Inactive)
REMARK    1  A    between atoms: C_1  and  N_2
REMARK    2  A    between atoms: C_9  and  N_10
REMARK    3  A    between atoms: C_11  and  C_13
REMARK    4  A    between atoms: C_16  and  C_17
REMARK                            x       y       z     vdW  Elec       q    Type
REMARK                         _______ _______ _______ _____ _____    ______ ____
ROOT
ATOM      1  N   UNL     1       2.247   7.805  19.146  0.00  0.00    +0.000 N 
ATOM      2  C   UNL     1       1.636   7.630  20.398  0.00  0.00    +0.000 C 
ATOM      3  O   UNL     1       1.615   6.619  21.074  0.00  0.00    +0.000 OA
ATOM      4  H   UNL     1       2.257   8.738  18.753  0.00  0.00    +0.000 HD
ENDROOT
BRANCH   1  13
ATOM      5  C   UNL     1       6.989   7.257  17.310  0.00  0.00    +0.000 C 
ATOM      6  N   UNL     1       6.220   6.114  16.827  0.00  0.00    +0.000 N 
ATOM      7  C   UNL     1       6.985   4.947  16.393  0.00  0.00    +0.000 C 
ATOM      8  C   UNL     1       6.120   4.025  15.548  0.00  0.00    +0.000 C 
ATOM      9  C   UNL     1       4.914   3.561  16.352  0.00  0.00    +0.000 C 
ATOM     10  C   UNL     1       4.218   4.709  17.033  0.00  0.00    +0.000 A 
ATOM     11  C   UNL     1       2.891   4.560  17.456  0.00  0.00    +0.000 A 
ATOM     12  C   UNL     1       2.241   5.578  18.143  0.00  0.00    +0.000 A 
ATOM     13  C   UNL     1       2.893   6.763  18.433  0.00  0.00    +0.000 A 
ATOM     14  C   UNL     1       4.214   6.927  17.982  0.00  0.00    +0.000 A 
ATOM     15  C   UNL     1       4.914   5.912  17.292  0.00  0.00    +0.000 A 
ENDBRANCH   1  13
BRANCH   2  16
ATOM     16  C   UNL     1       1.019   8.839  20.999  0.00  0.00    +0.000 A 
ATOM     17  C   UNL     1       0.670   9.924  20.194  0.00  0.00    +0.000 A 
ATOM     18  N   UNL     1      -0.012  10.990  20.685  0.00  0.00    +0.000 NA
ATOM     19  C   UNL     1      -0.345  10.927  22.001  0.00  0.00    +0.000 A 
ATOM     20  C   UNL     1       0.032   9.834  22.784  0.00  0.00    +0.000 A 
ATOM     21  N   UNL     1       0.733   8.777  22.321  0.00  0.00    +0.000 NA
BRANCH  19  22
ATOM     22  C   UNL     1      -1.113  12.044  22.557  0.00  0.00    +0.000 A 
ATOM     23  C   UNL     1      -2.361  11.829  23.161  0.00  0.00    +0.000 A 
ATOM     24  C   UNL     1      -3.132  12.899  23.615  0.00  0.00    +0.000 A 
ATOM     25  C   UNL     1      -2.657  14.201  23.484  0.00  0.00    +0.000 A 
ATOM     26  C   UNL     1      -1.404  14.434  22.925  0.00  0.00    +0.000 A 
ATOM     27  C   UNL     1      -0.632  13.364  22.475  0.00  0.00    +0.000 A 
ENDBRANCH  19  22
ENDBRANCH   2  16
TORSDOF 3
ENDMDL
MODEL 6
REMARK VINA RESULT:      -7.8      1.553      2.175
REMARK  Name = 
REMARK  4 active torsions:
REMARK  status: ('A' for Active; 'I' for Inactive)
REMARK    1  A    between atoms: C_1  and  N_2
REMARK    2  A    between atoms: C_9  and  N_10
REMARK    3  A    between atoms: C_11  and  C_13
REMARK    4  A    between atoms: C_16  and  C_17
REMARK                            x       y       z     vdW  Elec       q    Type
REMARK                         _______ _______ _______ _____ _____    ______ ____
ROOT
ATOM      1  N   UNL     1       1.398   7.426  21.017  0.00  0.00    +0.000 N 
ATOM      2  C   UNL     1       1.194   8.665  20.391  0.00  0.00    +0.000 C 
ATOM      3  O   UNL     1       1.442   8.960  19.236  0.00  0.00    +0.000 OA
ATOM      4  H   UNL     1       1.051   7.312  21.960  0.00  0.00    +0.000 HD
ENDROOT
BRANCH   1  13
ATOM      5  C   UNL     1       4.633   7.016  17.077  0.00  0.00    +0.000 C 
ATOM      6  N   UNL     1       4.247   5.656  17.443  0.00  0.00    +0.000 N 
ATOM      7  C   UNL     1       5.131   4.582  16.995  0.00  0.00    +0.000 C 
ATOM      8  C   UNL     1       4.422   3.240  17.071  0.00  0.00    +0.000 C 
ATOM      9  C   UNL     1       3.984   2.963  18.501  0.00  0.00    +0.000 C 
ATOM     10  C   UNL     1       3.272   4.141  19.110  0.00  0.00    +0.000 A 
ATOM     11  C   UNL     1       2.445   3.950  20.224  0.00  0.00    +0.000 A 
ATOM     12  C   UNL     1       1.824   5.026  20.846  0.00  0.00    +0.000 A 
ATOM     13  C   UNL     1       2.014   6.316  20.383  0.00  0.00    +0.000 A 
ATOM     14  C   UNL     1       2.818   6.507  19.246  0.00  0.00    +0.000 A 
ATOM     15  C   UNL     1       3.477   5.442  18.593  0.00  0.00    +0.000 A 
ENDBRANCH   1  13
BRANCH   2  16
ATOM     16  C   UNL     1       0.524   9.708  21.207  0.00  0.00    +0.000 A 
ATOM     17  C   UNL     1       0.428  11.017  20.735  0.00  0.00    +0.000 A 
ATOM     18  N   UNL     1      -0.289  11.965  21.391  0.00  0.00    +0.000 NA
ATOM     19  C   UNL     1      -0.915  11.557  22.526  0.00  0.00    +0.000 A 
ATOM     20  C   UNL     1      -0.786  10.243  22.982  0.00  0.00    +0.000 A 
ATOM     21  N   UNL     1      -0.058   9.293  22.358  0.00  0.00    +0.000 NA
BRANCH  19  22
ATOM     22  C   UNL     1      -1.726  12.544  23.242  0.00  0.00    +0.000 A 
ATOM     23  C   UNL     1      -3.043  12.249  23.631  0.00  0.00    +0.000 A 
ATOM     24  C   UNL     1      -3.845  13.214  24.236  0.00  0.00    +0.000 A 
ATOM     25  C   UNL     1      -3.337  14.488  24.477  0.00  0.00    +0.000 A 
ATOM     26  C   UNL     1      -2.021  14.790  24.136  0.00  0.00    +0.000 A 
ATOM     27  C   UNL     1      -1.218  13.823  23.533  0.00  0.00    +0.000 A 
ENDBRANCH  19  22
ENDBRANCH   2  16
TORSDOF 3
ENDMDL
MODEL 7
REMARK VINA RESULT:      -7.8      1.112      1.137
REMARK  Name = 
REMARK  4 active torsions:
REMARK  status: ('A' for Active; 'I' for Inactive)
REMARK    1  A    between atoms: C_1  and  N_2
REMARK    2  A    between atoms: C_9  and  N_10
REMARK    3  A    between atoms: C_11  and  C_13
REMARK    4  A    between atoms: C_16  and  C_17
REMARK                            x       y       z     vdW  Elec       q    Type
REMARK                         _______ _______ _______ _____ _____    ______ ____
ROOT
ATOM      1  N   UNL     1       2.098   7.754  19.022  0.00  0.00    +0.000 N 
ATOM      2  C   UNL     1       1.625   7.640  20.339  0.00  0.00    +0.000 C 
ATOM      3  O   UNL     1       1.802   6.715  21.110  0.00  0.00    +0.000 OA
ATOM      4  H   UNL     1       1.945   8.631  18.541  0.00  0.00    +0.000 HD
ENDROOT
BRANCH   1  13
ATOM      5  C   UNL     1       6.911   7.425  17.325  0.00  0.00    +0.000 C 
ATOM      6  N   UNL     1       6.220   6.228  16.853  0.00  0.00    +0.000 N 
ATOM      7  C   UNL     1       7.059   5.095  16.471  0.00  0.00    +0.000 C 
ATOM      8  C   UNL     1       6.271   4.106  15.629  0.00  0.00    +0.000 C 
ATOM      9  C   UNL     1       5.071   3.596  16.413  0.00  0.00    +0.000 C 
ATOM     10  C   UNL     1       4.294   4.719  17.045  0.00  0.00    +0.000 A 
ATOM     11  C   UNL     1       2.966   4.507  17.437  0.00  0.00    +0.000 A 
ATOM     12  C   UNL     1       2.242   5.505  18.080  0.00  0.00    +0.000 A 
ATOM     13  C   UNL     1       2.819   6.731  18.354  0.00  0.00    +0.000 A 
ATOM     14  C   UNL     1       4.142   6.958  17.934  0.00  0.00    +0.000 A 
ATOM     15  C   UNL     1       4.915   5.966  17.290  0.00  0.00    +0.000 A 
ENDBRANCH   1  13
BRANCH   2  16
ATOM     16  C   UNL     1       0.899   8.818  20.877  0.00  0.00    +0.000 A 
ATOM     17  C   UNL     1       0.913   9.087  22.246  0.00  0.00    +0.000 A 
ATOM     18  N   UNL     1       0.372  10.221  22.759  0.00  0.00    +0.000 NA
ATOM     19  C   UNL     1      -0.170  11.081  21.856  0.00  0.00    +0.000 A 
ATOM     20  C   UNL     1      -0.183  10.775  20.494  0.00  0.00    +0.000 A 
ATOM     21  N   UNL     1       0.326   9.641  19.967  0.00  0.00    +0.000 NA
BRANCH  19  22
ATOM     22  C   UNL     1      -0.732  12.332  22.370  0.00  0.00    +0.000 A 
ATOM     23  C   UNL     1      -1.915  12.333  23.127  0.00  0.00    +0.000 A 
ATOM     24  C   UNL     1      -2.498  13.528  23.545  0.00  0.00    +0.000 A 
ATOM     25  C   UNL     1      -1.897  14.743  23.225  0.00  0.00    +0.000 A 
ATOM     26  C   UNL     1      -0.702  14.763  22.512  0.00  0.00    +0.000 A 
ATOM     27  C   UNL     1      -0.118  13.568  22.097  0.00  0.00    +0.000 A 
ENDBRANCH  19  22
ENDBRANCH   2  16
TORSDOF 3
ENDMDL
MODEL 8
REMARK VINA RESULT:      -7.7      1.746      2.738
REMARK  Name = 
REMARK  4 active torsions:
REMARK  status: ('A' for Active; 'I' for Inactive)
REMARK    1  A    between atoms: C_1  and  N_2
REMARK    2  A    between atoms: C_9  and  N_10
REMARK    3  A    between atoms: C_11  and  C_13
REMARK    4  A    between atoms: C_16  and  C_17
REMARK                            x       y       z     vdW  Elec       q    Type
REMARK                         _______ _______ _______ _____ _____    ______ ____
ROOT
ATOM      1  N   UNL     1       1.419   8.664  20.091  0.00  0.00    +0.000 N 
ATOM      2  C   UNL     1       0.545   9.622  19.552  0.00  0.00    +0.000 C 
ATOM      3  O   UNL     1       0.275   9.798  18.379  0.00  0.00    +0.000 OA
ATOM      4  H   UNL     1       1.465   8.582  21.098  0.00  0.00    +0.000 HD
ENDROOT
BRANCH   1  13
ATOM      5  C   UNL     1       2.543   3.694  20.526  0.00  0.00    +0.000 C 
ATOM      6  N   UNL     1       3.341   4.206  19.415  0.00  0.00    +0.000 N 
ATOM      7  C   UNL     1       3.850   3.220  18.465  0.00  0.00    +0.000 C 
ATOM      8  C   UNL     1       4.974   3.811  17.630  0.00  0.00    +0.000 C 
ATOM      9  C   UNL     1       4.470   5.027  16.866  0.00  0.00    +0.000 C 
ATOM     10  C   UNL     1       3.713   5.976  17.756  0.00  0.00    +0.000 A 
ATOM     11  C   UNL     1       3.541   7.308  17.359  0.00  0.00    +0.000 A 
ATOM     12  C   UNL     1       2.795   8.193  18.128  0.00  0.00    +0.000 A 
ATOM     13  C   UNL     1       2.196   7.776  19.303  0.00  0.00    +0.000 A 
ATOM     14  C   UNL     1       2.393   6.449  19.720  0.00  0.00    +0.000 A 
ATOM     15  C   UNL     1       3.133   5.515  18.961  0.00  0.00    +0.000 A 
ENDBRANCH   1  13
BRANCH   2  16
ATOM     16  C   UNL     1      -0.194  10.457  20.532  0.00  0.00    +0.000 A 
ATOM     17  C   UNL     1       0.113  10.383  21.890  0.00  0.00    +0.000 A 
ATOM     18  N   UNL     1      -0.448  11.222  22.798  0.00  0.00    +0.000 NA
ATOM     19  C   UNL     1      -1.314  12.143  22.300  0.00  0.00    +0.000 A 
ATOM     20  C   UNL     1      -1.614  12.180  20.936  0.00  0.00    +0.000 A 
ATOM     21  N   UNL     1      -1.086  11.339  20.022  0.00  0.00    +0.000 NA
BRANCH  19  22
ATOM     22  C   UNL     1      -1.913  13.088  23.246  0.00  0.00    +0.000 A 
ATOM     23  C   UNL     1      -1.192  14.203  23.702  0.00  0.00    +0.000 A 
ATOM     24  C   UNL     1      -1.727  15.057  24.666  0.00  0.00    +0.000 A 
ATOM     25  C   UNL     1      -3.000  14.816  25.177  0.00  0.00    +0.000 A 
ATOM     26  C   UNL     1      -3.748  13.740  24.709  0.00  0.00    +0.000 A 
ATOM     27  C   UNL     1      -3.213  12.888  23.742  0.00  0.00    +0.000 A 
ENDBRANCH  19  22
ENDBRANCH   2  16
TORSDOF 3
ENDMDL
MODEL 9
REMARK VINA RESULT:      -7.6      1.883      3.000
REMARK  Name = 
REMARK  4 active torsions:
REMARK  status: ('A' for Active; 'I' for Inactive)
REMARK    1  A    between atoms: C_1  and  N_2
REMARK    2  A    between atoms: C_9  and  N_10
REMARK    3  A    between atoms: C_11  and  C_13
REMARK    4  A    between atoms: C_16  and  C_17
REMARK                            x       y       z     vdW  Elec       q    Type
REMARK                         _______ _______ _______ _____ _____    ______ ____
ROOT
ATOM      1  N   UNL     1       1.905   8.043  19.742  0.00  0.00    +0.000 N 
ATOM      2  C   UNL     1       1.335   9.100  19.014  0.00  0.00    +0.000 C 
ATOM      3  O   UNL     1       1.152   9.154  17.812  0.00  0.00    +0.000 OA
ATOM      4  H   UNL     1       1.902   8.112  20.752  0.00  0.00    +0.000 HD
ENDROOT
BRANCH   1  13
ATOM      5  C   UNL     1       1.104   3.058  20.554  0.00  0.00    +0.000 C 
ATOM      6  N   UNL     1       2.200   3.153  19.593  0.00  0.00    +0.000 N 
ATOM      7  C   UNL     1       2.472   1.963  18.790  0.00  0.00    +0.000 C 
ATOM      8  C   UNL     1       3.851   2.049  18.158  0.00  0.00    +0.000 C 
ATOM      9  C   UNL     1       3.942   3.282  17.271  0.00  0.00    +0.000 C 
ATOM     10  C   UNL     1       3.439   4.516  17.970  0.00  0.00    +0.000 A 
ATOM     11  C   UNL     1       3.818   5.780  17.502  0.00  0.00    +0.000 A 
ATOM     12  C   UNL     1       3.321   6.938  18.087  0.00  0.00    +0.000 A 
ATOM     13  C   UNL     1       2.432   6.870  19.144  0.00  0.00    +0.000 A 
ATOM     14  C   UNL     1       2.074   5.603  19.637  0.00  0.00    +0.000 A 
ATOM     15  C   UNL     1       2.547   4.402  19.063  0.00  0.00    +0.000 A 
ENDBRANCH   1  13
BRANCH   2  16
ATOM     16  C   UNL     1       0.825  10.244  19.811  0.00  0.00    +0.000 A 
ATOM     17  C   UNL     1       0.697  10.133  21.196  0.00  0.00    +0.000 A 
ATOM     18  N   UNL     1       0.359  11.195  21.972  0.00  0.00    +0.000 NA
ATOM     19  C   UNL     1       0.168  12.371  21.318  0.00  0.00    +0.000 A 
ATOM     20  C   UNL     1       0.288  12.445  19.928  0.00  0.00    +0.000 A 
ATOM     21  N   UNL     1       0.598  11.396  19.137  0.00  0.00    +0.000 NA
BRANCH  19  22
ATOM     22  C   UNL     1      -0.163  13.546  22.126  0.00  0.00    +0.000 A 
ATOM     23  C   UNL     1       0.488  14.772  21.916  0.00  0.00    +0.000 A 
ATOM     24  C   UNL     1       0.236  15.868  22.739  0.00  0.00    +0.000 A 
ATOM     25  C   UNL     1      -0.685  15.760  23.777  0.00  0.00    +0.000 A 
ATOM     26  C   UNL     1      -1.373  14.566  23.978  0.00  0.00    +0.000 A 
ATOM     27  C   UNL     1      -1.122  13.471  23.153  0.00  0.00    +0.000 A 
ENDBRANCH  19  22
ENDBRANCH   2  16
TORSDOF 3
ENDMDL
