MODEL 1
REMARK VINA RESULT:      -7.6      0.000      0.000
REMARK  Name = 
REMARK  9 active torsions:
REMARK  status: ('A' for Active; 'I' for Inactive)
REMARK    1  A    between atoms: C_1  and  C_2
REMARK    2  A    between atoms: C_6  and  C_7
REMARK    3  A    between atoms: C_13  and  C_14
REMARK    4  A    between atoms: C_16  and  C_17
REMARK    5  A    between atoms: C_17  and  C_18
REMARK    6  A    between atoms: N_25  and  C_26
REMARK    7  A    between atoms: C_26  and  C_27
REMARK    8  A    between atoms: C_27  and  C_28
REMARK    9  A    between atoms: C_28  and  N_29
REMARK                            x       y       z     vdW  Elec       q    Type
REMARK                         _______ _______ _______ _____ _____    ______ ____
ROOT
ATOM      1  C   UNL     1       2.281   5.996  20.136  0.00  0.00    +0.000 C 
ATOM      2  C   UNL     1       1.777   7.418  20.328  0.00  0.00    +0.000 A 
ATOM      3  C   UNL     1       1.589   7.774  21.604  0.00  0.00    +0.000 A 
ATOM      4  C   UNL     1       1.260   9.165  21.873  0.00  0.00    +0.000 A 
ATOM      5  O   UNL     1       1.581   9.648  22.948  0.00  0.00    +0.000 OA
ATOM      6  C   UNL     1       0.550   9.944  20.813  0.00  0.00    +0.000 A 
ATOM      7  C   UNL     1       0.785   9.531  19.542  0.00  0.00    +0.000 A 
ATOM      8  N   UNL     1       1.551   8.332  19.245  0.00  0.00    +0.000 N 
ENDROOT
BRANCH   6   9
ATOM      9  C   UNL     1      -0.195  11.181  21.263  0.00  0.00    +0.000 C 
ATOM     10  O   UNL     1      -1.312  11.089  21.769  0.00  0.00    +0.000 OA
ATOM     11  N   UNL     1       0.411  12.426  21.087  0.00  0.00    +0.000 N 
ATOM     12  C   UNL     1      -0.297  13.634  21.506  0.00  0.00    +0.000 C 
ATOM     13  C   UNL     1      -0.125  14.770  20.498  0.00  0.00    +0.000 C 
ATOM     14  C   UNL     1       1.325  14.983  20.054  0.00  0.00    +0.000 C 
ATOM     15  C   UNL     1       2.107  13.693  19.775  0.00  0.00    +0.000 C 
ATOM     16  C   UNL     1       1.859  13.197  18.351  0.00  0.00    +0.000 C 
ATOM     17  C   UNL     1       1.837  12.636  20.853  0.00  0.00    +0.000 C 
ENDBRANCH   6   9
BRANCH   7  18
ATOM     18  C   UNL     1       0.314  10.481  18.418  0.00  0.00    +0.000 C 
BRANCH  18  19
ATOM     19  C   UNL     1      -1.122  10.549  17.970  0.00  0.00    +0.000 A 
ATOM     20  C   UNL     1      -1.468   9.677  16.909  0.00  0.00    +0.000 A 
ATOM     21  C   UNL     1      -2.710   9.749  16.292  0.00  0.00    +0.000 A 
ATOM     22  C   UNL     1      -3.648  10.662  16.757  0.00  0.00    +0.000 A 
ATOM     23  C   UNL     1      -3.351  11.447  17.869  0.00  0.00    +0.000 A 
ATOM     24  F   UNL     1      -4.280  12.282  18.349  0.00  0.00    +0.000 F 
ATOM     25  C   UNL     1      -2.099  11.404  18.477  0.00  0.00    +0.000 A 
ENDBRANCH  18  19
ENDBRANCH   7  18
BRANCH   8  26
ATOM     26  C   UNL     1       1.961   7.874  17.885  0.00  0.00    +0.000 C 
BRANCH  26  27
ATOM     27  C   UNL     1       3.420   7.996  17.460  0.00  0.00    +0.000 C 
BRANCH  27  28
ATOM     28  C   UNL     1       4.194   6.680  17.313  0.00  0.00    +0.000 C 
BRANCH  28  29
ATOM     29  N   UNL     1       5.363   6.874  16.433  0.00  0.00    +0.000 NA
ATOM     30  C   UNL     1       5.638   5.715  15.559  0.00  0.00    +0.000 C 
ATOM     31  C   UNL     1       6.196   4.518  16.339  0.00  0.00    +0.000 C 
ATOM     32  O   UNL     1       7.449   4.867  16.932  0.00  0.00    +0.000 OA
ATOM     33  C   UNL     1       7.291   5.969  17.837  0.00  0.00    +0.000 C 
ATOM     34  C   UNL     1       6.606   7.186  17.179  0.00  0.00    +0.000 C 
ENDBRANCH  28  29
ENDBRANCH  27  28
ENDBRANCH  26  27
ENDBRANCH   8  26
TORSDOF 7
ENDMDL
MODEL 2
REMARK VINA RESULT:      -7.3      2.608      3.977
REMARK  Name = 
REMARK  9 active torsions:
REMARK  status: ('A' for Active; 'I' for Inactive)
REMARK    1  A    between atoms: C_1  and  C_2
REMARK    2  A    between atoms: C_6  and  C_7
REMARK    3  A    between atoms: C_13  and  C_14
REMARK    4  A    between atoms: C_16  and  C_17
REMARK    5  A    between atoms: C_17  and  C_18
REMARK    6  A    between atoms: N_25  and  C_26
REMARK    7  A    between atoms: C_26  and  C_27
REMARK    8  A    between atoms: C_27  and  C_28
REMARK    9  A    between atoms: C_28  and  N_29
REMARK                            x       y       z     vdW  Elec       q    Type
REMARK                         _______ _______ _______ _____ _____    ______ ____
ROOT
ATOM      1  C   UNL     1       0.306   8.468  21.726  0.00  0.00    +0.000 C 
ATOM      2  C   UNL     1      -0.128   9.891  21.412  0.00  0.00    +0.000 A 
ATOM      3  C   UNL     1      -0.348  10.655  22.487  0.00  0.00    +0.000 A 
ATOM      4  C   UNL     1      -0.612  12.069  22.266  0.00  0.00    +0.000 A 
ATOM      5  O   UNL     1      -0.309  12.867  23.139  0.00  0.00    +0.000 OA
ATOM      6  C   UNL     1      -1.236  12.479  20.970  0.00  0.00    +0.000 A 
ATOM      7  C   UNL     1      -0.972  11.660  19.921  0.00  0.00    +0.000 A 
ATOM      8  N   UNL     1      -0.260  10.403  20.078  0.00  0.00    +0.000 N 
ENDROOT
BRANCH   6   9
ATOM      9  C   UNL     1      -1.931  13.822  20.947  0.00  0.00    +0.000 C 
ATOM     10  O   UNL     1      -1.368  14.810  20.479  0.00  0.00    +0.000 OA
ATOM     11  N   UNL     1      -3.221  13.916  21.475  0.00  0.00    +0.000 N 
ATOM     12  C   UNL     1      -3.904  15.208  21.471  0.00  0.00    +0.000 C 
ATOM     13  C   UNL     1      -4.671  15.446  22.772  0.00  0.00    +0.000 C 
ATOM     14  C   UNL     1      -5.528  14.254  23.206  0.00  0.00    +0.000 C 
ATOM     15  C   UNL     1      -4.852  12.886  23.048  0.00  0.00    +0.000 C 
ATOM     16  C   UNL     1      -3.979  12.561  24.260  0.00  0.00    +0.000 C 
ATOM     17  C   UNL     1      -4.111  12.784  21.709  0.00  0.00    +0.000 C 
ENDBRANCH   6   9
BRANCH   7  18
ATOM     18  C   UNL     1      -1.345  12.202  18.523  0.00  0.00    +0.000 C 
BRANCH  18  19
ATOM     19  C   UNL     1      -2.482  11.632  17.715  0.00  0.00    +0.000 A 
ATOM     20  C   UNL     1      -2.118  11.085  16.461  0.00  0.00    +0.000 A 
ATOM     21  C   UNL     1      -3.080  10.672  15.548  0.00  0.00    +0.000 A 
ATOM     22  C   UNL     1      -4.423  10.755  15.892  0.00  0.00    +0.000 A 
ATOM     23  C   UNL     1      -4.781  11.193  17.165  0.00  0.00    +0.000 A 
ATOM     24  F   UNL     1      -6.074  11.214  17.511  0.00  0.00    +0.000 F 
ATOM     25  C   UNL     1      -3.827  11.635  18.078  0.00  0.00    +0.000 A 
ENDBRANCH  18  19
ENDBRANCH   7  18
BRANCH   8  26
ATOM     26  C   UNL     1       0.179   9.506  18.969  0.00  0.00    +0.000 C 
BRANCH  26  27
ATOM     27  C   UNL     1       1.656   9.441  18.597  0.00  0.00    +0.000 C 
BRANCH  27  28
ATOM     28  C   UNL     1       2.123   8.151  17.908  0.00  0.00    +0.000 C 
BRANCH  28  29
ATOM     29  N   UNL     1       2.974   7.367  18.825  0.00  0.00    +0.000 NA
ATOM     30  C   UNL     1       4.229   6.898  18.203  0.00  0.00    +0.000 C 
ATOM     31  C   UNL     1       3.989   5.781  17.179  0.00  0.00    +0.000 C 
ATOM     32  O   UNL     1       3.423   4.640  17.829  0.00  0.00    +0.000 OA
ATOM     33  C   UNL     1       2.171   4.976  18.443  0.00  0.00    +0.000 C 
ATOM     34  C   UNL     1       2.280   6.187  19.394  0.00  0.00    +0.000 C 
ENDBRANCH  28  29
ENDBRANCH  27  28
ENDBRANCH  26  27
ENDBRANCH   8  26
TORSDOF 7
ENDMDL
MODEL 3
REMARK VINA RESULT:      -7.2      2.695      4.098
REMARK  Name = 
REMARK  9 active torsions:
REMARK  status: ('A' for Active; 'I' for Inactive)
REMARK    1  A    between atoms: C_1  and  C_2
REMARK    2  A    between atoms: C_6  and  C_7
REMARK    3  A    between atoms: C_13  and  C_14
REMARK    4  A    between atoms: C_16  and  C_17
REMARK    5  A    between atoms: C_17  and  C_18
REMARK    6  A    between atoms: N_25  and  C_26
REMARK    7  A    between atoms: C_26  and  C_27
REMARK    8  A    between atoms: C_27  and  C_28
REMARK    9  A    between atoms: C_28  and  N_29
REMARK                            x       y       z     vdW  Elec       q    Type
REMARK                         _______ _______ _______ _____ _____    ______ ____
ROOT
ATOM      1  C   UNL     1       0.132   8.343  21.662  0.00  0.00    +0.000 C 
ATOM      2  C   UNL     1      -0.229   9.794  21.380  0.00  0.00    +0.000 A 
ATOM      3  C   UNL     1      -0.468  10.529  22.472  0.00  0.00    +0.000 A 
ATOM      4  C   UNL     1      -0.665  11.959  22.291  0.00  0.00    +0.000 A 
ATOM      5  O   UNL     1      -0.371  12.713  23.205  0.00  0.00    +0.000 OA
ATOM      6  C   UNL     1      -1.211  12.439  20.985  0.00  0.00    +0.000 A 
ATOM      7  C   UNL     1      -0.932  11.646  19.919  0.00  0.00    +0.000 A 
ATOM      8  N   UNL     1      -0.279  10.356  20.061  0.00  0.00    +0.000 N 
ENDROOT
BRANCH   6   9
ATOM      9  C   UNL     1      -1.850  13.810  20.979  0.00  0.00    +0.000 C 
ATOM     10  O   UNL     1      -1.243  14.782  20.534  0.00  0.00    +0.000 OA
ATOM     11  N   UNL     1      -3.140  13.947  21.496  0.00  0.00    +0.000 N 
ATOM     12  C   UNL     1      -3.770  15.266  21.510  0.00  0.00    +0.000 C 
ATOM     13  C   UNL     1      -4.540  15.513  22.807  0.00  0.00    +0.000 C 
ATOM     14  C   UNL     1      -5.450  14.349  23.212  0.00  0.00    +0.000 C 
ATOM     15  C   UNL     1      -4.828  12.957  23.036  0.00  0.00    +0.000 C 
ATOM     16  C   UNL     1      -3.982  12.575  24.250  0.00  0.00    +0.000 C 
ATOM     17  C   UNL     1      -4.079  12.849  21.702  0.00  0.00    +0.000 C 
ENDBRANCH   6   9
BRANCH   7  18
ATOM     18  C   UNL     1      -1.219  12.251  18.526  0.00  0.00    +0.000 C 
BRANCH  18  19
ATOM     19  C   UNL     1      -2.286  11.704  17.614  0.00  0.00    +0.000 A 
ATOM     20  C   UNL     1      -3.600  11.721  18.140  0.00  0.00    +0.000 A 
ATOM     21  C   UNL     1      -4.651  11.103  17.475  0.00  0.00    +0.000 A 
ATOM     22  C   UNL     1      -4.416  10.499  16.246  0.00  0.00    +0.000 A 
ATOM     23  C   UNL     1      -3.148  10.572  15.675  0.00  0.00    +0.000 A 
ATOM     24  F   UNL     1      -2.942  10.039  14.464  0.00  0.00    +0.000 F 
ATOM     25  C   UNL     1      -2.080  11.164  16.346  0.00  0.00    +0.000 A 
ENDBRANCH  18  19
ENDBRANCH   7  18
BRANCH   8  26
ATOM     26  C   UNL     1       0.175   9.480  18.941  0.00  0.00    +0.000 C 
BRANCH  26  27
ATOM     27  C   UNL     1       1.666   9.251  18.724  0.00  0.00    +0.000 C 
BRANCH  27  28
ATOM     28  C   UNL     1       2.058   7.917  18.078  0.00  0.00    +0.000 C 
BRANCH  28  29
ATOM     29  N   UNL     1       3.012   7.196  18.943  0.00  0.00    +0.000 NA
ATOM     30  C   UNL     1       4.127   6.576  18.198  0.00  0.00    +0.000 C 
ATOM     31  C   UNL     1       3.675   5.362  17.376  0.00  0.00    +0.000 C 
ATOM     32  O   UNL     1       3.174   4.346  18.249  0.00  0.00    +0.000 OA
ATOM     33  C   UNL     1       2.055   4.831  19.003  0.00  0.00    +0.000 C 
ATOM     34  C   UNL     1       2.370   6.138  19.761  0.00  0.00    +0.000 C 
ENDBRANCH  28  29
ENDBRANCH  27  28
ENDBRANCH  26  27
ENDBRANCH   8  26
TORSDOF 7
ENDMDL
MODEL 4
REMARK VINA RESULT:      -7.0      4.193      6.089
REMARK  Name = 
REMARK  9 active torsions:
REMARK  status: ('A' for Active; 'I' for Inactive)
REMARK    1  A    between atoms: C_1  and  C_2
REMARK    2  A    between atoms: C_6  and  C_7
REMARK    3  A    between atoms: C_13  and  C_14
REMARK    4  A    between atoms: C_16  and  C_17
REMARK    5  A    between atoms: C_17  and  C_18
REMARK    6  A    between atoms: N_25  and  C_26
REMARK    7  A    between atoms: C_26  and  C_27
REMARK    8  A    between atoms: C_27  and  C_28
REMARK    9  A    between atoms: C_28  and  N_29
REMARK                            x       y       z     vdW  Elec       q    Type
REMARK                         _______ _______ _______ _____ _____    ______ ____
ROOT
ATOM      1  C   UNL     1       0.175   9.102  22.169  0.00  0.00    +0.000 C 
ATOM      2  C   UNL     1      -0.418  10.477  21.899  0.00  0.00    +0.000 A 
ATOM      3  C   UNL     1      -0.776  11.153  22.996  0.00  0.00    +0.000 A 
ATOM      4  C   UNL     1      -1.203  12.533  22.826  0.00  0.00    +0.000 A 
ATOM      5  O   UNL     1      -1.039  13.317  23.748  0.00  0.00    +0.000 OA
ATOM      6  C   UNL     1      -1.818  12.930  21.522  0.00  0.00    +0.000 A 
ATOM      7  C   UNL     1      -1.410  12.203  20.450  0.00  0.00    +0.000 A 
ATOM      8  N   UNL     1      -0.556  11.035  20.584  0.00  0.00    +0.000 N 
ENDROOT
BRANCH   6   9
ATOM      9  C   UNL     1      -2.672  14.178  21.526  0.00  0.00    +0.000 C 
ATOM     10  O   UNL     1      -2.222  15.246  21.114  0.00  0.00    +0.000 OA
ATOM     11  N   UNL     1      -3.978  14.092  22.013  0.00  0.00    +0.000 N 
ATOM     12  C   UNL     1      -4.815  15.290  22.035  0.00  0.00    +0.000 C 
ATOM     13  C   UNL     1      -5.643  15.378  23.318  0.00  0.00    +0.000 C 
ATOM     14  C   UNL     1      -6.358  14.073  23.678  0.00  0.00    +0.000 C 
ATOM     15  C   UNL     1      -5.514  12.806  23.492  0.00  0.00    +0.000 C 
ATOM     16  C   UNL     1      -4.643  12.540  24.719  0.00  0.00    +0.000 C 
ATOM     17  C   UNL     1      -4.729  12.851  22.175  0.00  0.00    +0.000 C 
ENDBRANCH   6   9
BRANCH   7  18
ATOM     18  C   UNL     1      -1.788  12.766  19.062  0.00  0.00    +0.000 C 
BRANCH  18  19
ATOM     19  C   UNL     1      -2.583  11.971  18.059  0.00  0.00    +0.000 A 
ATOM     20  C   UNL     1      -3.885  11.604  18.473  0.00  0.00    +0.000 A 
ATOM     21  C   UNL     1      -4.665  10.738  17.717  0.00  0.00    +0.000 A 
ATOM     22  C   UNL     1      -4.174  10.262  16.508  0.00  0.00    +0.000 A 
ATOM     23  C   UNL     1      -2.937  10.705  16.046  0.00  0.00    +0.000 A 
ATOM     24  F   UNL     1      -2.496  10.289  14.853  0.00  0.00    +0.000 F 
ATOM     25  C   UNL     1      -2.135  11.550  16.809  0.00  0.00    +0.000 A 
ENDBRANCH  18  19
ENDBRANCH   7  18
BRANCH   8  26
ATOM     26  C   UNL     1       0.038  10.256  19.459  0.00  0.00    +0.000 C 
BRANCH  26  27
ATOM     27  C   UNL     1       1.376  10.689  18.870  0.00  0.00    +0.000 C 
BRANCH  27  28
ATOM     28  C   UNL     1       1.499  12.170  18.489  0.00  0.00    +0.000 C 
BRANCH  28  29
ATOM     29  N   UNL     1       2.505  12.831  19.343  0.00  0.00    +0.000 NA
ATOM     30  C   UNL     1       1.915  13.592  20.463  0.00  0.00    +0.000 C 
ATOM     31  C   UNL     1       1.210  14.871  19.991  0.00  0.00    +0.000 C 
ATOM     32  O   UNL     1       2.158  15.748  19.378  0.00  0.00    +0.000 OA
ATOM     33  C   UNL     1       2.772  15.118  18.245  0.00  0.00    +0.000 C 
ATOM     34  C   UNL     1       3.394  13.748  18.590  0.00  0.00    +0.000 C 
ENDBRANCH  28  29
ENDBRANCH  27  28
ENDBRANCH  26  27
ENDBRANCH   8  26
TORSDOF 7
ENDMDL
MODEL 5
REMARK VINA RESULT:      -7.0      1.046      1.503
REMARK  Name = 
REMARK  9 active torsions:
REMARK  status: ('A' for Active; 'I' for Inactive)
REMARK    1  A    between atoms: C_1  and  C_2
REMARK    2  A    between atoms: C_6  and  C_7
REMARK    3  A    between atoms: C_13  and  C_14
REMARK    4  A    between atoms: C_16  and  C_17
REMARK    5  A    between atoms: C_17  and  C_18
REMARK    6  A    between atoms: N_25  and  C_26
REMARK    7  A    between atoms: C_26  and  C_27
REMARK    8  A    between atoms: C_27  and  C_28
REMARK    9  A    between atoms: C_28  and  N_29
REMARK                            x       y       z     vdW  Elec       q    Type
REMARK                         _______ _______ _______ _____ _____    ______ ____
ROOT
ATOM      1  C   UNL     1       1.845   6.171  20.371  0.00  0.00    +0.000 C 
ATOM      2  C   UNL     1       1.421   7.621  20.552  0.00  0.00    +0.000 A 
ATOM      3  C   UNL     1       1.226   7.988  21.823  0.00  0.00    +0.000 A 
ATOM      4  C   UNL     1       0.972   9.396  22.086  0.00  0.00    +0.000 A 
ATOM      5  O   UNL     1       1.297   9.860  23.168  0.00  0.00    +0.000 OA
ATOM      6  C   UNL     1       0.333  10.214  21.010  0.00  0.00    +0.000 A 
ATOM      7  C   UNL     1       0.572   9.787  19.744  0.00  0.00    +0.000 A 
ATOM      8  N   UNL     1       1.273   8.545  19.464  0.00  0.00    +0.000 N 
ENDROOT
BRANCH   6   9
ATOM      9  C   UNL     1      -0.349  11.492  21.445  0.00  0.00    +0.000 C 
ATOM     10  O   UNL     1      -1.476  11.466  21.933  0.00  0.00    +0.000 OA
ATOM     11  N   UNL     1       0.329  12.701  21.273  0.00  0.00    +0.000 N 
ATOM     12  C   UNL     1      -0.317  13.948  21.677  0.00  0.00    +0.000 C 
ATOM     13  C   UNL     1      -0.066  15.069  20.668  0.00  0.00    +0.000 C 
ATOM     14  C   UNL     1       1.400  15.199  20.246  0.00  0.00    +0.000 C 
ATOM     15  C   UNL     1       2.112  13.865  19.984  0.00  0.00    +0.000 C 
ATOM     16  C   UNL     1       1.859  13.378  18.558  0.00  0.00    +0.000 C 
ATOM     17  C   UNL     1       1.767  12.830  21.061  0.00  0.00    +0.000 C 
ENDBRANCH   6   9
BRANCH   7  18
ATOM     18  C   UNL     1       0.183  10.762  18.611  0.00  0.00    +0.000 C 
BRANCH  18  19
ATOM     19  C   UNL     1      -1.184  10.756  17.977  0.00  0.00    +0.000 A 
ATOM     20  C   UNL     1      -2.106  11.683  18.518  0.00  0.00    +0.000 A 
ATOM     21  C   UNL     1      -3.442  11.676  18.140  0.00  0.00    +0.000 A 
ATOM     22  C   UNL     1      -3.871  10.772  17.176  0.00  0.00    +0.000 A 
ATOM     23  C   UNL     1      -2.945   9.930  16.563  0.00  0.00    +0.000 A 
ATOM     24  F   UNL     1      -3.353   9.103  15.593  0.00  0.00    +0.000 F 
ATOM     25  C   UNL     1      -1.609   9.910  16.955  0.00  0.00    +0.000 A 
ENDBRANCH  18  19
ENDBRANCH   7  18
BRANCH   8  26
ATOM     26  C   UNL     1       1.687   8.063  18.114  0.00  0.00    +0.000 C 
BRANCH  26  27
ATOM     27  C   UNL     1       3.155   7.751  17.845  0.00  0.00    +0.000 C 
BRANCH  27  28
ATOM     28  C   UNL     1       3.503   6.272  17.636  0.00  0.00    +0.000 C 
BRANCH  28  29
ATOM     29  N   UNL     1       4.962   6.075  17.746  0.00  0.00    +0.000 NA
ATOM     30  C   UNL     1       5.717   6.635  16.606  0.00  0.00    +0.000 C 
ATOM     31  C   UNL     1       5.521   5.820  15.321  0.00  0.00    +0.000 C 
ATOM     32  O   UNL     1       6.019   4.494  15.507  0.00  0.00    +0.000 OA
ATOM     33  C   UNL     1       5.325   3.836  16.576  0.00  0.00    +0.000 C 
ATOM     34  C   UNL     1       5.346   4.650  17.888  0.00  0.00    +0.000 C 
ENDBRANCH  28  29
ENDBRANCH  27  28
ENDBRANCH  26  27
ENDBRANCH   8  26
TORSDOF 7
ENDMDL
MODEL 6
REMARK VINA RESULT:      -6.9      1.511      1.986
REMARK  Name = 
REMARK  9 active torsions:
REMARK  status: ('A' for Active; 'I' for Inactive)
REMARK    1  A    between atoms: C_1  and  C_2
REMARK    2  A    between atoms: C_6  and  C_7
REMARK    3  A    between atoms: C_13  and  C_14
REMARK    4  A    between atoms: C_16  and  C_17
REMARK    5  A    between atoms: C_17  and  C_18
REMARK    6  A    between atoms: N_25  and  C_26
REMARK    7  A    between atoms: C_26  and  C_27
REMARK    8  A    between atoms: C_27  and  C_28
REMARK    9  A    between atoms: C_28  and  N_29
REMARK                            x       y       z     vdW  Elec       q    Type
REMARK                         _______ _______ _______ _____ _____    ______ ____
ROOT
ATOM      1  C   UNL     1       1.283   7.302  20.886  0.00  0.00    +0.000 C 
ATOM      2  C   UNL     1       0.653   8.687  20.863  0.00  0.00    +0.000 A 
ATOM      3  C   UNL     1       0.268   9.141  22.060  0.00  0.00    +0.000 A 
ATOM      4  C   UNL     1      -0.197  10.518  22.139  0.00  0.00    +0.000 A 
ATOM      5  O   UNL     1      -0.063  11.124  23.191  0.00  0.00    +0.000 OA
ATOM      6  C   UNL     1      -0.812  11.129  20.922  0.00  0.00    +0.000 A 
ATOM      7  C   UNL     1      -0.376  10.622  19.741  0.00  0.00    +0.000 A 
ATOM      8  N   UNL     1       0.510   9.472  19.671  0.00  0.00    +0.000 N 
ENDROOT
BRANCH   6   9
ATOM      9  C   UNL     1      -1.701  12.333  21.142  0.00  0.00    +0.000 C 
ATOM     10  O   UNL     1      -2.906  12.193  21.343  0.00  0.00    +0.000 OA
ATOM     11  N   UNL     1      -1.124  13.604  21.107  0.00  0.00    +0.000 N 
ATOM     12  C   UNL     1      -1.969  14.780  21.308  0.00  0.00    +0.000 C 
ATOM     13  C   UNL     1      -1.590  15.918  20.359  0.00  0.00    +0.000 C 
ATOM     14  C   UNL     1      -0.085  16.195  20.302  0.00  0.00    +0.000 C 
ATOM     15  C   UNL     1       0.797  14.940  20.258  0.00  0.00    +0.000 C 
ATOM     16  C   UNL     1       0.949  14.425  18.827  0.00  0.00    +0.000 C 
ATOM     17  C   UNL     1       0.302  13.878  21.247  0.00  0.00    +0.000 C 
ENDBRANCH   6   9
BRANCH   7  18
ATOM     18  C   UNL     1      -0.759  11.418  18.474  0.00  0.00    +0.000 C 
BRANCH  18  19
ATOM     19  C   UNL     1      -2.016  11.135  17.693  0.00  0.00    +0.000 A 
ATOM     20  C   UNL     1      -1.905  10.117  16.716  0.00  0.00    +0.000 A 
ATOM     21  C   UNL     1      -2.934   9.863  15.818  0.00  0.00    +0.000 A 
ATOM     22  C   UNL     1      -4.113  10.592  15.913  0.00  0.00    +0.000 A 
ATOM     23  C   UNL     1      -4.267  11.521  16.939  0.00  0.00    +0.000 A 
ATOM     24  F   UNL     1      -5.427  12.177  17.061  0.00  0.00    +0.000 F 
ATOM     25  C   UNL     1      -3.231  11.803  17.827  0.00  0.00    +0.000 A 
ENDBRANCH  18  19
ENDBRANCH   7  18
BRANCH   8  26
ATOM     26  C   UNL     1       1.134   8.927  18.430  0.00  0.00    +0.000 C 
BRANCH  26  27
ATOM     27  C   UNL     1       2.529   8.316  18.497  0.00  0.00    +0.000 C 
BRANCH  27  28
ATOM     28  C   UNL     1       2.705   6.956  17.808  0.00  0.00    +0.000 C 
BRANCH  28  29
ATOM     29  N   UNL     1       3.831   6.221  18.417  0.00  0.00    +0.000 NA
ATOM     30  C   UNL     1       5.093   6.350  17.661  0.00  0.00    +0.000 C 
ATOM     31  C   UNL     1       5.063   5.572  16.339  0.00  0.00    +0.000 C 
ATOM     32  O   UNL     1       4.905   4.176  16.603  0.00  0.00    +0.000 OA
ATOM     33  C   UNL     1       3.681   3.928  17.308  0.00  0.00    +0.000 C 
ATOM     34  C   UNL     1       3.553   4.775  18.592  0.00  0.00    +0.000 C 
ENDBRANCH  28  29
ENDBRANCH  27  28
ENDBRANCH  26  27
ENDBRANCH   8  26
TORSDOF 7
ENDMDL
MODEL 7
REMARK VINA RESULT:      -6.9      2.664      4.190
REMARK  Name = 
REMARK  9 active torsions:
REMARK  status: ('A' for Active; 'I' for Inactive)
REMARK    1  A    between atoms: C_1  and  C_2
REMARK    2  A    between atoms: C_6  and  C_7
REMARK    3  A    between atoms: C_13  and  C_14
REMARK    4  A    between atoms: C_16  and  C_17
REMARK    5  A    between atoms: C_17  and  C_18
REMARK    6  A    between atoms: N_25  and  C_26
REMARK    7  A    between atoms: C_26  and  C_27
REMARK    8  A    between atoms: C_27  and  C_28
REMARK    9  A    between atoms: C_28  and  N_29
REMARK                            x       y       z     vdW  Elec       q    Type
REMARK                         _______ _______ _______ _____ _____    ______ ____
ROOT
ATOM      1  C   UNL     1      -0.403   8.777  22.706  0.00  0.00    +0.000 C 
ATOM      2  C   UNL     1      -0.649  10.169  22.144  0.00  0.00    +0.000 A 
ATOM      3  C   UNL     1      -0.932  11.098  23.064  0.00  0.00    +0.000 A 
ATOM      4  C   UNL     1      -1.024  12.480  22.619  0.00  0.00    +0.000 A 
ATOM      5  O   UNL     1      -0.761  13.371  23.412  0.00  0.00    +0.000 OA
ATOM      6  C   UNL     1      -1.429  12.744  21.205  0.00  0.00    +0.000 A 
ATOM      7  C   UNL     1      -1.111  11.762  20.323  0.00  0.00    +0.000 A 
ATOM      8  N   UNL     1      -0.554  10.488  20.748  0.00  0.00    +0.000 N 
ENDROOT
BRANCH   6   9
ATOM      9  C   UNL     1      -1.978  14.120  20.902  0.00  0.00    +0.000 C 
ATOM     10  O   UNL     1      -1.250  14.998  20.443  0.00  0.00    +0.000 OA
ATOM     11  N   UNL     1      -3.327  14.372  21.160  0.00  0.00    +0.000 N 
ATOM     12  C   UNL     1      -3.874  15.699  20.884  0.00  0.00    +0.000 C 
ATOM     13  C   UNL     1      -4.838  16.154  21.981  0.00  0.00    +0.000 C 
ATOM     14  C   UNL     1      -5.868  15.090  22.373  0.00  0.00    +0.000 C 
ATOM     15  C   UNL     1      -5.305  13.668  22.499  0.00  0.00    +0.000 C 
ATOM     16  C   UNL     1      -4.700  13.436  23.883  0.00  0.00    +0.000 C 
ATOM     17  C   UNL     1      -4.348  13.345  21.344  0.00  0.00    +0.000 C 
ENDBRANCH   6   9
BRANCH   7  18
ATOM     18  C   UNL     1      -1.242  12.121  18.826  0.00  0.00    +0.000 C 
BRANCH  18  19
ATOM     19  C   UNL     1      -2.325  11.545  17.951  0.00  0.00    +0.000 A 
ATOM     20  C   UNL     1      -1.878  10.680  16.925  0.00  0.00    +0.000 A 
ATOM     21  C   UNL     1      -2.747  10.207  15.950  0.00  0.00    +0.000 A 
ATOM     22  C   UNL     1      -4.091  10.554  16.012  0.00  0.00    +0.000 A 
ATOM     23  C   UNL     1      -4.555  11.319  17.080  0.00  0.00    +0.000 A 
ATOM     24  F   UNL     1      -5.861  11.599  17.167  0.00  0.00    +0.000 F 
ATOM     25  C   UNL     1      -3.688  11.821  18.048  0.00  0.00    +0.000 A 
ENDBRANCH  18  19
ENDBRANCH   7  18
BRANCH   8  26
ATOM     26  C   UNL     1      -0.063   9.407  19.845  0.00  0.00    +0.000 C 
BRANCH  26  27
ATOM     27  C   UNL     1       1.435   9.244  19.613  0.00  0.00    +0.000 C 
BRANCH  27  28
ATOM     28  C   UNL     1       2.037   7.892  20.017  0.00  0.00    +0.000 C 
BRANCH  28  29
ATOM     29  N   UNL     1       1.948   6.942  18.891  0.00  0.00    +0.000 NA
ATOM     30  C   UNL     1       2.411   5.581  19.233  0.00  0.00    +0.000 C 
ATOM     31  C   UNL     1       3.933   5.510  19.410  0.00  0.00    +0.000 C 
ATOM     32  O   UNL     1       4.579   5.846  18.179  0.00  0.00    +0.000 OA
ATOM     33  C   UNL     1       4.227   7.173  17.767  0.00  0.00    +0.000 C 
ATOM     34  C   UNL     1       2.700   7.389  17.693  0.00  0.00    +0.000 C 
ENDBRANCH  28  29
ENDBRANCH  27  28
ENDBRANCH  26  27
ENDBRANCH   8  26
TORSDOF 7
ENDMDL
MODEL 8
REMARK VINA RESULT:      -6.9      4.261      5.996
REMARK  Name = 
REMARK  9 active torsions:
REMARK  status: ('A' for Active; 'I' for Inactive)
REMARK    1  A    between atoms: C_1  and  C_2
REMARK    2  A    between atoms: C_6  and  C_7
REMARK    3  A    between atoms: C_13  and  C_14
REMARK    4  A    between atoms: C_16  and  C_17
REMARK    5  A    between atoms: C_17  and  C_18
REMARK    6  A    between atoms: N_25  and  C_26
REMARK    7  A    between atoms: C_26  and  C_27
REMARK    8  A    between atoms: C_27  and  C_28
REMARK    9  A    between atoms: C_28  and  N_29
REMARK                            x       y       z     vdW  Elec       q    Type
REMARK                         _______ _______ _______ _____ _____    ______ ____
ROOT
ATOM      1  C   UNL     1       0.201   9.707  19.138  0.00  0.00    +0.000 C 
ATOM      2  C   UNL     1      -0.528  10.575  20.153  0.00  0.00    +0.000 A 
ATOM      3  C   UNL     1      -0.387  10.181  21.423  0.00  0.00    +0.000 A 
ATOM      4  C   UNL     1      -0.924  11.049  22.460  0.00  0.00    +0.000 A 
ATOM      5  O   UNL     1      -0.404  11.035  23.565  0.00  0.00    +0.000 OA
ATOM      6  C   UNL     1      -2.084  11.927  22.119  0.00  0.00    +0.000 A 
ATOM      7  C   UNL     1      -2.167  12.289  20.814  0.00  0.00    +0.000 A 
ATOM      8  N   UNL     1      -1.279  11.745  19.800  0.00  0.00    +0.000 N 
ENDROOT
BRANCH   6   9
ATOM      9  C   UNL     1      -2.914  12.436  23.278  0.00  0.00    +0.000 C 
ATOM     10  O   UNL     1      -3.872  11.787  23.693  0.00  0.00    +0.000 OA
ATOM     11  N   UNL     1      -2.569  13.658  23.859  0.00  0.00    +0.000 N 
ATOM     12  C   UNL     1      -3.365  14.171  24.972  0.00  0.00    +0.000 C 
ATOM     13  C   UNL     1      -3.593  15.679  24.858  0.00  0.00    +0.000 C 
ATOM     14  C   UNL     1      -2.320  16.470  24.544  0.00  0.00    +0.000 C 
ATOM     15  C   UNL     1      -1.411  15.830  23.486  0.00  0.00    +0.000 C 
ATOM     16  C   UNL     1      -1.861  16.205  22.075  0.00  0.00    +0.000 C 
ATOM     17  C   UNL     1      -1.276  14.319  23.711  0.00  0.00    +0.000 C 
ENDBRANCH   6   9
BRANCH   7  18
ATOM     18  C   UNL     1      -3.165  13.421  20.483  0.00  0.00    +0.000 C 
BRANCH  18  19
ATOM     19  C   UNL     1      -4.613  13.151  20.164  0.00  0.00    +0.000 A 
ATOM     20  C   UNL     1      -5.549  13.811  20.995  0.00  0.00    +0.000 A 
ATOM     21  C   UNL     1      -6.907  13.529  20.918  0.00  0.00    +0.000 A 
ATOM     22  C   UNL     1      -7.359  12.617  19.973  0.00  0.00    +0.000 A 
ATOM     23  C   UNL     1      -6.453  12.045  19.082  0.00  0.00    +0.000 A 
ATOM     24  F   UNL     1      -6.903  11.212  18.135  0.00  0.00    +0.000 F 
ATOM     25  C   UNL     1      -5.087  12.298  19.169  0.00  0.00    +0.000 A 
ENDBRANCH  18  19
ENDBRANCH   7  18
BRANCH   8  26
ATOM     26  C   UNL     1      -1.217  12.177  18.373  0.00  0.00    +0.000 C 
BRANCH  26  27
ATOM     27  C   UNL     1      -0.470  13.455  18.007  0.00  0.00    +0.000 C 
BRANCH  27  28
ATOM     28  C   UNL     1       0.498  13.997  19.065  0.00  0.00    +0.000 C 
BRANCH  28  29
ATOM     29  N   UNL     1       1.669  13.105  19.184  0.00  0.00    +0.000 NA
ATOM     30  C   UNL     1       2.232  13.056  20.550  0.00  0.00    +0.000 C 
ATOM     31  C   UNL     1       2.955  14.355  20.929  0.00  0.00    +0.000 C 
ATOM     32  O   UNL     1       4.066  14.565  20.054  0.00  0.00    +0.000 OA
ATOM     33  C   UNL     1       3.627  14.666  18.692  0.00  0.00    +0.000 C 
ATOM     34  C   UNL     1       2.767  13.462  18.253  0.00  0.00    +0.000 C 
ENDBRANCH  28  29
ENDBRANCH  27  28
ENDBRANCH  26  27
ENDBRANCH   8  26
TORSDOF 7
ENDMDL
MODEL 9
REMARK VINA RESULT:      -6.8      1.954      2.709
REMARK  Name = 
REMARK  9 active torsions:
REMARK  status: ('A' for Active; 'I' for Inactive)
REMARK    1  A    between atoms: C_1  and  C_2
REMARK    2  A    between atoms: C_6  and  C_7
REMARK    3  A    between atoms: C_13  and  C_14
REMARK    4  A    between atoms: C_16  and  C_17
REMARK    5  A    between atoms: C_17  and  C_18
REMARK    6  A    between atoms: N_25  and  C_26
REMARK    7  A    between atoms: C_26  and  C_27
REMARK    8  A    between atoms: C_27  and  C_28
REMARK    9  A    between atoms: C_28  and  N_29
REMARK                            x       y       z     vdW  Elec       q    Type
REMARK                         _______ _______ _______ _____ _____    ______ ____
ROOT
ATOM      1  C   UNL     1       1.518   8.151  21.536  0.00  0.00    +0.000 C 
ATOM      2  C   UNL     1       0.682   9.407  21.344  0.00  0.00    +0.000 A 
ATOM      3  C   UNL     1       0.084   9.851  22.455  0.00  0.00    +0.000 A 
ATOM      4  C   UNL     1      -0.602  11.132  22.383  0.00  0.00    +0.000 A 
ATOM      5  O   UNL     1      -0.697  11.805  23.398  0.00  0.00    +0.000 OA
ATOM      6  C   UNL     1      -1.153  11.568  21.064  0.00  0.00    +0.000 A 
ATOM      7  C   UNL     1      -0.499  11.082  19.979  0.00  0.00    +0.000 A 
ATOM      8  N   UNL     1       0.563  10.095  20.090  0.00  0.00    +0.000 N 
ENDROOT
BRANCH   6   9
ATOM      9  C   UNL     1      -2.244  12.615  21.097  0.00  0.00    +0.000 C 
ATOM     10  O   UNL     1      -3.428  12.284  21.122  0.00  0.00    +0.000 OA
ATOM     11  N   UNL     1      -1.877  13.963  21.092  0.00  0.00    +0.000 N 
ATOM     12  C   UNL     1      -2.917  14.989  21.113  0.00  0.00    +0.000 C 
ATOM     13  C   UNL     1      -2.582  16.154  20.182  0.00  0.00    +0.000 C 
ATOM     14  C   UNL     1      -1.149  16.672  20.337  0.00  0.00    +0.000 C 
ATOM     15  C   UNL     1      -0.083  15.577  20.479  0.00  0.00    +0.000 C 
ATOM     16  C   UNL     1       0.366  15.066  19.111  0.00  0.00    +0.000 C 
ATOM     17  C   UNL     1      -0.550  14.468  21.430  0.00  0.00    +0.000 C 
ENDBRANCH   6   9
BRANCH   7  18
ATOM     18  C   UNL     1      -0.845  11.737  18.623  0.00  0.00    +0.000 C 
BRANCH  18  19
ATOM     19  C   UNL     1      -1.988  11.258  17.765  0.00  0.00    +0.000 A 
ATOM     20  C   UNL     1      -1.698  10.149  16.935  0.00  0.00    +0.000 A 
ATOM     21  C   UNL     1      -2.604   9.706  15.981  0.00  0.00    +0.000 A 
ATOM     22  C   UNL     1      -3.838  10.335  15.872  0.00  0.00    +0.000 A 
ATOM     23  C   UNL     1      -4.169  11.358  16.758  0.00  0.00    +0.000 A 
ATOM     24  F   UNL     1      -5.382  11.920  16.687  0.00  0.00    +0.000 F 
ATOM     25  C   UNL     1      -3.257  11.829  17.700  0.00  0.00    +0.000 A 
ENDBRANCH  18  19
ENDBRANCH   7  18
BRANCH   8  26
ATOM     26  C   UNL     1       1.415   9.600  18.970  0.00  0.00    +0.000 C 
BRANCH  26  27
ATOM     27  C   UNL     1       1.211   8.185  18.440  0.00  0.00    +0.000 C 
BRANCH  27  28
ATOM     28  C   UNL     1       2.484   7.367  18.192  0.00  0.00    +0.000 C 
BRANCH  28  29
ATOM     29  N   UNL     1       2.358   6.034  18.814  0.00  0.00    +0.000 NA
ATOM     30  C   UNL     1       3.464   5.712  19.741  0.00  0.00    +0.000 C 
ATOM     31  C   UNL     1       4.782   5.444  19.004  0.00  0.00    +0.000 C 
ATOM     32  O   UNL     1       4.639   4.304  18.153  0.00  0.00    +0.000 OA
ATOM     33  C   UNL     1       3.608   4.523  17.181  0.00  0.00    +0.000 C 
ATOM     34  C   UNL     1       2.265   4.937  17.821  0.00  0.00    +0.000 C 
ENDBRANCH  28  29
ENDBRANCH  27  28
ENDBRANCH  26  27
ENDBRANCH   8  26
TORSDOF 7
ENDMDL
