MODEL 1
REMARK VINA RESULT:      -6.2      0.000      0.000
REMARK  Name = 
REMARK  8 active torsions:
REMARK  status: ('A' for Active; 'I' for Inactive)
REMARK    1  A    between atoms: C_1  and  O_2
REMARK    2  A    between atoms: O_2  and  C_3
REMARK    3  A    between atoms: C_3  and  C_5
REMARK    4  A    between atoms: C_5  and  O_6
REMARK    5  A    between atoms: O_6  and  C_7
REMARK    6  A    between atoms: C_10  and  C_11
REMARK    7  A    between atoms: C_11  and  O_13
REMARK    8  A    between atoms: O_13  and  C_14
REMARK                            x       y       z     vdW  Elec       q    Type
REMARK                         _______ _______ _______ _____ _____    ______ ____
ROOT
ATOM      1  C   UNL     1       4.057   4.724  16.915  0.00  0.00    +0.000 A 
ATOM      2  C   UNL     1       3.743   3.365  16.851  0.00  0.00    +0.000 A 
ATOM      3  C   UNL     1       2.706   2.838  17.623  0.00  0.00    +0.000 A 
ATOM      4  C   UNL     1       1.982   3.665  18.489  0.00  0.00    +0.000 A 
ATOM      5  C   UNL     1       2.308   5.027  18.565  0.00  0.00    +0.000 A 
ATOM      6  C   UNL     1       3.344   5.554  17.780  0.00  0.00    +0.000 A 
ENDROOT
BRANCH   4   7
ATOM      7  C   UNL     1       0.900   3.049  19.302  0.00  0.00    +0.000 C 
ATOM      8  O   UNL     1       0.173   2.157  18.889  0.00  0.00    +0.000 OA
BRANCH   7   9
ATOM      9  O   UNL     1       0.845   3.605  20.538  0.00  0.00    +0.000 OA
ATOM     10  C   UNL     1       1.480   2.818  21.549  0.00  0.00    +0.000 C 
ENDBRANCH   7   9
ENDBRANCH   4   7
BRANCH   1  11
ATOM     11  O   UNL     1       5.108   5.107  16.134  0.00  0.00    +0.000 OA
BRANCH  11  12
ATOM     12  C   UNL     1       6.280   4.300  16.198  0.00  0.00    +0.000 C 
BRANCH  12  13
ATOM     13  C   UNL     1       7.306   4.968  17.104  0.00  0.00    +0.000 C 
ATOM     14  O   UNL     1       7.844   4.461  18.079  0.00  0.00    +0.000 OA
BRANCH  13  16
ATOM     15  C   UNL     1       7.556   7.212  17.718  0.00  0.00    +0.000 C 
ATOM     16  O   UNL     1       7.540   6.244  16.668  0.00  0.00    +0.000 OA
ENDBRANCH  13  16
ENDBRANCH  12  13
ENDBRANCH  11  12
ENDBRANCH   1  11
TORSDOF 6
ENDMDL
MODEL 2
REMARK VINA RESULT:      -6.2      1.318      6.166
REMARK  Name = 
REMARK  8 active torsions:
REMARK  status: ('A' for Active; 'I' for Inactive)
REMARK    1  A    between atoms: C_1  and  O_2
REMARK    2  A    between atoms: O_2  and  C_3
REMARK    3  A    between atoms: C_3  and  C_5
REMARK    4  A    between atoms: C_5  and  O_6
REMARK    5  A    between atoms: O_6  and  C_7
REMARK    6  A    between atoms: C_10  and  C_11
REMARK    7  A    between atoms: C_11  and  O_13
REMARK    8  A    between atoms: O_13  and  C_14
REMARK                            x       y       z     vdW  Elec       q    Type
REMARK                         _______ _______ _______ _____ _____    ______ ____
ROOT
ATOM      1  C   UNL     1       3.017   4.747  17.746  0.00  0.00    +0.000 A 
ATOM      2  C   UNL     1       3.637   3.612  17.222  0.00  0.00    +0.000 A 
ATOM      3  C   UNL     1       4.976   3.650  16.830  0.00  0.00    +0.000 A 
ATOM      4  C   UNL     1       5.708   4.838  16.939  0.00  0.00    +0.000 A 
ATOM      5  C   UNL     1       5.080   5.983  17.450  0.00  0.00    +0.000 A 
ATOM      6  C   UNL     1       3.737   5.937  17.852  0.00  0.00    +0.000 A 
ENDROOT
BRANCH   4   7
ATOM      7  C   UNL     1       7.126   4.829  16.490  0.00  0.00    +0.000 C 
ATOM      8  O   UNL     1       8.014   4.229  17.077  0.00  0.00    +0.000 OA
BRANCH   7   9
ATOM      9  O   UNL     1       7.282   5.562  15.359  0.00  0.00    +0.000 OA
ATOM     10  C   UNL     1       6.990   4.837  14.162  0.00  0.00    +0.000 C 
ENDBRANCH   7   9
ENDBRANCH   4   7
BRANCH   1  11
ATOM     11  O   UNL     1       1.699   4.586  18.063  0.00  0.00    +0.000 OA
BRANCH  11  12
ATOM     12  C   UNL     1       1.398   4.329  19.431  0.00  0.00    +0.000 C 
BRANCH  12  13
ATOM     13  C   UNL     1       0.957   2.880  19.590  0.00  0.00    +0.000 C 
ATOM     14  O   UNL     1       0.302   2.234  18.784  0.00  0.00    +0.000 OA
BRANCH  13  16
ATOM     15  C   UNL     1       2.099   3.365  21.574  0.00  0.00    +0.000 C 
ATOM     16  O   UNL     1       1.401   2.396  20.790  0.00  0.00    +0.000 OA
ENDBRANCH  13  16
ENDBRANCH  12  13
ENDBRANCH  11  12
ENDBRANCH   1  11
TORSDOF 6
ENDMDL
MODEL 3
REMARK VINA RESULT:      -6.1      1.170      1.950
REMARK  Name = 
REMARK  8 active torsions:
REMARK  status: ('A' for Active; 'I' for Inactive)
REMARK    1  A    between atoms: C_1  and  O_2
REMARK    2  A    between atoms: O_2  and  C_3
REMARK    3  A    between atoms: C_3  and  C_5
REMARK    4  A    between atoms: C_5  and  O_6
REMARK    5  A    between atoms: O_6  and  C_7
REMARK    6  A    between atoms: C_10  and  C_11
REMARK    7  A    between atoms: C_11  and  O_13
REMARK    8  A    between atoms: O_13  and  C_14
REMARK                            x       y       z     vdW  Elec       q    Type
REMARK                         _______ _______ _______ _____ _____    ______ ____
ROOT
ATOM      1  C   UNL     1       4.074   4.974  17.186  0.00  0.00    +0.000 A 
ATOM      2  C   UNL     1       3.121   5.678  17.924  0.00  0.00    +0.000 A 
ATOM      3  C   UNL     1       2.111   5.001  18.608  0.00  0.00    +0.000 A 
ATOM      4  C   UNL     1       2.028   3.605  18.544  0.00  0.00    +0.000 A 
ATOM      5  C   UNL     1       2.977   2.900  17.789  0.00  0.00    +0.000 A 
ATOM      6  C   UNL     1       3.997   3.583  17.111  0.00  0.00    +0.000 A 
ENDROOT
BRANCH   4   7
ATOM      7  C   UNL     1       0.921   2.935  19.277  0.00  0.00    +0.000 C 
ATOM      8  O   UNL     1       0.211   2.074  18.781  0.00  0.00    +0.000 OA
BRANCH   7   9
ATOM      9  O   UNL     1       0.824   3.406  20.546  0.00  0.00    +0.000 OA
ATOM     10  C   UNL     1       1.601   2.667  21.492  0.00  0.00    +0.000 C 
ENDBRANCH   7   9
ENDBRANCH   4   7
BRANCH   1  11
ATOM     11  O   UNL     1       4.990   5.754  16.541  0.00  0.00    +0.000 OA
BRANCH  11  12
ATOM     12  C   UNL     1       5.607   5.194  15.386  0.00  0.00    +0.000 C 
BRANCH  12  13
ATOM     13  C   UNL     1       7.103   5.049  15.630  0.00  0.00    +0.000 C 
ATOM     14  O   UNL     1       7.630   4.657  16.662  0.00  0.00    +0.000 OA
BRANCH  13  16
ATOM     15  C   UNL     1       7.296   4.841  13.307  0.00  0.00    +0.000 C 
ATOM     16  O   UNL     1       7.788   5.434  14.510  0.00  0.00    +0.000 OA
ENDBRANCH  13  16
ENDBRANCH  12  13
ENDBRANCH  11  12
ENDBRANCH   1  11
TORSDOF 6
ENDMDL
MODEL 4
REMARK VINA RESULT:      -6.1      0.269      1.218
REMARK  Name = 
REMARK  8 active torsions:
REMARK  status: ('A' for Active; 'I' for Inactive)
REMARK    1  A    between atoms: C_1  and  O_2
REMARK    2  A    between atoms: O_2  and  C_3
REMARK    3  A    between atoms: C_3  and  C_5
REMARK    4  A    between atoms: C_5  and  O_6
REMARK    5  A    between atoms: O_6  and  C_7
REMARK    6  A    between atoms: C_10  and  C_11
REMARK    7  A    between atoms: C_11  and  O_13
REMARK    8  A    between atoms: O_13  and  C_14
REMARK                            x       y       z     vdW  Elec       q    Type
REMARK                         _______ _______ _______ _____ _____    ______ ____
ROOT
ATOM      1  C   UNL     1       4.170   4.365  16.970  0.00  0.00    +0.000 A 
ATOM      2  C   UNL     1       3.276   5.251  17.573  0.00  0.00    +0.000 A 
ATOM      3  C   UNL     1       2.226   4.775  18.359  0.00  0.00    +0.000 A 
ATOM      4  C   UNL     1       2.044   3.399  18.535  0.00  0.00    +0.000 A 
ATOM      5  C   UNL     1       2.934   2.509  17.916  0.00  0.00    +0.000 A 
ATOM      6  C   UNL     1       3.993   2.991  17.135  0.00  0.00    +0.000 A 
ENDROOT
BRANCH   4   7
ATOM      7  C   UNL     1       0.899   2.945  19.368  0.00  0.00    +0.000 C 
ATOM      8  O   UNL     1       0.064   2.140  18.983  0.00  0.00    +0.000 OA
BRANCH   7   9
ATOM      9  O   UNL     1       0.921   3.537  20.588  0.00  0.00    +0.000 OA
ATOM     10  C   UNL     1       1.688   2.821  21.559  0.00  0.00    +0.000 C 
ENDBRANCH   7   9
ENDBRANCH   4   7
BRANCH   1  11
ATOM     11  O   UNL     1       5.134   4.955  16.204  0.00  0.00    +0.000 OA
BRANCH  11  12
ATOM     12  C   UNL     1       6.393   4.294  16.138  0.00  0.00    +0.000 C 
BRANCH  12  13
ATOM     13  C   UNL     1       7.377   4.982  17.074  0.00  0.00    +0.000 C 
ATOM     14  O   UNL     1       7.901   4.485  18.061  0.00  0.00    +0.000 OA
BRANCH  13  16
ATOM     15  C   UNL     1       7.538   7.231  17.700  0.00  0.00    +0.000 C 
ATOM     16  O   UNL     1       7.591   6.265  16.649  0.00  0.00    +0.000 OA
ENDBRANCH  13  16
ENDBRANCH  12  13
ENDBRANCH  11  12
ENDBRANCH   1  11
TORSDOF 6
ENDMDL
MODEL 5
REMARK VINA RESULT:      -6.1      1.313      6.268
REMARK  Name = 
REMARK  8 active torsions:
REMARK  status: ('A' for Active; 'I' for Inactive)
REMARK    1  A    between atoms: C_1  and  O_2
REMARK    2  A    between atoms: O_2  and  C_3
REMARK    3  A    between atoms: C_3  and  C_5
REMARK    4  A    between atoms: C_5  and  O_6
REMARK    5  A    between atoms: O_6  and  C_7
REMARK    6  A    between atoms: C_10  and  C_11
REMARK    7  A    between atoms: C_11  and  O_13
REMARK    8  A    between atoms: O_13  and  C_14
REMARK                            x       y       z     vdW  Elec       q    Type
REMARK                         _______ _______ _______ _____ _____    ______ ____
ROOT
ATOM      1  C   UNL     1       3.007   4.704  17.698  0.00  0.00    +0.000 A 
ATOM      2  C   UNL     1       3.793   5.830  17.945  0.00  0.00    +0.000 A 
ATOM      3  C   UNL     1       5.133   5.862  17.554  0.00  0.00    +0.000 A 
ATOM      4  C   UNL     1       5.710   4.752  16.927  0.00  0.00    +0.000 A 
ATOM      5  C   UNL     1       4.924   3.614  16.694  0.00  0.00    +0.000 A 
ATOM      6  C   UNL     1       3.576   3.590  17.079  0.00  0.00    +0.000 A 
ENDROOT
BRANCH   4   7
ATOM      7  C   UNL     1       7.146   4.832  16.548  0.00  0.00    +0.000 C 
ATOM      8  O   UNL     1       8.036   4.260  17.160  0.00  0.00    +0.000 OA
BRANCH   7   9
ATOM      9  O   UNL     1       7.315   5.606  15.447  0.00  0.00    +0.000 OA
ATOM     10  C   UNL     1       7.089   4.913  14.217  0.00  0.00    +0.000 C 
ENDBRANCH   7   9
ENDBRANCH   4   7
BRANCH   1  11
ATOM     11  O   UNL     1       1.724   4.789  18.155  0.00  0.00    +0.000 OA
BRANCH  11  12
ATOM     12  C   UNL     1       1.492   4.362  19.493  0.00  0.00    +0.000 C 
BRANCH  12  13
ATOM     13  C   UNL     1       1.087   2.894  19.495  0.00  0.00    +0.000 C 
ATOM     14  O   UNL     1       0.272   2.371  18.748  0.00  0.00    +0.000 OA
BRANCH  13  16
ATOM     15  C   UNL     1       1.891   2.975  21.692  0.00  0.00    +0.000 C 
ATOM     16  O   UNL     1       1.772   2.232  20.477  0.00  0.00    +0.000 OA
ENDBRANCH  13  16
ENDBRANCH  12  13
ENDBRANCH  11  12
ENDBRANCH   1  11
TORSDOF 6
ENDMDL
MODEL 6
REMARK VINA RESULT:      -6.0      1.052      1.806
REMARK  Name = 
REMARK  8 active torsions:
REMARK  status: ('A' for Active; 'I' for Inactive)
REMARK    1  A    between atoms: C_1  and  O_2
REMARK    2  A    between atoms: O_2  and  C_3
REMARK    3  A    between atoms: C_3  and  C_5
REMARK    4  A    between atoms: C_5  and  O_6
REMARK    5  A    between atoms: O_6  and  C_7
REMARK    6  A    between atoms: C_10  and  C_11
REMARK    7  A    between atoms: C_11  and  O_13
REMARK    8  A    between atoms: O_13  and  C_14
REMARK                            x       y       z     vdW  Elec       q    Type
REMARK                         _______ _______ _______ _____ _____    ______ ____
ROOT
ATOM      1  C   UNL     1       4.067   5.379  17.156  0.00  0.00    +0.000 A 
ATOM      2  C   UNL     1       3.038   5.825  17.988  0.00  0.00    +0.000 A 
ATOM      3  C   UNL     1       2.169   4.916  18.593  0.00  0.00    +0.000 A 
ATOM      4  C   UNL     1       2.307   3.543  18.355  0.00  0.00    +0.000 A 
ATOM      5  C   UNL     1       3.331   3.097  17.507  0.00  0.00    +0.000 A 
ATOM      6  C   UNL     1       4.208   4.013  16.909  0.00  0.00    +0.000 A 
ENDROOT
BRANCH   4   7
ATOM      7  C   UNL     1       1.343   2.620  19.011  0.00  0.00    +0.000 C 
ATOM      8  O   UNL     1       0.244   2.355  18.548  0.00  0.00    +0.000 OA
BRANCH   7   9
ATOM      9  O   UNL     1       1.854   2.125  20.166  0.00  0.00    +0.000 OA
ATOM     10  C   UNL     1       1.335   2.755  21.339  0.00  0.00    +0.000 C 
ENDBRANCH   7   9
ENDBRANCH   4   7
BRANCH   1  11
ATOM     11  O   UNL     1       4.827   6.369  16.604  0.00  0.00    +0.000 OA
BRANCH  11  12
ATOM     12  C   UNL     1       6.032   6.704  17.284  0.00  0.00    +0.000 C 
BRANCH  12  13
ATOM     13  C   UNL     1       7.175   5.859  16.738  0.00  0.00    +0.000 C 
ATOM     14  O   UNL     1       7.490   5.747  15.561  0.00  0.00    +0.000 OA
BRANCH  13  16
ATOM     15  C   UNL     1       7.438   5.719  19.059  0.00  0.00    +0.000 C 
ATOM     16  O   UNL     1       7.808   5.223  17.771  0.00  0.00    +0.000 OA
ENDBRANCH  13  16
ENDBRANCH  12  13
ENDBRANCH  11  12
ENDBRANCH   1  11
TORSDOF 6
ENDMDL
MODEL 7
REMARK VINA RESULT:      -5.9      1.700      6.316
REMARK  Name = 
REMARK  8 active torsions:
REMARK  status: ('A' for Active; 'I' for Inactive)
REMARK    1  A    between atoms: C_1  and  O_2
REMARK    2  A    between atoms: O_2  and  C_3
REMARK    3  A    between atoms: C_3  and  C_5
REMARK    4  A    between atoms: C_5  and  O_6
REMARK    5  A    between atoms: O_6  and  C_7
REMARK    6  A    between atoms: C_10  and  C_11
REMARK    7  A    between atoms: C_11  and  O_13
REMARK    8  A    between atoms: O_13  and  C_14
REMARK                            x       y       z     vdW  Elec       q    Type
REMARK                         _______ _______ _______ _____ _____    ______ ____
ROOT
ATOM      1  C   UNL     1       3.326   5.888  19.037  0.00  0.00    +0.000 A 
ATOM      2  C   UNL     1       4.457   5.216  19.503  0.00  0.00    +0.000 A 
ATOM      3  C   UNL     1       5.676   5.325  18.832  0.00  0.00    +0.000 A 
ATOM      4  C   UNL     1       5.773   6.094  17.667  0.00  0.00    +0.000 A 
ATOM      5  C   UNL     1       4.633   6.756  17.190  0.00  0.00    +0.000 A 
ATOM      6  C   UNL     1       3.412   6.652  17.873  0.00  0.00    +0.000 A 
ENDROOT
BRANCH   4   7
ATOM      7  C   UNL     1       7.091   6.162  16.981  0.00  0.00    +0.000 C 
ATOM      8  O   UNL     1       7.715   7.201  16.824  0.00  0.00    +0.000 OA
BRANCH   7   9
ATOM      9  O   UNL     1       7.489   4.931  16.573  0.00  0.00    +0.000 OA
ATOM     10  C   UNL     1       7.000   4.571  15.278  0.00  0.00    +0.000 C 
ENDBRANCH   7   9
ENDBRANCH   4   7
BRANCH   1  11
ATOM     11  O   UNL     1       2.192   5.676  19.765  0.00  0.00    +0.000 OA
BRANCH  11  12
ATOM     12  C   UNL     1       2.331   4.909  20.957  0.00  0.00    +0.000 C 
BRANCH  12  13
ATOM     13  C   UNL     1       1.461   3.664  20.864  0.00  0.00    +0.000 C 
ATOM     14  O   UNL     1       1.402   2.762  21.688  0.00  0.00    +0.000 OA
BRANCH  13  16
ATOM     15  C   UNL     1       0.912   2.526  18.894  0.00  0.00    +0.000 C 
ATOM     16  O   UNL     1       0.743   3.694  19.699  0.00  0.00    +0.000 OA
ENDBRANCH  13  16
ENDBRANCH  12  13
ENDBRANCH  11  12
ENDBRANCH   1  11
TORSDOF 6
ENDMDL
MODEL 8
REMARK VINA RESULT:      -5.9      1.026      1.537
REMARK  Name = 
REMARK  8 active torsions:
REMARK  status: ('A' for Active; 'I' for Inactive)
REMARK    1  A    between atoms: C_1  and  O_2
REMARK    2  A    between atoms: O_2  and  C_3
REMARK    3  A    between atoms: C_3  and  C_5
REMARK    4  A    between atoms: C_5  and  O_6
REMARK    5  A    between atoms: O_6  and  C_7
REMARK    6  A    between atoms: C_10  and  C_11
REMARK    7  A    between atoms: C_11  and  O_13
REMARK    8  A    between atoms: O_13  and  C_14
REMARK                            x       y       z     vdW  Elec       q    Type
REMARK                         _______ _______ _______ _____ _____    ______ ____
ROOT
ATOM      1  C   UNL     1       3.950   5.277  17.158  0.00  0.00    +0.000 A 
ATOM      2  C   UNL     1       4.094   3.899  16.986  0.00  0.00    +0.000 A 
ATOM      3  C   UNL     1       3.192   3.011  17.575  0.00  0.00    +0.000 A 
ATOM      4  C   UNL     1       2.142   3.494  18.365  0.00  0.00    +0.000 A 
ATOM      5  C   UNL     1       2.007   4.877  18.550  0.00  0.00    +0.000 A 
ATOM      6  C   UNL     1       2.910   5.766  17.949  0.00  0.00    +0.000 A 
ENDROOT
BRANCH   4   7
ATOM      7  C   UNL     1       1.220   2.504  18.983  0.00  0.00    +0.000 C 
ATOM      8  O   UNL     1       0.151   2.180  18.488  0.00  0.00    +0.000 OA
BRANCH   7   9
ATOM      9  O   UNL     1       1.731   2.023  20.144  0.00  0.00    +0.000 OA
ATOM     10  C   UNL     1       1.343   2.775  21.296  0.00  0.00    +0.000 C 
ENDBRANCH   7   9
ENDBRANCH   4   7
BRANCH   1  11
ATOM     11  O   UNL     1       4.914   6.033  16.556  0.00  0.00    +0.000 OA
BRANCH  11  12
ATOM     12  C   UNL     1       5.653   6.914  17.395  0.00  0.00    +0.000 C 
BRANCH  12  13
ATOM     13  C   UNL     1       7.131   6.833  17.038  0.00  0.00    +0.000 C 
ATOM     14  O   UNL     1       7.922   7.766  17.029  0.00  0.00    +0.000 OA
BRANCH  13  16
ATOM     15  C   UNL     1       7.666   4.705  17.851  0.00  0.00    +0.000 C 
ATOM     16  O   UNL     1       7.454   5.543  16.714  0.00  0.00    +0.000 OA
ENDBRANCH  13  16
ENDBRANCH  12  13
ENDBRANCH  11  12
ENDBRANCH   1  11
TORSDOF 6
ENDMDL
MODEL 9
REMARK VINA RESULT:      -5.9      1.090      1.258
REMARK  Name = 
REMARK  8 active torsions:
REMARK  status: ('A' for Active; 'I' for Inactive)
REMARK    1  A    between atoms: C_1  and  O_2
REMARK    2  A    between atoms: O_2  and  C_3
REMARK    3  A    between atoms: C_3  and  C_5
REMARK    4  A    between atoms: C_5  and  O_6
REMARK    5  A    between atoms: O_6  and  C_7
REMARK    6  A    between atoms: C_10  and  C_11
REMARK    7  A    between atoms: C_11  and  O_13
REMARK    8  A    between atoms: O_13  and  C_14
REMARK                            x       y       z     vdW  Elec       q    Type
REMARK                         _______ _______ _______ _____ _____    ______ ____
ROOT
ATOM      1  C   UNL     1       4.178   5.097  17.086  0.00  0.00    +0.000 A 
ATOM      2  C   UNL     1       4.291   3.707  17.035  0.00  0.00    +0.000 A 
ATOM      3  C   UNL     1       3.339   2.893  17.650  0.00  0.00    +0.000 A 
ATOM      4  C   UNL     1       2.267   3.464  18.346  0.00  0.00    +0.000 A 
ATOM      5  C   UNL     1       2.163   4.861  18.411  0.00  0.00    +0.000 A 
ATOM      6  C   UNL     1       3.116   5.675  17.784  0.00  0.00    +0.000 A 
ENDROOT
BRANCH   4   7
ATOM      7  C   UNL     1       1.291   2.551  18.999  0.00  0.00    +0.000 C 
ATOM      8  O   UNL     1       0.204   2.272  18.515  0.00  0.00    +0.000 OA
BRANCH   7   9
ATOM      9  O   UNL     1       1.777   2.081  20.175  0.00  0.00    +0.000 OA
ATOM     10  C   UNL     1       1.338   2.825  21.314  0.00  0.00    +0.000 C 
ENDBRANCH   7   9
ENDBRANCH   4   7
BRANCH   1  11
ATOM     11  O   UNL     1       5.188   5.778  16.471  0.00  0.00    +0.000 OA
BRANCH  11  12
ATOM     12  C   UNL     1       5.664   6.948  17.129  0.00  0.00    +0.000 C 
BRANCH  12  13
ATOM     13  C   UNL     1       7.136   6.772  17.474  0.00  0.00    +0.000 C 
ATOM     14  O   UNL     1       7.622   5.846  18.109  0.00  0.00    +0.000 OA
BRANCH  13  16
ATOM     15  C   UNL     1       8.105   8.855  17.924  0.00  0.00    +0.000 C 
ATOM     16  O   UNL     1       7.853   7.823  16.968  0.00  0.00    +0.000 OA
ENDBRANCH  13  16
ENDBRANCH  12  13
ENDBRANCH  11  12
ENDBRANCH   1  11
TORSDOF 6
ENDMDL
