MODEL 1
REMARK VINA RESULT:      -9.3      0.000      0.000
REMARK  Name = 
REMARK  9 active torsions:
REMARK  status: ('A' for Active; 'I' for Inactive)
REMARK    1  A    between atoms: C_1  and  C_2
REMARK    2  A    between atoms: C_2  and  C_3
REMARK    3  A    between atoms: C_10  and  S_11
REMARK    4  A    between atoms: S_11  and  C_14
REMARK    5  A    between atoms: C_14  and  C_15
REMARK    6  A    between atoms: C_15  and  C_16
REMARK    7  A    between atoms: N_21  and  C_22
REMARK    8  A    between atoms: C_24  and  C_25
REMARK    9  A    between atoms: C_28  and  C_29
REMARK                            x       y       z     vdW  Elec       q    Type
REMARK                         _______ _______ _______ _____ _____    ______ ____
ROOT
ATOM      1  C   UNL     1       1.144   4.393  20.132  0.00  0.00    +0.000 C 
ENDROOT
BRANCH   1   2
ATOM      2  S   UNL     1       2.293   3.048  20.024  0.00  0.00    +0.000 S 
ATOM      3  O   UNL     1       1.604   1.905  19.451  0.00  0.00    +0.000 OA
ATOM      4  O   UNL     1       2.965   2.941  21.312  0.00  0.00    +0.000 OA
BRANCH   2  12
ATOM      5  C   UNL     1       6.846   4.823  14.887  0.00  0.00    +0.000 C 
ATOM      6  O   UNL     1       7.897   5.320  14.475  0.00  0.00    +0.000 OA
ATOM      7  N   UNL     1       6.551   4.806  16.240  0.00  0.00    +0.000 N 
ATOM      8  C   UNL     1       7.439   5.526  17.167  0.00  0.00    +0.000 C 
ATOM      9  C   UNL     1       6.934   5.265  18.587  0.00  0.00    +0.000 C 
ATOM     10  C   UNL     1       5.614   4.609  18.327  0.00  0.00    +0.000 A 
ATOM     11  C   UNL     1       4.663   4.255  19.279  0.00  0.00    +0.000 A 
ATOM     12  C   UNL     1       3.521   3.579  18.848  0.00  0.00    +0.000 A 
ATOM     13  C   UNL     1       3.371   3.218  17.499  0.00  0.00    +0.000 A 
ATOM     14  C   UNL     1       4.342   3.585  16.557  0.00  0.00    +0.000 A 
ATOM     15  C   UNL     1       5.455   4.302  16.969  0.00  0.00    +0.000 A 
BRANCH   5  17
ATOM     16  C   UNL     1       6.472   3.716  12.638  0.00  0.00    +0.000 C 
ATOM     17  C   UNL     1       5.839   4.241  13.915  0.00  0.00    +0.000 C 
ENDBRANCH   5  17
ENDBRANCH   2  12
ENDBRANCH   1   2
BRANCH   1  18
ATOM     18  C   UNL     1       1.793   5.604  20.798  0.00  0.00    +0.000 C 
BRANCH  18  19
ATOM     19  C   UNL     1       1.807   6.789  19.860  0.00  0.00    +0.000 C 
ATOM     20  O   UNL     1       2.007   6.632  18.656  0.00  0.00    +0.000 OA
ATOM     21  N   UNL     1       1.545   8.028  20.409  0.00  0.00    +0.000 N 
ATOM     22  C   UNL     1       1.390   9.181  19.523  0.00  0.00    +0.000 C 
ATOM     23  C   UNL     1       0.093   9.945  19.830  0.00  0.00    +0.000 C 
ATOM     24  N   UNL     1       0.038  10.300  21.255  0.00  0.00    +0.000 N 
ATOM     25  C   UNL     1       0.184   9.156  22.179  0.00  0.00    +0.000 C 
ATOM     26  C   UNL     1       1.466   8.361  21.842  0.00  0.00    +0.000 C 
BRANCH  24  27
ATOM     27  C   UNL     1      -0.448  11.515  21.714  0.00  0.00    +0.000 A 
ATOM     28  C   UNL     1      -1.642  11.505  22.477  0.00  0.00    +0.000 A 
ATOM     29  C   UNL     1      -2.200  12.659  23.047  0.00  0.00    +0.000 A 
ATOM     30  C   UNL     1      -3.457  12.589  23.860  0.00  0.00    +0.000 C 
ATOM     31  C   UNL     1      -1.554  13.875  22.859  0.00  0.00    +0.000 A 
ATOM     32  C   UNL     1      -0.381  13.927  22.110  0.00  0.00    +0.000 A 
ATOM     33  C   UNL     1       0.177  12.769  21.525  0.00  0.00    +0.000 A 
ATOM     34  C   UNL     1       1.411  12.978  20.684  0.00  0.00    +0.000 C 
ENDBRANCH  24  27
ENDBRANCH  18  19
ENDBRANCH   1  18
TORSDOF 6
ENDMDL
MODEL 2
REMARK VINA RESULT:      -8.7      1.296      1.747
REMARK  Name = 
REMARK  9 active torsions:
REMARK  status: ('A' for Active; 'I' for Inactive)
REMARK    1  A    between atoms: C_1  and  C_2
REMARK    2  A    between atoms: C_2  and  C_3
REMARK    3  A    between atoms: C_10  and  S_11
REMARK    4  A    between atoms: S_11  and  C_14
REMARK    5  A    between atoms: C_14  and  C_15
REMARK    6  A    between atoms: C_15  and  C_16
REMARK    7  A    between atoms: N_21  and  C_22
REMARK    8  A    between atoms: C_24  and  C_25
REMARK    9  A    between atoms: C_28  and  C_29
REMARK                            x       y       z     vdW  Elec       q    Type
REMARK                         _______ _______ _______ _____ _____    ______ ____
ROOT
ATOM      1  C   UNL     1       1.082   4.274  20.092  0.00  0.00    +0.000 C 
ENDROOT
BRANCH   1   2
ATOM      2  S   UNL     1       2.323   3.008  20.111  0.00  0.00    +0.000 S 
ATOM      3  O   UNL     1       1.731   1.781  19.607  0.00  0.00    +0.000 OA
ATOM      4  O   UNL     1       2.963   3.040  21.419  0.00  0.00    +0.000 OA
BRANCH   2  12
ATOM      5  C   UNL     1       6.853   4.779  14.953  0.00  0.00    +0.000 C 
ATOM      6  O   UNL     1       7.902   5.278  14.536  0.00  0.00    +0.000 OA
ATOM      7  N   UNL     1       6.564   4.766  16.306  0.00  0.00    +0.000 N 
ATOM      8  C   UNL     1       7.452   5.491  17.228  0.00  0.00    +0.000 C 
ATOM      9  C   UNL     1       6.953   5.233  18.651  0.00  0.00    +0.000 C 
ATOM     10  C   UNL     1       5.634   4.573  18.397  0.00  0.00    +0.000 A 
ATOM     11  C   UNL     1       4.687   4.219  19.354  0.00  0.00    +0.000 A 
ATOM     12  C   UNL     1       3.546   3.539  18.929  0.00  0.00    +0.000 A 
ATOM     13  C   UNL     1       3.391   3.173  17.582  0.00  0.00    +0.000 A 
ATOM     14  C   UNL     1       4.359   3.539  16.635  0.00  0.00    +0.000 A 
ATOM     15  C   UNL     1       5.472   4.261  17.041  0.00  0.00    +0.000 A 
BRANCH   5  17
ATOM     16  C   UNL     1       6.470   3.699  12.692  0.00  0.00    +0.000 C 
ATOM     17  C   UNL     1       5.844   4.192  13.986  0.00  0.00    +0.000 C 
ENDBRANCH   5  17
ENDBRANCH   2  12
ENDBRANCH   1   2
BRANCH   1  18
ATOM     18  C   UNL     1       1.633   5.577  20.666  0.00  0.00    +0.000 C 
BRANCH  18  19
ATOM     19  C   UNL     1       1.915   6.572  19.565  0.00  0.00    +0.000 C 
ATOM     20  O   UNL     1       2.246   6.187  18.443  0.00  0.00    +0.000 OA
ATOM     21  N   UNL     1       1.740   7.908  19.865  0.00  0.00    +0.000 N 
ATOM     22  C   UNL     1       1.845   8.898  18.793  0.00  0.00    +0.000 C 
ATOM     23  C   UNL     1       0.625   9.830  18.780  0.00  0.00    +0.000 C 
ATOM     24  N   UNL     1       0.431  10.433  20.106  0.00  0.00    +0.000 N 
ATOM     25  C   UNL     1       0.314   9.460  21.212  0.00  0.00    +0.000 C 
ATOM     26  C   UNL     1       1.519   8.493  21.199  0.00  0.00    +0.000 C 
BRANCH  24  27
ATOM     27  C   UNL     1       0.045  11.752  20.290  0.00  0.00    +0.000 A 
ATOM     28  C   UNL     1       0.955  12.625  20.934  0.00  0.00    +0.000 A 
ATOM     29  C   UNL     1       0.707  13.993  21.124  0.00  0.00    +0.000 A 
ATOM     30  C   UNL     1       1.714  14.876  21.797  0.00  0.00    +0.000 C 
ATOM     31  C   UNL     1      -0.490  14.524  20.658  0.00  0.00    +0.000 A 
ATOM     32  C   UNL     1      -1.414  13.696  20.025  0.00  0.00    +0.000 A 
ATOM     33  C   UNL     1      -1.172  12.317  19.843  0.00  0.00    +0.000 A 
ATOM     34  C   UNL     1      -2.285  11.526  19.202  0.00  0.00    +0.000 C 
ENDBRANCH  24  27
ENDBRANCH  18  19
ENDBRANCH   1  18
TORSDOF 6
ENDMDL
MODEL 3
REMARK VINA RESULT:      -8.5      0.920      1.765
REMARK  Name = 
REMARK  9 active torsions:
REMARK  status: ('A' for Active; 'I' for Inactive)
REMARK    1  A    between atoms: C_1  and  C_2
REMARK    2  A    between atoms: C_2  and  C_3
REMARK    3  A    between atoms: C_10  and  S_11
REMARK    4  A    between atoms: S_11  and  C_14
REMARK    5  A    between atoms: C_14  and  C_15
REMARK    6  A    between atoms: C_15  and  C_16
REMARK    7  A    between atoms: N_21  and  C_22
REMARK    8  A    between atoms: C_24  and  C_25
REMARK    9  A    between atoms: C_28  and  C_29
REMARK                            x       y       z     vdW  Elec       q    Type
REMARK                         _______ _______ _______ _____ _____    ______ ____
ROOT
ATOM      1  C   UNL     1       2.307   4.333  21.140  0.00  0.00    +0.000 C 
ENDROOT
BRANCH   1   2
ATOM      2  S   UNL     1       2.989   2.879  20.390  0.00  0.00    +0.000 S 
ATOM      3  O   UNL     1       1.904   2.125  19.788  0.00  0.00    +0.000 OA
ATOM      4  O   UNL     1       3.873   2.256  21.367  0.00  0.00    +0.000 OA
BRANCH   2  12
ATOM      5  C   UNL     1       6.778   4.859  14.734  0.00  0.00    +0.000 C 
ATOM      6  O   UNL     1       7.716   5.451  14.193  0.00  0.00    +0.000 OA
ATOM      7  N   UNL     1       6.618   4.891  16.109  0.00  0.00    +0.000 N 
ATOM      8  C   UNL     1       7.494   5.766  16.904  0.00  0.00    +0.000 C 
ATOM      9  C   UNL     1       7.163   5.535  18.379  0.00  0.00    +0.000 C 
ATOM     10  C   UNL     1       5.915   4.713  18.288  0.00  0.00    +0.000 A 
ATOM     11  C   UNL     1       5.110   4.309  19.349  0.00  0.00    +0.000 A 
ATOM     12  C   UNL     1       4.025   3.478  19.071  0.00  0.00    +0.000 A 
ATOM     13  C   UNL     1       3.792   3.020  17.764  0.00  0.00    +0.000 A 
ATOM     14  C   UNL     1       4.616   3.439  16.710  0.00  0.00    +0.000 A 
ATOM     15  C   UNL     1       5.667   4.307  16.971  0.00  0.00    +0.000 A 
BRANCH   5  17
ATOM     16  C   UNL     1       6.338   3.558  12.605  0.00  0.00    +0.000 C 
ATOM     17  C   UNL     1       5.762   4.104  13.900  0.00  0.00    +0.000 C 
ENDBRANCH   5  17
ENDBRANCH   2  12
ENDBRANCH   1   2
BRANCH   1  18
ATOM     18  C   UNL     1       1.220   4.937  20.253  0.00  0.00    +0.000 C 
BRANCH  18  19
ATOM     19  C   UNL     1       1.764   6.098  19.452  0.00  0.00    +0.000 C 
ATOM     20  O   UNL     1       2.248   5.915  18.335  0.00  0.00    +0.000 OA
ATOM     21  N   UNL     1       1.652   7.355  20.011  0.00  0.00    +0.000 N 
ATOM     22  C   UNL     1       2.017   8.524  19.212  0.00  0.00    +0.000 C 
ATOM     23  C   UNL     1       0.897   9.575  19.225  0.00  0.00    +0.000 C 
ATOM     24  N   UNL     1       0.532   9.911  20.609  0.00  0.00    +0.000 N 
ATOM     25  C   UNL     1       0.151   8.753  21.442  0.00  0.00    +0.000 C 
ATOM     26  C   UNL     1       1.258   7.675  21.394  0.00  0.00    +0.000 C 
BRANCH  24  27
ATOM     27  C   UNL     1       0.230  11.201  21.020  0.00  0.00    +0.000 A 
ATOM     28  C   UNL     1       0.666  12.275  20.206  0.00  0.00    +0.000 A 
ATOM     29  C   UNL     1       0.372  13.618  20.481  0.00  0.00    +0.000 A 
ATOM     30  C   UNL     1       0.844  14.715  19.576  0.00  0.00    +0.000 C 
ATOM     31  C   UNL     1      -0.385  13.917  21.608  0.00  0.00    +0.000 A 
ATOM     32  C   UNL     1      -0.827  12.889  22.437  0.00  0.00    +0.000 A 
ATOM     33  C   UNL     1      -0.523  11.537  22.168  0.00  0.00    +0.000 A 
ATOM     34  C   UNL     1      -1.007  10.532  23.184  0.00  0.00    +0.000 C 
ENDBRANCH  24  27
ENDBRANCH  18  19
ENDBRANCH   1  18
TORSDOF 6
ENDMDL
MODEL 4
REMARK VINA RESULT:      -8.4      1.091      1.373
REMARK  Name = 
REMARK  9 active torsions:
REMARK  status: ('A' for Active; 'I' for Inactive)
REMARK    1  A    between atoms: C_1  and  C_2
REMARK    2  A    between atoms: C_2  and  C_3
REMARK    3  A    between atoms: C_10  and  S_11
REMARK    4  A    between atoms: S_11  and  C_14
REMARK    5  A    between atoms: C_14  and  C_15
REMARK    6  A    between atoms: C_15  and  C_16
REMARK    7  A    between atoms: N_21  and  C_22
REMARK    8  A    between atoms: C_24  and  C_25
REMARK    9  A    between atoms: C_28  and  C_29
REMARK                            x       y       z     vdW  Elec       q    Type
REMARK                         _______ _______ _______ _____ _____    ______ ____
ROOT
ATOM      1  C   UNL     1       2.511   4.873  21.270  0.00  0.00    +0.000 C 
ENDROOT
BRANCH   1   2
ATOM      2  S   UNL     1       2.812   3.384  20.356  0.00  0.00    +0.000 S 
ATOM      3  O   UNL     1       1.561   2.955  19.757  0.00  0.00    +0.000 OA
ATOM      4  O   UNL     1       3.569   2.486  21.219  0.00  0.00    +0.000 OA
BRANCH   2  12
ATOM      5  C   UNL     1       6.841   4.855  14.710  0.00  0.00    +0.000 C 
ATOM      6  O   UNL     1       7.804   5.395  14.159  0.00  0.00    +0.000 OA
ATOM      7  N   UNL     1       6.625   5.007  16.069  0.00  0.00    +0.000 N 
ATOM      8  C   UNL     1       7.474   5.946  16.821  0.00  0.00    +0.000 C 
ATOM      9  C   UNL     1       7.082   5.844  18.295  0.00  0.00    +0.000 C 
ATOM     10  C   UNL     1       5.833   5.021  18.224  0.00  0.00    +0.000 A 
ATOM     11  C   UNL     1       4.983   4.713  19.283  0.00  0.00    +0.000 A 
ATOM     12  C   UNL     1       3.905   3.864  19.033  0.00  0.00    +0.000 A 
ATOM     13  C   UNL     1       3.723   3.294  17.762  0.00  0.00    +0.000 A 
ATOM     14  C   UNL     1       4.592   3.619  16.711  0.00  0.00    +0.000 A 
ATOM     15  C   UNL     1       5.636   4.503  16.938  0.00  0.00    +0.000 A 
BRANCH   5  17
ATOM     16  C   UNL     1       6.385   3.635  12.537  0.00  0.00    +0.000 C 
ATOM     17  C   UNL     1       5.855   4.034  13.903  0.00  0.00    +0.000 C 
ENDBRANCH   5  17
ENDBRANCH   2  12
ENDBRANCH   1   2
BRANCH   1  18
ATOM     18  C   UNL     1       1.353   5.657  20.656  0.00  0.00    +0.000 C 
BRANCH  18  19
ATOM     19  C   UNL     1       1.850   6.925  20.001  0.00  0.00    +0.000 C 
ATOM     20  O   UNL     1       2.665   6.876  19.080  0.00  0.00    +0.000 OA
ATOM     21  N   UNL     1       1.318   8.116  20.454  0.00  0.00    +0.000 N 
ATOM     22  C   UNL     1       1.646   9.354  19.749  0.00  0.00    +0.000 C 
ATOM     23  C   UNL     1       0.375  10.143  19.396  0.00  0.00    +0.000 C 
ATOM     24  N   UNL     1      -0.438  10.361  20.600  0.00  0.00    +0.000 N 
ATOM     25  C   UNL     1      -0.793   9.128  21.333  0.00  0.00    +0.000 C 
ATOM     26  C   UNL     1       0.481   8.312  21.649  0.00  0.00    +0.000 C 
BRANCH  24  27
ATOM     27  C   UNL     1      -1.111  11.547  20.856  0.00  0.00    +0.000 A 
ATOM     28  C   UNL     1      -0.840  12.212  22.076  0.00  0.00    +0.000 A 
ATOM     29  C   UNL     1      -1.410  13.446  22.423  0.00  0.00    +0.000 A 
ATOM     30  C   UNL     1      -1.076  14.115  23.721  0.00  0.00    +0.000 C 
ATOM     31  C   UNL     1      -2.282  14.052  21.527  0.00  0.00    +0.000 A 
ATOM     32  C   UNL     1      -2.579  13.427  20.319  0.00  0.00    +0.000 A 
ATOM     33  C   UNL     1      -2.016  12.179  19.972  0.00  0.00    +0.000 A 
ATOM     34  C   UNL     1      -2.474  11.583  18.665  0.00  0.00    +0.000 C 
ENDBRANCH  24  27
ENDBRANCH  18  19
ENDBRANCH   1  18
TORSDOF 6
ENDMDL
MODEL 5
REMARK VINA RESULT:      -8.4      1.351      1.364
REMARK  Name = 
REMARK  9 active torsions:
REMARK  status: ('A' for Active; 'I' for Inactive)
REMARK    1  A    between atoms: C_1  and  C_2
REMARK    2  A    between atoms: C_2  and  C_3
REMARK    3  A    between atoms: C_10  and  S_11
REMARK    4  A    between atoms: S_11  and  C_14
REMARK    5  A    between atoms: C_14  and  C_15
REMARK    6  A    between atoms: C_15  and  C_16
REMARK    7  A    between atoms: N_21  and  C_22
REMARK    8  A    between atoms: C_24  and  C_25
REMARK    9  A    between atoms: C_28  and  C_29
REMARK                            x       y       z     vdW  Elec       q    Type
REMARK                         _______ _______ _______ _____ _____    ______ ____
ROOT
ATOM      1  C   UNL     1       0.870   5.567  20.404  0.00  0.00    +0.000 C 
ENDROOT
BRANCH   1   2
ATOM      2  S   UNL     1       1.719   4.011  20.385  0.00  0.00    +0.000 S 
ATOM      3  O   UNL     1       0.826   3.011  19.827  0.00  0.00    +0.000 OA
ATOM      4  O   UNL     1       2.316   3.822  21.701  0.00  0.00    +0.000 OA
BRANCH   2  12
ATOM      5  C   UNL     1       6.727   4.516  15.392  0.00  0.00    +0.000 C 
ATOM      6  O   UNL     1       7.852   4.831  14.992  0.00  0.00    +0.000 OA
ATOM      7  N   UNL     1       6.359   4.728  16.710  0.00  0.00    +0.000 N 
ATOM      8  C   UNL     1       7.272   5.473  17.590  0.00  0.00    +0.000 C 
ATOM      9  C   UNL     1       6.663   5.476  18.993  0.00  0.00    +0.000 C 
ATOM     10  C   UNL     1       5.290   4.938  18.732  0.00  0.00    +0.000 A 
ATOM     11  C   UNL     1       4.253   4.831  19.654  0.00  0.00    +0.000 A 
ATOM     12  C   UNL     1       3.065   4.229  19.239  0.00  0.00    +0.000 A 
ATOM     13  C   UNL     1       2.948   3.696  17.945  0.00  0.00    +0.000 A 
ATOM     14  C   UNL     1       4.006   3.814  17.033  0.00  0.00    +0.000 A 
ATOM     15  C   UNL     1       5.172   4.457  17.421  0.00  0.00    +0.000 A 
BRANCH   5  17
ATOM     16  C   UNL     1       6.219   3.815  13.010  0.00  0.00    +0.000 C 
ATOM     17  C   UNL     1       5.714   3.914  14.439  0.00  0.00    +0.000 C 
ENDBRANCH   5  17
ENDBRANCH   2  12
ENDBRANCH   1   2
BRANCH   1  18
ATOM     18  C   UNL     1       1.831   6.700  20.757  0.00  0.00    +0.000 C 
BRANCH  18  19
ATOM     19  C   UNL     1       1.839   7.754  19.674  0.00  0.00    +0.000 C 
ATOM     20  O   UNL     1       2.234   7.483  18.540  0.00  0.00    +0.000 OA
ATOM     21  N   UNL     1       1.349   9.001  20.006  0.00  0.00    +0.000 N 
ATOM     22  C   UNL     1       1.188  10.005  18.955  0.00  0.00    +0.000 C 
ATOM     23  C   UNL     1      -0.223  10.611  18.980  0.00  0.00    +0.000 C 
ATOM     24  N   UNL     1      -0.533  11.123  20.322  0.00  0.00    +0.000 N 
ATOM     25  C   UNL     1      -0.388  10.131  21.407  0.00  0.00    +0.000 C 
ATOM     26  C   UNL     1       1.017   9.489  21.356  0.00  0.00    +0.000 C 
BRANCH  24  27
ATOM     27  C   UNL     1      -1.227  12.305  20.540  0.00  0.00    +0.000 A 
ATOM     28  C   UNL     1      -2.640  12.269  20.451  0.00  0.00    +0.000 A 
ATOM     29  C   UNL     1      -3.455  13.380  20.709  0.00  0.00    +0.000 A 
ATOM     30  C   UNL     1      -4.948  13.283  20.618  0.00  0.00    +0.000 C 
ATOM     31  C   UNL     1      -2.853  14.579  21.071  0.00  0.00    +0.000 A 
ATOM     32  C   UNL     1      -1.465  14.657  21.162  0.00  0.00    +0.000 A 
ATOM     33  C   UNL     1      -0.641  13.542  20.892  0.00  0.00    +0.000 A 
ATOM     34  C   UNL     1       0.846  13.783  20.964  0.00  0.00    +0.000 C 
ENDBRANCH  24  27
ENDBRANCH  18  19
ENDBRANCH   1  18
TORSDOF 6
ENDMDL
MODEL 6
REMARK VINA RESULT:      -8.2      0.920      1.673
REMARK  Name = 
REMARK  9 active torsions:
REMARK  status: ('A' for Active; 'I' for Inactive)
REMARK    1  A    between atoms: C_1  and  C_2
REMARK    2  A    between atoms: C_2  and  C_3
REMARK    3  A    between atoms: C_10  and  S_11
REMARK    4  A    between atoms: S_11  and  C_14
REMARK    5  A    between atoms: C_14  and  C_15
REMARK    6  A    between atoms: C_15  and  C_16
REMARK    7  A    between atoms: N_21  and  C_22
REMARK    8  A    between atoms: C_24  and  C_25
REMARK    9  A    between atoms: C_28  and  C_29
REMARK                            x       y       z     vdW  Elec       q    Type
REMARK                         _______ _______ _______ _____ _____    ______ ____
ROOT
ATOM      1  C   UNL     1       0.976   5.016  20.302  0.00  0.00    +0.000 C 
ENDROOT
BRANCH   1   2
ATOM      2  S   UNL     1       2.035   3.596  20.245  0.00  0.00    +0.000 S 
ATOM      3  O   UNL     1       1.280   2.485  19.693  0.00  0.00    +0.000 OA
ATOM      4  O   UNL     1       2.682   3.479  21.546  0.00  0.00    +0.000 OA
BRANCH   2  12
ATOM      5  C   UNL     1       6.751   4.948  15.127  0.00  0.00    +0.000 C 
ATOM      6  O   UNL     1       7.844   5.352  14.719  0.00  0.00    +0.000 OA
ATOM      7  N   UNL     1       6.449   4.964  16.478  0.00  0.00    +0.000 N 
ATOM      8  C   UNL     1       7.390   5.611  17.407  0.00  0.00    +0.000 C 
ATOM      9  C   UNL     1       6.857   5.402  18.825  0.00  0.00    +0.000 C 
ATOM     10  C   UNL     1       5.487   4.859  18.560  0.00  0.00    +0.000 A 
ATOM     11  C   UNL     1       4.503   4.592  19.509  0.00  0.00    +0.000 A 
ATOM     12  C   UNL     1       3.311   4.014  19.075  0.00  0.00    +0.000 A 
ATOM     13  C   UNL     1       3.138   3.660  17.727  0.00  0.00    +0.000 A 
ATOM     14  C   UNL     1       4.142   3.937  16.788  0.00  0.00    +0.000 A 
ATOM     15  C   UNL     1       5.310   4.560  17.204  0.00  0.00    +0.000 A 
BRANCH   5  17
ATOM     16  C   UNL     1       6.243   3.430  13.163  0.00  0.00    +0.000 C 
ATOM     17  C   UNL     1       5.704   4.449  14.152  0.00  0.00    +0.000 C 
ENDBRANCH   5  17
ENDBRANCH   2  12
ENDBRANCH   1   2
BRANCH   1  18
ATOM     18  C   UNL     1       1.718   6.219  20.881  0.00  0.00    +0.000 C 
BRANCH  18  19
ATOM     19  C   UNL     1       1.808   7.334  19.865  0.00  0.00    +0.000 C 
ATOM     20  O   UNL     1       2.136   7.096  18.702  0.00  0.00    +0.000 OA
ATOM     21  N   UNL     1       1.467   8.601  20.291  0.00  0.00    +0.000 N 
ATOM     22  C   UNL     1       1.384   9.683  19.310  0.00  0.00    +0.000 C 
ATOM     23  C   UNL     1       0.049  10.433  19.425  0.00  0.00    +0.000 C 
ATOM     24  N   UNL     1      -0.162  10.888  20.806  0.00  0.00    +0.000 N 
ATOM     25  C   UNL     1      -0.093   9.817  21.822  0.00  0.00    +0.000 C 
ATOM     26  C   UNL     1       1.232   9.034  21.679  0.00  0.00    +0.000 C 
BRANCH  24  27
ATOM     27  C   UNL     1      -0.716  12.120  21.122  0.00  0.00    +0.000 A 
ATOM     28  C   UNL     1      -0.447  13.208  20.256  0.00  0.00    +0.000 A 
ATOM     29  C   UNL     1      -0.997  14.486  20.434  0.00  0.00    +0.000 A 
ATOM     30  C   UNL     1      -0.692  15.599  19.477  0.00  0.00    +0.000 C 
ATOM     31  C   UNL     1      -1.849  14.702  21.510  0.00  0.00    +0.000 A 
ATOM     32  C   UNL     1      -2.133  13.658  22.387  0.00  0.00    +0.000 A 
ATOM     33  C   UNL     1      -1.572  12.373  22.218  0.00  0.00    +0.000 A 
ATOM     34  C   UNL     1      -1.911  11.355  23.278  0.00  0.00    +0.000 C 
ENDBRANCH  24  27
ENDBRANCH  18  19
ENDBRANCH   1  18
TORSDOF 6
ENDMDL
MODEL 7
REMARK VINA RESULT:      -8.1      1.281      2.258
REMARK  Name = 
REMARK  9 active torsions:
REMARK  status: ('A' for Active; 'I' for Inactive)
REMARK    1  A    between atoms: C_1  and  C_2
REMARK    2  A    between atoms: C_2  and  C_3
REMARK    3  A    between atoms: C_10  and  S_11
REMARK    4  A    between atoms: S_11  and  C_14
REMARK    5  A    between atoms: C_14  and  C_15
REMARK    6  A    between atoms: C_15  and  C_16
REMARK    7  A    between atoms: N_21  and  C_22
REMARK    8  A    between atoms: C_24  and  C_25
REMARK    9  A    between atoms: C_28  and  C_29
REMARK                            x       y       z     vdW  Elec       q    Type
REMARK                         _______ _______ _______ _____ _____    ______ ____
ROOT
ATOM      1  C   UNL     1       0.741   5.569  20.631  0.00  0.00    +0.000 C 
ENDROOT
BRANCH   1   2
ATOM      2  S   UNL     1       1.634   4.046  20.471  0.00  0.00    +0.000 S 
ATOM      3  O   UNL     1       0.763   3.070  19.841  0.00  0.00    +0.000 OA
ATOM      4  O   UNL     1       2.256   3.764  21.759  0.00  0.00    +0.000 OA
BRANCH   2  12
ATOM      5  C   UNL     1       7.141   5.870  16.395  0.00  0.00    +0.000 C 
ATOM      6  O   UNL     1       7.764   5.878  15.329  0.00  0.00    +0.000 OA
ATOM      7  N   UNL     1       5.922   5.222  16.498  0.00  0.00    +0.000 N 
ATOM      8  C   UNL     1       5.451   4.412  15.363  0.00  0.00    +0.000 C 
ATOM      9  C   UNL     1       4.055   3.895  15.712  0.00  0.00    +0.000 C 
ATOM     10  C   UNL     1       3.950   4.251  17.162  0.00  0.00    +0.000 A 
ATOM     11  C   UNL     1       2.914   3.908  18.027  0.00  0.00    +0.000 A 
ATOM     12  C   UNL     1       2.957   4.400  19.331  0.00  0.00    +0.000 A 
ATOM     13  C   UNL     1       3.988   5.264  19.736  0.00  0.00    +0.000 A 
ATOM     14  C   UNL     1       5.020   5.597  18.848  0.00  0.00    +0.000 A 
ATOM     15  C   UNL     1       5.013   5.070  17.565  0.00  0.00    +0.000 A 
BRANCH   5  17
ATOM     16  C   UNL     1       7.667   8.066  17.544  0.00  0.00    +0.000 C 
ATOM     17  C   UNL     1       7.712   6.550  17.623  0.00  0.00    +0.000 C 
ENDBRANCH   5  17
ENDBRANCH   2  12
ENDBRANCH   1   2
BRANCH   1  18
ATOM     18  C   UNL     1       1.648   6.671  21.174  0.00  0.00    +0.000 C 
BRANCH  18  19
ATOM     19  C   UNL     1       1.498   7.938  20.365  0.00  0.00    +0.000 C 
ATOM     20  O   UNL     1       1.720   7.937  19.154  0.00  0.00    +0.000 OA
ATOM     21  N   UNL     1       1.064   9.064  21.035  0.00  0.00    +0.000 N 
ATOM     22  C   UNL     1       0.750  10.270  20.270  0.00  0.00    +0.000 C 
ATOM     23  C   UNL     1      -0.641  10.810  20.633  0.00  0.00    +0.000 C 
ATOM     24  N   UNL     1      -0.748  11.002  22.086  0.00  0.00    +0.000 N 
ATOM     25  C   UNL     1      -0.445   9.800  22.889  0.00  0.00    +0.000 C 
ATOM     26  C   UNL     1       0.936   9.230  22.493  0.00  0.00    +0.000 C 
BRANCH  24  27
ATOM     27  C   UNL     1      -1.401  12.083  22.661  0.00  0.00    +0.000 A 
ATOM     28  C   UNL     1      -2.614  11.835  23.348  0.00  0.00    +0.000 A 
ATOM     29  C   UNL     1      -3.335  12.832  24.021  0.00  0.00    +0.000 A 
ATOM     30  C   UNL     1      -4.606  12.512  24.748  0.00  0.00    +0.000 C 
ATOM     31  C   UNL     1      -2.838  14.130  24.019  0.00  0.00    +0.000 A 
ATOM     32  C   UNL     1      -1.651  14.416  23.348  0.00  0.00    +0.000 A 
ATOM     33  C   UNL     1      -0.929  13.416  22.660  0.00  0.00    +0.000 A 
ATOM     34  C   UNL     1       0.303  13.875  21.922  0.00  0.00    +0.000 C 
ENDBRANCH  24  27
ENDBRANCH  18  19
ENDBRANCH   1  18
TORSDOF 6
ENDMDL
MODEL 8
REMARK VINA RESULT:      -7.8      3.568      5.936
REMARK  Name = 
REMARK  9 active torsions:
REMARK  status: ('A' for Active; 'I' for Inactive)
REMARK    1  A    between atoms: C_1  and  C_2
REMARK    2  A    between atoms: C_2  and  C_3
REMARK    3  A    between atoms: C_10  and  S_11
REMARK    4  A    between atoms: S_11  and  C_14
REMARK    5  A    between atoms: C_14  and  C_15
REMARK    6  A    between atoms: C_15  and  C_16
REMARK    7  A    between atoms: N_21  and  C_22
REMARK    8  A    between atoms: C_24  and  C_25
REMARK    9  A    between atoms: C_28  and  C_29
REMARK                            x       y       z     vdW  Elec       q    Type
REMARK                         _______ _______ _______ _____ _____    ______ ____
ROOT
ATOM      1  C   UNL     1       1.426  10.384  19.894  0.00  0.00    +0.000 C 
ENDROOT
BRANCH   1   2
ATOM      2  S   UNL     1       1.461   9.626  18.292  0.00  0.00    +0.000 S 
ATOM      3  O   UNL     1       2.364  10.386  17.447  0.00  0.00    +0.000 OA
ATOM      4  O   UNL     1       0.081   9.395  17.886  0.00  0.00    +0.000 OA
BRANCH   2  12
ATOM      5  C   UNL     1       4.019   3.210  19.896  0.00  0.00    +0.000 C 
ATOM      6  O   UNL     1       4.785   2.258  19.722  0.00  0.00    +0.000 OA
ATOM      7  N   UNL     1       4.088   4.333  19.088  0.00  0.00    +0.000 N 
ATOM      8  C   UNL     1       4.986   4.312  17.922  0.00  0.00    +0.000 C 
ATOM      9  C   UNL     1       4.933   5.696  17.273  0.00  0.00    +0.000 C 
ATOM     10  C   UNL     1       3.782   6.328  17.994  0.00  0.00    +0.000 A 
ATOM     11  C   UNL     1       3.213   7.569  17.719  0.00  0.00    +0.000 A 
ATOM     12  C   UNL     1       2.192   8.022  18.554  0.00  0.00    +0.000 A 
ATOM     13  C   UNL     1       1.795   7.270  19.672  0.00  0.00    +0.000 A 
ATOM     14  C   UNL     1       2.382   6.023  19.929  0.00  0.00    +0.000 A 
ATOM     15  C   UNL     1       3.363   5.541  19.074  0.00  0.00    +0.000 A 
BRANCH   5  17
ATOM     16  C   UNL     1       1.646   2.571  20.514  0.00  0.00    +0.000 C 
ATOM     17  C   UNL     1       2.965   3.159  20.984  0.00  0.00    +0.000 C 
ENDBRANCH   5  17
ENDBRANCH   2  12
ENDBRANCH   1   2
BRANCH   1  18
ATOM     18  C   UNL     1       0.159   9.990  20.649  0.00  0.00    +0.000 C 
BRANCH  18  19
ATOM     19  C   UNL     1      -0.283  11.101  21.573  0.00  0.00    +0.000 C 
ATOM     20  O   UNL     1      -0.188  10.975  22.794  0.00  0.00    +0.000 OA
ATOM     21  N   UNL     1      -0.749  12.260  20.985  0.00  0.00    +0.000 N 
ATOM     22  C   UNL     1      -1.038  13.419  21.829  0.00  0.00    +0.000 C 
ATOM     23  C   UNL     1      -0.346  14.680  21.292  0.00  0.00    +0.000 C 
ATOM     24  N   UNL     1      -0.697  14.891  19.881  0.00  0.00    +0.000 N 
ATOM     25  C   UNL     1      -0.410  13.741  18.999  0.00  0.00    +0.000 C 
ATOM     26  C   UNL     1      -1.070  12.462  19.562  0.00  0.00    +0.000 C 
BRANCH  24  27
ATOM     27  C   UNL     1      -0.945  16.144  19.341  0.00  0.00    +0.000 A 
ATOM     28  C   UNL     1      -0.077  16.610  18.323  0.00  0.00    +0.000 A 
ATOM     29  C   UNL     1      -0.258  17.832  17.657  0.00  0.00    +0.000 A 
ATOM     30  C   UNL     1       0.681  18.269  16.575  0.00  0.00    +0.000 C 
ATOM     31  C   UNL     1      -1.341  18.628  18.009  0.00  0.00    +0.000 A 
ATOM     32  C   UNL     1      -2.213  18.208  19.010  0.00  0.00    +0.000 A 
ATOM     33  C   UNL     1      -2.027  16.984  19.689  0.00  0.00    +0.000 A 
ATOM     34  C   UNL     1      -3.007  16.683  20.796  0.00  0.00    +0.000 C 
ENDBRANCH  24  27
ENDBRANCH  18  19
ENDBRANCH   1  18
TORSDOF 6
ENDMDL
MODEL 9
REMARK VINA RESULT:      -7.8      2.048      3.307
REMARK  Name = 
REMARK  9 active torsions:
REMARK  status: ('A' for Active; 'I' for Inactive)
REMARK    1  A    between atoms: C_1  and  C_2
REMARK    2  A    between atoms: C_2  and  C_3
REMARK    3  A    between atoms: C_10  and  S_11
REMARK    4  A    between atoms: S_11  and  C_14
REMARK    5  A    between atoms: C_14  and  C_15
REMARK    6  A    between atoms: C_15  and  C_16
REMARK    7  A    between atoms: N_21  and  C_22
REMARK    8  A    between atoms: C_24  and  C_25
REMARK    9  A    between atoms: C_28  and  C_29
REMARK                            x       y       z     vdW  Elec       q    Type
REMARK                         _______ _______ _______ _____ _____    ______ ____
ROOT
ATOM      1  C   UNL     1       2.218   6.264  20.937  0.00  0.00    +0.000 C 
ENDROOT
BRANCH   1   2
ATOM      2  S   UNL     1       2.235   4.695  20.112  0.00  0.00    +0.000 S 
ATOM      3  O   UNL     1       0.952   4.510  19.458  0.00  0.00    +0.000 OA
ATOM      4  O   UNL     1       2.736   3.707  21.059  0.00  0.00    +0.000 OA
BRANCH   2  12
ATOM      5  C   UNL     1       6.814   4.866  14.701  0.00  0.00    +0.000 C 
ATOM      6  O   UNL     1       7.868   5.220  14.165  0.00  0.00    +0.000 OA
ATOM      7  N   UNL     1       6.513   5.253  15.996  0.00  0.00    +0.000 N 
ATOM      8  C   UNL     1       7.396   6.217  16.672  0.00  0.00    +0.000 C 
ATOM      9  C   UNL     1       6.884   6.390  18.102  0.00  0.00    +0.000 C 
ATOM     10  C   UNL     1       5.565   5.685  18.043  0.00  0.00    +0.000 A 
ATOM     11  C   UNL     1       4.609   5.629  19.054  0.00  0.00    +0.000 A 
ATOM     12  C   UNL     1       3.469   4.855  18.837  0.00  0.00    +0.000 A 
ATOM     13  C   UNL     1       3.325   4.108  17.656  0.00  0.00    +0.000 A 
ATOM     14  C   UNL     1       4.301   4.179  16.652  0.00  0.00    +0.000 A 
ATOM     15  C   UNL     1       5.413   4.988  16.838  0.00  0.00    +0.000 A 
BRANCH   5  17
ATOM     16  C   UNL     1       6.299   3.605  12.564  0.00  0.00    +0.000 C 
ATOM     17  C   UNL     1       5.811   4.021  13.942  0.00  0.00    +0.000 C 
ENDBRANCH   5  17
ENDBRANCH   2  12
ENDBRANCH   1   2
BRANCH   1  18
ATOM     18  C   UNL     1       1.569   7.330  20.056  0.00  0.00    +0.000 C 
BRANCH  18  19
ATOM     19  C   UNL     1       0.827   8.343  20.896  0.00  0.00    +0.000 C 
ATOM     20  O   UNL     1       0.456   8.060  22.035  0.00  0.00    +0.000 OA
ATOM     21  N   UNL     1       0.631   9.593  20.345  0.00  0.00    +0.000 N 
ATOM     22  C   UNL     1       0.062  10.654  21.175  0.00  0.00    +0.000 C 
ATOM     23  C   UNL     1       0.921  11.926  21.114  0.00  0.00    +0.000 C 
ATOM     24  N   UNL     1       1.128  12.332  19.717  0.00  0.00    +0.000 N 
ATOM     25  C   UNL     1       1.710  11.285  18.852  0.00  0.00    +0.000 C 
ATOM     26  C   UNL     1       0.871   9.990  18.948  0.00  0.00    +0.000 C 
BRANCH  24  27
ATOM     27  C   UNL     1       1.117  13.656  19.303  0.00  0.00    +0.000 A 
ATOM     28  C   UNL     1       2.317  14.197  18.779  0.00  0.00    +0.000 A 
ATOM     29  C   UNL     1       2.417  15.501  18.273  0.00  0.00    +0.000 A 
ATOM     30  C   UNL     1       3.708  16.017  17.714  0.00  0.00    +0.000 C 
ATOM     31  C   UNL     1       1.286  16.308  18.283  0.00  0.00    +0.000 A 
ATOM     32  C   UNL     1       0.089  15.816  18.797  0.00  0.00    +0.000 A 
ATOM     33  C   UNL     1      -0.012  14.507  19.317  0.00  0.00    +0.000 A 
ATOM     34  C   UNL     1      -1.349  14.126  19.902  0.00  0.00    +0.000 C 
ENDBRANCH  24  27
ENDBRANCH  18  19
ENDBRANCH   1  18
TORSDOF 6
ENDMDL
