MODEL 1
REMARK VINA RESULT:      -7.9      0.000      0.000
REMARK  Name = 
REMARK  8 active torsions:
REMARK  status: ('A' for Active; 'I' for Inactive)
REMARK    1  A    between atoms: C_1  and  C_2
REMARK    2  A    between atoms: C_2  and  O_3
REMARK    3  A    between atoms: O_3  and  C_4
REMARK    4  A    between atoms: C_6  and  C_7
REMARK    5  A    between atoms: N_8  and  N_9
REMARK    6  A    between atoms: C_10  and  C_12
REMARK    7  A    between atoms: C_19  and  O_20
REMARK    8  A    between atoms: O_20  and  C_21
REMARK                            x       y       z     vdW  Elec       q    Type
REMARK                         _______ _______ _______ _____ _____    ______ ____
ROOT
ATOM      1  C   UNL     1       2.644   5.418  20.166  0.00  0.00    +0.000 A 
ATOM      2  C   UNL     1       1.888   6.555  20.488  0.00  0.00    +0.000 A 
ATOM      3  C   UNL     1       1.919   7.681  19.659  0.00  0.00    +0.000 A 
ATOM      4  C   UNL     1       2.743   7.712  18.536  0.00  0.00    +0.000 A 
ATOM      5  C   UNL     1       3.549   6.619  18.243  0.00  0.00    +0.000 A 
ATOM      6  C   UNL     1       3.487   5.466  19.040  0.00  0.00    +0.000 A 
ENDROOT
BRANCH   3   7
ATOM      7  C   UNL     1       1.049   8.832  19.965  0.00  0.00    +0.000 C 
ATOM      8  N   UNL     1       0.753   9.124  21.190  0.00  0.00    +0.000 NA
BRANCH   8   9
ATOM      9  N   UNL     1      -0.023  10.222  21.377  0.00  0.00    +0.000 N 
ATOM     10  C   UNL     1      -0.388  10.610  22.662  0.00  0.00    +0.000 C 
ATOM     11  O   UNL     1      -0.066   9.983  23.674  0.00  0.00    +0.000 OA
ATOM     12  H   UNL     1      -0.306  10.789  20.588  0.00  0.00    +0.000 HD
BRANCH  10  13
ATOM     13  C   UNL     1      -1.190  11.826  22.736  0.00  0.00    +0.000 A 
ATOM     14  C   UNL     1      -2.473  11.936  23.240  0.00  0.00    +0.000 A 
ATOM     15  C   UNL     1      -2.982  13.264  23.169  0.00  0.00    +0.000 A 
ATOM     16  C   UNL     1      -2.069  14.132  22.613  0.00  0.00    +0.000 A 
ATOM     17  S   UNL     1      -0.615  13.346  22.183  0.00  0.00    +0.000 S 
ENDBRANCH  10  13
ENDBRANCH   8   9
ENDBRANCH   3   7
BRANCH   1  18
ATOM     18  O   UNL     1       2.603   4.255  20.896  0.00  0.00    +0.000 OA
BRANCH  18  20
ATOM     19  C   UNL     1       1.368   2.553  19.710  0.00  0.00    +0.000 C 
ATOM     20  C   UNL     1       1.352   3.551  20.853  0.00  0.00    +0.000 C 
ENDBRANCH  18  20
ENDBRANCH   1  18
BRANCH   6  21
ATOM     21  O   UNL     1       4.369   4.400  18.759  0.00  0.00    +0.000 OA
BRANCH  21  22
ATOM     22  C   UNL     1       4.445   3.986  17.424  0.00  0.00    +0.000 C 
ATOM     23  O   UNL     1       3.464   3.719  16.736  0.00  0.00    +0.000 OA
ATOM     24  N   UNL     1       5.743   3.960  16.925  0.00  0.00    +0.000 N 
ATOM     25  C   UNL     1       6.868   4.618  17.591  0.00  0.00    +0.000 C 
ATOM     26  C   UNL     1       7.168   5.959  16.903  0.00  0.00    +0.000 C 
ATOM     27  O   UNL     1       7.386   5.784  15.490  0.00  0.00    +0.000 OA
ATOM     28  C   UNL     1       6.243   5.179  14.858  0.00  0.00    +0.000 C 
ATOM     29  C   UNL     1       5.941   3.810  15.483  0.00  0.00    +0.000 C 
ENDBRANCH  21  22
ENDBRANCH   6  21
TORSDOF 7
ENDMDL
MODEL 2
REMARK VINA RESULT:      -7.9      5.342      8.180
REMARK  Name = 
REMARK  8 active torsions:
REMARK  status: ('A' for Active; 'I' for Inactive)
REMARK    1  A    between atoms: C_1  and  C_2
REMARK    2  A    between atoms: C_2  and  O_3
REMARK    3  A    between atoms: O_3  and  C_4
REMARK    4  A    between atoms: C_6  and  C_7
REMARK    5  A    between atoms: N_8  and  N_9
REMARK    6  A    between atoms: C_10  and  C_12
REMARK    7  A    between atoms: C_19  and  O_20
REMARK    8  A    between atoms: O_20  and  C_21
REMARK                            x       y       z     vdW  Elec       q    Type
REMARK                         _______ _______ _______ _____ _____    ______ ____
ROOT
ATOM      1  C   UNL     1       6.048   4.243  16.604  0.00  0.00    +0.000 A 
ATOM      2  C   UNL     1       6.956   5.236  17.003  0.00  0.00    +0.000 A 
ATOM      3  C   UNL     1       6.901   5.764  18.297  0.00  0.00    +0.000 A 
ATOM      4  C   UNL     1       5.910   5.356  19.187  0.00  0.00    +0.000 A 
ATOM      5  C   UNL     1       4.962   4.425  18.783  0.00  0.00    +0.000 A 
ATOM      6  C   UNL     1       5.040   3.852  17.505  0.00  0.00    +0.000 A 
ENDROOT
BRANCH   3   7
ATOM      7  C   UNL     1       7.920   6.740  18.726  0.00  0.00    +0.000 C 
ATOM      8  N   UNL     1       7.986   7.907  18.173  0.00  0.00    +0.000 NA
BRANCH   8   9
ATOM      9  N   UNL     1       8.931   8.752  18.658  0.00  0.00    +0.000 N 
ATOM     10  C   UNL     1       8.852  10.116  18.395  0.00  0.00    +0.000 C 
ATOM     11  O   UNL     1       7.966  10.620  17.702  0.00  0.00    +0.000 OA
ATOM     12  H   UNL     1       9.675   8.403  19.249  0.00  0.00    +0.000 HD
BRANCH  10  13
ATOM     13  C   UNL     1       9.904  10.924  19.003  0.00  0.00    +0.000 A 
ATOM     14  C   UNL     1      11.098  11.298  18.414  0.00  0.00    +0.000 A 
ATOM     15  C   UNL     1      11.913  12.088  19.273  0.00  0.00    +0.000 A 
ATOM     16  C   UNL     1      11.316  12.297  20.495  0.00  0.00    +0.000 A 
ATOM     17  S   UNL     1       9.786  11.543  20.599  0.00  0.00    +0.000 S 
ENDBRANCH  10  13
ENDBRANCH   8   9
ENDBRANCH   3   7
BRANCH   1  18
ATOM     18  O   UNL     1       6.093   3.631  15.375  0.00  0.00    +0.000 OA
BRANCH  18  20
ATOM     19  C   UNL     1       6.175   3.721  12.964  0.00  0.00    +0.000 C 
ATOM     20  C   UNL     1       6.023   4.517  14.248  0.00  0.00    +0.000 C 
ENDBRANCH  18  20
ENDBRANCH   1  18
BRANCH   6  21
ATOM     21  O   UNL     1       4.021   2.962  17.098  0.00  0.00    +0.000 OA
BRANCH  21  22
ATOM     22  C   UNL     1       3.438   2.180  18.100  0.00  0.00    +0.000 C 
ATOM     23  O   UNL     1       4.030   1.287  18.702  0.00  0.00    +0.000 OA
ATOM     24  N   UNL     1       2.130   2.546  18.397  0.00  0.00    +0.000 N 
ATOM     25  C   UNL     1       1.540   3.815  17.973  0.00  0.00    +0.000 C 
ATOM     26  C   UNL     1       1.550   4.811  19.142  0.00  0.00    +0.000 C 
ATOM     27  O   UNL     1       0.901   4.261  20.304  0.00  0.00    +0.000 OA
ATOM     28  C   UNL     1       1.535   3.039  20.724  0.00  0.00    +0.000 C 
ATOM     29  C   UNL     1       1.499   1.996  19.599  0.00  0.00    +0.000 C 
ENDBRANCH  21  22
ENDBRANCH   6  21
TORSDOF 7
ENDMDL
MODEL 3
REMARK VINA RESULT:      -7.8      5.017      8.024
REMARK  Name = 
REMARK  8 active torsions:
REMARK  status: ('A' for Active; 'I' for Inactive)
REMARK    1  A    between atoms: C_1  and  C_2
REMARK    2  A    between atoms: C_2  and  O_3
REMARK    3  A    between atoms: O_3  and  C_4
REMARK    4  A    between atoms: C_6  and  C_7
REMARK    5  A    between atoms: N_8  and  N_9
REMARK    6  A    between atoms: C_10  and  C_12
REMARK    7  A    between atoms: C_19  and  O_20
REMARK    8  A    between atoms: O_20  and  C_21
REMARK                            x       y       z     vdW  Elec       q    Type
REMARK                         _______ _______ _______ _____ _____    ______ ____
ROOT
ATOM      1  C   UNL     1       4.832   6.021  17.509  0.00  0.00    +0.000 A 
ATOM      2  C   UNL     1       5.630   7.175  17.507  0.00  0.00    +0.000 A 
ATOM      3  C   UNL     1       7.024   7.068  17.495  0.00  0.00    +0.000 A 
ATOM      4  C   UNL     1       7.640   5.819  17.545  0.00  0.00    +0.000 A 
ATOM      5  C   UNL     1       6.863   4.671  17.618  0.00  0.00    +0.000 A 
ATOM      6  C   UNL     1       5.464   4.765  17.579  0.00  0.00    +0.000 A 
ENDROOT
BRANCH   3   7
ATOM      7  C   UNL     1       7.845   8.290  17.401  0.00  0.00    +0.000 C 
ATOM      8  N   UNL     1       8.338   8.834  18.465  0.00  0.00    +0.000 NA
BRANCH   8   9
ATOM      9  N   UNL     1       9.111   9.935  18.278  0.00  0.00    +0.000 N 
ATOM     10  C   UNL     1       9.519  10.696  19.367  0.00  0.00    +0.000 C 
ATOM     11  O   UNL     1       9.190  10.445  20.529  0.00  0.00    +0.000 OA
ATOM     12  H   UNL     1       9.429  10.184  17.350  0.00  0.00    +0.000 HD
BRANCH  10  13
ATOM     13  C   UNL     1      10.378  11.830  19.041  0.00  0.00    +0.000 A 
ATOM     14  C   UNL     1      11.757  11.871  19.134  0.00  0.00    +0.000 A 
ATOM     15  C   UNL     1      12.299  13.127  18.742  0.00  0.00    +0.000 A 
ATOM     16  C   UNL     1      11.316  14.011  18.357  0.00  0.00    +0.000 A 
ATOM     17  S   UNL     1       9.756  13.325  18.471  0.00  0.00    +0.000 S 
ENDBRANCH  10  13
ENDBRANCH   8   9
ENDBRANCH   3   7
BRANCH   1  18
ATOM     18  O   UNL     1       3.460   6.054  17.447  0.00  0.00    +0.000 OA
BRANCH  18  20
ATOM     19  C   UNL     1       2.512   6.710  19.568  0.00  0.00    +0.000 C 
ATOM     20  C   UNL     1       2.842   7.142  18.150  0.00  0.00    +0.000 C 
ENDBRANCH  18  20
ENDBRANCH   1  18
BRANCH   6  21
ATOM     21  O   UNL     1       4.701   3.586  17.726  0.00  0.00    +0.000 OA
BRANCH  21  22
ATOM     22  C   UNL     1       4.411   3.188  19.035  0.00  0.00    +0.000 C 
ATOM     23  O   UNL     1       5.128   3.441  20.000  0.00  0.00    +0.000 OA
ATOM     24  N   UNL     1       3.195   2.524  19.156  0.00  0.00    +0.000 N 
ATOM     25  C   UNL     1       2.169   2.539  18.113  0.00  0.00    +0.000 C 
ATOM     26  C   UNL     1       1.075   3.555  18.474  0.00  0.00    +0.000 C 
ATOM     27  O   UNL     1       0.531   3.295  19.782  0.00  0.00    +0.000 OA
ATOM     28  C   UNL     1       1.557   3.334  20.790  0.00  0.00    +0.000 C 
ATOM     29  C   UNL     1       2.647   2.294  20.494  0.00  0.00    +0.000 C 
ENDBRANCH  21  22
ENDBRANCH   6  21
TORSDOF 7
ENDMDL
MODEL 4
REMARK VINA RESULT:      -7.7      0.864      1.035
REMARK  Name = 
REMARK  8 active torsions:
REMARK  status: ('A' for Active; 'I' for Inactive)
REMARK    1  A    between atoms: C_1  and  C_2
REMARK    2  A    between atoms: C_2  and  O_3
REMARK    3  A    between atoms: O_3  and  C_4
REMARK    4  A    between atoms: C_6  and  C_7
REMARK    5  A    between atoms: N_8  and  N_9
REMARK    6  A    between atoms: C_10  and  C_12
REMARK    7  A    between atoms: C_19  and  O_20
REMARK    8  A    between atoms: O_20  and  C_21
REMARK                            x       y       z     vdW  Elec       q    Type
REMARK                         _______ _______ _______ _____ _____    ______ ____
ROOT
ATOM      1  C   UNL     1       2.603   5.840  20.022  0.00  0.00    +0.000 A 
ATOM      2  C   UNL     1       1.913   7.048  20.201  0.00  0.00    +0.000 A 
ATOM      3  C   UNL     1       1.988   8.054  19.232  0.00  0.00    +0.000 A 
ATOM      4  C   UNL     1       2.792   7.895  18.106  0.00  0.00    +0.000 A 
ATOM      5  C   UNL     1       3.535   6.732  17.949  0.00  0.00    +0.000 A 
ATOM      6  C   UNL     1       3.427   5.697  18.889  0.00  0.00    +0.000 A 
ENDROOT
BRANCH   3   7
ATOM      7  C   UNL     1       1.184   9.280  19.396  0.00  0.00    +0.000 C 
ATOM      8  N   UNL     1       0.588   9.531  20.516  0.00  0.00    +0.000 NA
BRANCH   8   9
ATOM      9  N   UNL     1      -0.098  10.700  20.586  0.00  0.00    +0.000 N 
ATOM     10  C   UNL     1      -0.363  11.283  21.820  0.00  0.00    +0.000 C 
ATOM     11  O   UNL     1      -0.030  10.774  22.893  0.00  0.00    +0.000 OA
ATOM     12  H   UNL     1      -0.384  11.177  19.740  0.00  0.00    +0.000 HD
BRANCH  10  13
ATOM     13  C   UNL     1      -1.072  12.556  21.762  0.00  0.00    +0.000 A 
ATOM     14  C   UNL     1      -1.526  13.194  20.622  0.00  0.00    +0.000 A 
ATOM     15  C   UNL     1      -2.181  14.426  20.903  0.00  0.00    +0.000 A 
ATOM     16  C   UNL     1      -2.212  14.693  22.253  0.00  0.00    +0.000 A 
ATOM     17  S   UNL     1      -1.455  13.465  23.167  0.00  0.00    +0.000 S 
ENDBRANCH  10  13
ENDBRANCH   8   9
ENDBRANCH   3   7
BRANCH   1  18
ATOM     18  O   UNL     1       2.514   4.785  20.897  0.00  0.00    +0.000 OA
BRANCH  18  20
ATOM     19  C   UNL     1       1.508   2.702  21.589  0.00  0.00    +0.000 C 
ATOM     20  C   UNL     1       1.368   3.938  20.719  0.00  0.00    +0.000 C 
ENDBRANCH  18  20
ENDBRANCH   1  18
BRANCH   6  21
ATOM     21  O   UNL     1       4.248   4.557  18.740  0.00  0.00    +0.000 OA
BRANCH  21  22
ATOM     22  C   UNL     1       4.382   4.049  17.443  0.00  0.00    +0.000 C 
ATOM     23  O   UNL     1       3.433   3.705  16.744  0.00  0.00    +0.000 OA
ATOM     24  N   UNL     1       5.697   4.022  16.993  0.00  0.00    +0.000 N 
ATOM     25  C   UNL     1       6.780   4.758  17.645  0.00  0.00    +0.000 C 
ATOM     26  C   UNL     1       7.071   6.052  16.870  0.00  0.00    +0.000 C 
ATOM     27  O   UNL     1       7.345   5.780  15.483  0.00  0.00    +0.000 OA
ATOM     28  C   UNL     1       6.241   5.099  14.859  0.00  0.00    +0.000 C 
ATOM     29  C   UNL     1       5.951   3.772  15.573  0.00  0.00    +0.000 C 
ENDBRANCH  21  22
ENDBRANCH   6  21
TORSDOF 7
ENDMDL
MODEL 5
REMARK VINA RESULT:      -7.7      1.332      1.897
REMARK  Name = 
REMARK  8 active torsions:
REMARK  status: ('A' for Active; 'I' for Inactive)
REMARK    1  A    between atoms: C_1  and  C_2
REMARK    2  A    between atoms: C_2  and  O_3
REMARK    3  A    between atoms: O_3  and  C_4
REMARK    4  A    between atoms: C_6  and  C_7
REMARK    5  A    between atoms: N_8  and  N_9
REMARK    6  A    between atoms: C_10  and  C_12
REMARK    7  A    between atoms: C_19  and  O_20
REMARK    8  A    between atoms: O_20  and  C_21
REMARK                            x       y       z     vdW  Elec       q    Type
REMARK                         _______ _______ _______ _____ _____    ______ ____
ROOT
ATOM      1  C   UNL     1       2.241   6.650  19.804  0.00  0.00    +0.000 A 
ATOM      2  C   UNL     1       1.601   7.791  20.311  0.00  0.00    +0.000 A 
ATOM      3  C   UNL     1       1.428   8.921  19.505  0.00  0.00    +0.000 A 
ATOM      4  C   UNL     1       1.939   8.951  18.209  0.00  0.00    +0.000 A 
ATOM      5  C   UNL     1       2.635   7.855  17.717  0.00  0.00    +0.000 A 
ATOM      6  C   UNL     1       2.769   6.699  18.500  0.00  0.00    +0.000 A 
ENDROOT
BRANCH   3   7
ATOM      7  C   UNL     1       0.674  10.076  20.026  0.00  0.00    +0.000 C 
ATOM      8  N   UNL     1      -0.219   9.916  20.948  0.00  0.00    +0.000 NA
BRANCH   8   9
ATOM      9  N   UNL     1      -0.836  11.041  21.392  0.00  0.00    +0.000 N 
ATOM     10  C   UNL     1      -1.058  11.226  22.753  0.00  0.00    +0.000 C 
ATOM     11  O   UNL     1      -0.746  10.393  23.608  0.00  0.00    +0.000 OA
ATOM     12  H   UNL     1      -1.101  11.770  20.742  0.00  0.00    +0.000 HD
BRANCH  10  13
ATOM     13  C   UNL     1      -1.693  12.490  23.108  0.00  0.00    +0.000 A 
ATOM     14  C   UNL     1      -1.083  13.730  23.166  0.00  0.00    +0.000 A 
ATOM     15  C   UNL     1      -1.978  14.768  23.548  0.00  0.00    +0.000 A 
ATOM     16  C   UNL     1      -3.250  14.291  23.768  0.00  0.00    +0.000 A 
ATOM     17  S   UNL     1      -3.356  12.605  23.517  0.00  0.00    +0.000 S 
ENDBRANCH  10  13
ENDBRANCH   8   9
ENDBRANCH   3   7
BRANCH   1  18
ATOM     18  O   UNL     1       2.378   5.484  20.516  0.00  0.00    +0.000 OA
BRANCH  18  20
ATOM     19  C   UNL     1       1.585   3.293  21.149  0.00  0.00    +0.000 C 
ATOM     20  C   UNL     1       1.232   4.618  20.497  0.00  0.00    +0.000 C 
ENDBRANCH  18  20
ENDBRANCH   1  18
BRANCH   6  21
ATOM     21  O   UNL     1       3.542   5.627  18.000  0.00  0.00    +0.000 OA
BRANCH  21  22
ATOM     22  C   UNL     1       4.913   5.662  18.280  0.00  0.00    +0.000 C 
ATOM     23  O   UNL     1       5.394   5.373  19.372  0.00  0.00    +0.000 OA
ATOM     24  N   UNL     1       5.694   6.002  17.180  0.00  0.00    +0.000 N 
ATOM     25  C   UNL     1       5.190   5.985  15.807  0.00  0.00    +0.000 C 
ATOM     26  C   UNL     1       5.649   4.700  15.100  0.00  0.00    +0.000 C 
ATOM     27  O   UNL     1       7.080   4.550  15.167  0.00  0.00    +0.000 OA
ATOM     28  C   UNL     1       7.537   4.522  16.532  0.00  0.00    +0.000 C 
ATOM     29  C   UNL     1       7.143   5.815  17.260  0.00  0.00    +0.000 C 
ENDBRANCH  21  22
ENDBRANCH   6  21
TORSDOF 7
ENDMDL
MODEL 6
REMARK VINA RESULT:      -7.4      5.273      8.202
REMARK  Name = 
REMARK  8 active torsions:
REMARK  status: ('A' for Active; 'I' for Inactive)
REMARK    1  A    between atoms: C_1  and  C_2
REMARK    2  A    between atoms: C_2  and  O_3
REMARK    3  A    between atoms: O_3  and  C_4
REMARK    4  A    between atoms: C_6  and  C_7
REMARK    5  A    between atoms: N_8  and  N_9
REMARK    6  A    between atoms: C_10  and  C_12
REMARK    7  A    between atoms: C_19  and  O_20
REMARK    8  A    between atoms: O_20  and  C_21
REMARK                            x       y       z     vdW  Elec       q    Type
REMARK                         _______ _______ _______ _____ _____    ______ ____
ROOT
ATOM      1  C   UNL     1       6.126   4.627  16.567  0.00  0.00    +0.000 A 
ATOM      2  C   UNL     1       6.783   5.859  16.428  0.00  0.00    +0.000 A 
ATOM      3  C   UNL     1       6.849   6.749  17.505  0.00  0.00    +0.000 A 
ATOM      4  C   UNL     1       6.215   6.451  18.710  0.00  0.00    +0.000 A 
ATOM      5  C   UNL     1       5.503   5.266  18.839  0.00  0.00    +0.000 A 
ATOM      6  C   UNL     1       5.474   4.345  17.782  0.00  0.00    +0.000 A 
ENDROOT
BRANCH   3   7
ATOM      7  C   UNL     1       7.620   7.998  17.368  0.00  0.00    +0.000 C 
ATOM      8  N   UNL     1       8.308   8.458  18.362  0.00  0.00    +0.000 NA
BRANCH   8   9
ATOM      9  N   UNL     1       9.016   9.594  18.131  0.00  0.00    +0.000 N 
ATOM     10  C   UNL     1       9.366  10.427  19.188  0.00  0.00    +0.000 C 
ATOM     11  O   UNL     1       9.038  10.209  20.357  0.00  0.00    +0.000 OA
ATOM     12  H   UNL     1       9.330   9.820  17.196  0.00  0.00    +0.000 HD
BRANCH  10  13
ATOM     13  C   UNL     1      10.159  11.594  18.819  0.00  0.00    +0.000 A 
ATOM     14  C   UNL     1      11.532  11.721  18.921  0.00  0.00    +0.000 A 
ATOM     15  C   UNL     1      12.003  12.989  18.477  0.00  0.00    +0.000 A 
ATOM     16  C   UNL     1      10.974  13.795  18.046  0.00  0.00    +0.000 A 
ATOM     17  S   UNL     1       9.456  13.022  18.178  0.00  0.00    +0.000 S 
ENDBRANCH  10  13
ENDBRANCH   8   9
ENDBRANCH   3   7
BRANCH   1  18
ATOM     18  O   UNL     1       6.088   3.678  15.575  0.00  0.00    +0.000 OA
BRANCH  18  20
ATOM     19  C   UNL     1       6.314   3.712  13.171  0.00  0.00    +0.000 C 
ATOM     20  C   UNL     1       5.447   4.091  14.358  0.00  0.00    +0.000 C 
ENDBRANCH  18  20
ENDBRANCH   1  18
BRANCH   6  21
ATOM     21  O   UNL     1       4.684   3.182  17.918  0.00  0.00    +0.000 OA
BRANCH  21  22
ATOM     22  C   UNL     1       4.357   2.797  19.222  0.00  0.00    +0.000 C 
ATOM     23  O   UNL     1       5.190   2.499  20.075  0.00  0.00    +0.000 OA
ATOM     24  N   UNL     1       2.993   2.837  19.487  0.00  0.00    +0.000 N 
ATOM     25  C   UNL     1       2.033   3.532  18.628  0.00  0.00    +0.000 C 
ATOM     26  C   UNL     1       1.681   4.897  19.239  0.00  0.00    +0.000 C 
ATOM     27  O   UNL     1       1.211   4.758  20.593  0.00  0.00    +0.000 OA
ATOM     28  C   UNL     1       2.197   4.115  21.422  0.00  0.00    +0.000 C 
ATOM     29  C   UNL     1       2.539   2.722  20.874  0.00  0.00    +0.000 C 
ENDBRANCH  21  22
ENDBRANCH   6  21
TORSDOF 7
ENDMDL
MODEL 7
REMARK VINA RESULT:      -7.2      1.737      1.774
REMARK  Name = 
REMARK  8 active torsions:
REMARK  status: ('A' for Active; 'I' for Inactive)
REMARK    1  A    between atoms: C_1  and  C_2
REMARK    2  A    between atoms: C_2  and  O_3
REMARK    3  A    between atoms: O_3  and  C_4
REMARK    4  A    between atoms: C_6  and  C_7
REMARK    5  A    between atoms: N_8  and  N_9
REMARK    6  A    between atoms: C_10  and  C_12
REMARK    7  A    between atoms: C_19  and  O_20
REMARK    8  A    between atoms: O_20  and  C_21
REMARK                            x       y       z     vdW  Elec       q    Type
REMARK                         _______ _______ _______ _____ _____    ______ ____
ROOT
ATOM      1  C   UNL     1       2.711   5.036  20.253  0.00  0.00    +0.000 A 
ATOM      2  C   UNL     1       1.967   6.147  20.677  0.00  0.00    +0.000 A 
ATOM      3  C   UNL     1       1.998   7.338  19.946  0.00  0.00    +0.000 A 
ATOM      4  C   UNL     1       2.811   7.458  18.821  0.00  0.00    +0.000 A 
ATOM      5  C   UNL     1       3.606   6.388  18.429  0.00  0.00    +0.000 A 
ATOM      6  C   UNL     1       3.543   5.173  19.126  0.00  0.00    +0.000 A 
ENDROOT
BRANCH   3   7
ATOM      7  C   UNL     1       1.140   8.465  20.356  0.00  0.00    +0.000 C 
ATOM      8  N   UNL     1       0.939   9.463  19.559  0.00  0.00    +0.000 NA
BRANCH   8   9
ATOM      9  N   UNL     1       0.105  10.436  20.007  0.00  0.00    +0.000 N 
ATOM     10  C   UNL     1      -0.928  10.899  19.200  0.00  0.00    +0.000 C 
ATOM     11  O   UNL     1      -1.124  10.490  18.052  0.00  0.00    +0.000 OA
ATOM     12  H   UNL     1       0.202  10.801  20.946  0.00  0.00    +0.000 HD
BRANCH  10  13
ATOM     13  C   UNL     1      -1.779  11.917  19.808  0.00  0.00    +0.000 A 
ATOM     14  C   UNL     1      -3.126  12.114  19.565  0.00  0.00    +0.000 A 
ATOM     15  C   UNL     1      -3.669  13.193  20.318  0.00  0.00    +0.000 A 
ATOM     16  C   UNL     1      -2.720  13.788  21.117  0.00  0.00    +0.000 A 
ATOM     17  S   UNL     1      -1.189  13.048  20.955  0.00  0.00    +0.000 S 
ENDBRANCH  10  13
ENDBRANCH   8   9
ENDBRANCH   3   7
BRANCH   1  18
ATOM     18  O   UNL     1       2.667   3.816  20.883  0.00  0.00    +0.000 OA
BRANCH  18  20
ATOM     19  C   UNL     1       1.115   2.526  19.557  0.00  0.00    +0.000 C 
ATOM     20  C   UNL     1       1.379   3.182  20.901  0.00  0.00    +0.000 C 
ENDBRANCH  18  20
ENDBRANCH   1  18
BRANCH   6  21
ATOM     21  O   UNL     1       4.414   4.128  18.748  0.00  0.00    +0.000 OA
BRANCH  21  22
ATOM     22  C   UNL     1       4.455   3.811  17.386  0.00  0.00    +0.000 C 
ATOM     23  O   UNL     1       3.457   3.571  16.711  0.00  0.00    +0.000 OA
ATOM     24  N   UNL     1       5.736   3.848  16.846  0.00  0.00    +0.000 N 
ATOM     25  C   UNL     1       6.869   4.482  17.522  0.00  0.00    +0.000 C 
ATOM     26  C   UNL     1       7.120   5.873  16.921  0.00  0.00    +0.000 C 
ATOM     27  O   UNL     1       7.296   5.802  15.493  0.00  0.00    +0.000 OA
ATOM     28  C   UNL     1       6.146   5.219  14.856  0.00  0.00    +0.000 C 
ATOM     29  C   UNL     1       5.890   3.803  15.391  0.00  0.00    +0.000 C 
ENDBRANCH  21  22
ENDBRANCH   6  21
TORSDOF 7
ENDMDL
MODEL 8
REMARK VINA RESULT:      -7.2      1.270      1.655
REMARK  Name = 
REMARK  8 active torsions:
REMARK  status: ('A' for Active; 'I' for Inactive)
REMARK    1  A    between atoms: C_1  and  C_2
REMARK    2  A    between atoms: C_2  and  O_3
REMARK    3  A    between atoms: O_3  and  C_4
REMARK    4  A    between atoms: C_6  and  C_7
REMARK    5  A    between atoms: N_8  and  N_9
REMARK    6  A    between atoms: C_10  and  C_12
REMARK    7  A    between atoms: C_19  and  O_20
REMARK    8  A    between atoms: O_20  and  C_21
REMARK                            x       y       z     vdW  Elec       q    Type
REMARK                         _______ _______ _______ _____ _____    ______ ____
ROOT
ATOM      1  C   UNL     1       2.138   5.508  19.871  0.00  0.00    +0.000 A 
ATOM      2  C   UNL     1       1.456   6.445  20.663  0.00  0.00    +0.000 A 
ATOM      3  C   UNL     1       1.393   7.786  20.272  0.00  0.00    +0.000 A 
ATOM      4  C   UNL     1       2.054   8.222  19.126  0.00  0.00    +0.000 A 
ATOM      5  C   UNL     1       2.791   7.320  18.370  0.00  0.00    +0.000 A 
ATOM      6  C   UNL     1       2.818   5.963  18.725  0.00  0.00    +0.000 A 
ENDROOT
BRANCH   3   7
ATOM      7  C   UNL     1       0.595   8.737  21.069  0.00  0.00    +0.000 C 
ATOM      8  N   UNL     1       0.054   9.770  20.510  0.00  0.00    +0.000 NA
BRANCH   8   9
ATOM      9  N   UNL     1      -0.693  10.569  21.315  0.00  0.00    +0.000 N 
ATOM     10  C   UNL     1      -0.198  11.798  21.735  0.00  0.00    +0.000 C 
ATOM     11  O   UNL     1       0.926  12.211  21.438  0.00  0.00    +0.000 OA
ATOM     12  H   UNL     1      -1.631  10.295  21.580  0.00  0.00    +0.000 HD
BRANCH  10  13
ATOM     13  C   UNL     1      -1.109  12.581  22.563  0.00  0.00    +0.000 A 
ATOM     14  C   UNL     1      -2.280  12.133  23.146  0.00  0.00    +0.000 A 
ATOM     15  C   UNL     1      -2.945  13.145  23.895  0.00  0.00    +0.000 A 
ATOM     16  C   UNL     1      -2.259  14.338  23.864  0.00  0.00    +0.000 A 
ATOM     17  S   UNL     1      -0.828  14.232  22.937  0.00  0.00    +0.000 S 
ENDBRANCH  10  13
ENDBRANCH   8   9
ENDBRANCH   3   7
BRANCH   1  18
ATOM     18  O   UNL     1       2.176   4.165  20.158  0.00  0.00    +0.000 OA
BRANCH  18  20
ATOM     19  C   UNL     1       1.523   2.518  21.797  0.00  0.00    +0.000 C 
ATOM     20  C   UNL     1       2.229   3.840  21.555  0.00  0.00    +0.000 C 
ENDBRANCH  18  20
ENDBRANCH   1  18
BRANCH   6  21
ATOM     21  O   UNL     1       3.633   5.083  17.979  0.00  0.00    +0.000 OA
BRANCH  21  22
ATOM     22  C   UNL     1       4.981   5.017  18.346  0.00  0.00    +0.000 C 
ATOM     23  O   UNL     1       5.394   4.390  19.319  0.00  0.00    +0.000 OA
ATOM     24  N   UNL     1       5.827   5.686  17.469  0.00  0.00    +0.000 N 
ATOM     25  C   UNL     1       5.415   6.113  16.131  0.00  0.00    +0.000 C 
ATOM     26  C   UNL     1       5.939   5.119  15.083  0.00  0.00    +0.000 C 
ATOM     27  O   UNL     1       7.364   4.946  15.194  0.00  0.00    +0.000 OA
ATOM     28  C   UNL     1       7.732   4.480  16.505  0.00  0.00    +0.000 C 
ATOM     29  C   UNL     1       7.271   5.473  17.581  0.00  0.00    +0.000 C 
ENDBRANCH  21  22
ENDBRANCH   6  21
TORSDOF 7
ENDMDL
MODEL 9
REMARK VINA RESULT:      -7.2      5.901      8.315
REMARK  Name = 
REMARK  8 active torsions:
REMARK  status: ('A' for Active; 'I' for Inactive)
REMARK    1  A    between atoms: C_1  and  C_2
REMARK    2  A    between atoms: C_2  and  O_3
REMARK    3  A    between atoms: O_3  and  C_4
REMARK    4  A    between atoms: C_6  and  C_7
REMARK    5  A    between atoms: N_8  and  N_9
REMARK    6  A    between atoms: C_10  and  C_12
REMARK    7  A    between atoms: C_19  and  O_20
REMARK    8  A    between atoms: O_20  and  C_21
REMARK                            x       y       z     vdW  Elec       q    Type
REMARK                         _______ _______ _______ _____ _____    ______ ____
ROOT
ATOM      1  C   UNL     1       6.504   6.254  16.715  0.00  0.00    +0.000 A 
ATOM      2  C   UNL     1       7.326   7.357  16.994  0.00  0.00    +0.000 A 
ATOM      3  C   UNL     1       7.924   7.491  18.251  0.00  0.00    +0.000 A 
ATOM      4  C   UNL     1       7.667   6.566  19.261  0.00  0.00    +0.000 A 
ATOM      5  C   UNL     1       6.800   5.507  19.020  0.00  0.00    +0.000 A 
ATOM      6  C   UNL     1       6.236   5.336  17.748  0.00  0.00    +0.000 A 
ENDROOT
BRANCH   3   7
ATOM      7  C   UNL     1       8.856   8.607  18.495  0.00  0.00    +0.000 C 
ATOM      8  N   UNL     1       8.588   9.795  18.059  0.00  0.00    +0.000 NA
BRANCH   8   9
ATOM      9  N   UNL     1       9.486  10.767  18.364  0.00  0.00    +0.000 N 
ATOM     10  C   UNL     1       9.242  12.085  17.994  0.00  0.00    +0.000 C 
ATOM     11  O   UNL     1       8.244  12.436  17.360  0.00  0.00    +0.000 OA
ATOM     12  H   UNL     1      10.317  10.546  18.898  0.00  0.00    +0.000 HD
BRANCH  10  13
ATOM     13  C   UNL     1      10.261  13.042  18.412  0.00  0.00    +0.000 A 
ATOM     14  C   UNL     1      10.715  13.250  19.702  0.00  0.00    +0.000 A 
ATOM     15  C   UNL     1      11.716  14.258  19.779  0.00  0.00    +0.000 A 
ATOM     16  C   UNL     1      12.002  14.790  18.542  0.00  0.00    +0.000 A 
ATOM     17  S   UNL     1      11.066  14.076  17.304  0.00  0.00    +0.000 S 
ENDBRANCH  10  13
ENDBRANCH   8   9
ENDBRANCH   3   7
BRANCH   1  18
ATOM     18  O   UNL     1       5.946   6.024  15.481  0.00  0.00    +0.000 OA
BRANCH  18  20
ATOM     19  C   UNL     1       5.762   4.073  14.071  0.00  0.00    +0.000 C 
ATOM     20  C   UNL     1       6.689   5.138  14.631  0.00  0.00    +0.000 C 
ENDBRANCH  18  20
ENDBRANCH   1  18
BRANCH   6  21
ATOM     21  O   UNL     1       5.304   4.292  17.555  0.00  0.00    +0.000 OA
BRANCH  21  22
ATOM     22  C   UNL     1       3.979   4.562  17.915  0.00  0.00    +0.000 C 
ATOM     23  O   UNL     1       3.278   5.402  17.357  0.00  0.00    +0.000 OA
ATOM     24  N   UNL     1       3.505   3.746  18.935  0.00  0.00    +0.000 N 
ATOM     25  C   UNL     1       4.179   2.515  19.351  0.00  0.00    +0.000 C 
ATOM     26  C   UNL     1       3.471   1.300  18.733  0.00  0.00    +0.000 C 
ATOM     27  O   UNL     1       2.066   1.296  19.050  0.00  0.00    +0.000 OA
ATOM     28  C   UNL     1       1.424   2.497  18.585  0.00  0.00    +0.000 C 
ATOM     29  C   UNL     1       2.070   3.736  19.222  0.00  0.00    +0.000 C 
ENDBRANCH  21  22
ENDBRANCH   6  21
TORSDOF 7
ENDMDL
