MODEL 1
REMARK VINA RESULT:      -6.4      0.000      0.000
REMARK  Name = 
REMARK  7 active torsions:
REMARK  status: ('A' for Active; 'I' for Inactive)
REMARK    1  A    between atoms: C_1  and  C_2
REMARK    2  A    between atoms: C_4  and  C_5
REMARK    3  A    between atoms: C_4  and  C_6
REMARK    4  A    between atoms: N_10  and  C_11
REMARK    5  A    between atoms: C_11  and  C_12
REMARK    6  A    between atoms: C_12  and  C_13
REMARK    7  A    between atoms: C_13  and  N_14
REMARK                            x       y       z     vdW  Elec       q    Type
REMARK                         _______ _______ _______ _____ _____    ______ ____
ROOT
ATOM      1  C   UNL     1       5.958   3.503  15.465  0.00  0.00    +0.000 C 
ATOM      2  C   UNL     1       5.904   4.406  16.672  0.00  0.00    +0.000 C 
ATOM      3  C   UNL     1       7.021   5.058  17.036  0.00  0.00    +0.000 C 
ATOM      4  C   UNL     1       7.098   6.034  18.162  0.00  0.00    +0.000 C 
ATOM      5  C   UNL     1       7.380   7.434  17.603  0.00  0.00    +0.000 C 
ATOM      6  C   UNL     1       8.195   5.611  19.145  0.00  0.00    +0.000 C 
ATOM      7  N   UNL     1       5.834   6.049  18.868  0.00  0.00    +0.000 N 
ATOM      8  C   UNL     1       4.659   5.482  18.475  0.00  0.00    +0.000 C 
ATOM      9  S   UNL     1       3.325   5.908  19.395  0.00  0.00    +0.000 S 
ATOM     10  N   UNL     1       4.707   4.606  17.381  0.00  0.00    +0.000 N 
ATOM     11  H   UNL     1       5.750   6.682  19.655  0.00  0.00    +0.000 HD
ENDROOT
BRANCH  10  12
ATOM     12  C   UNL     1       3.479   3.905  16.930  0.00  0.00    +0.000 C 
BRANCH  12  13
ATOM     13  C   UNL     1       3.245   2.530  17.569  0.00  0.00    +0.000 C 
BRANCH  13  14
ATOM     14  C   UNL     1       1.889   2.332  18.248  0.00  0.00    +0.000 C 
BRANCH  14  15
ATOM     15  N   UNL     1       2.000   2.543  19.684  0.00  0.00    +0.000 N 
ATOM     16  C   UNL     1       1.021   2.996  20.524  0.00  0.00    +0.000 A 
ATOM     17  C   UNL     1       1.594   2.983  21.776  0.00  0.00    +0.000 A 
ATOM     18  N   UNL     1       2.888   2.536  21.713  0.00  0.00    +0.000 NA
ATOM     19  C   UNL     1       3.107   2.282  20.440  0.00  0.00    +0.000 A 
ENDBRANCH  14  15
ENDBRANCH  13  14
ENDBRANCH  12  13
ENDBRANCH  10  12
TORSDOF 4
ENDMDL
MODEL 2
REMARK VINA RESULT:      -6.0      0.689      1.010
REMARK  Name = 
REMARK  7 active torsions:
REMARK  status: ('A' for Active; 'I' for Inactive)
REMARK    1  A    between atoms: C_1  and  C_2
REMARK    2  A    between atoms: C_4  and  C_5
REMARK    3  A    between atoms: C_4  and  C_6
REMARK    4  A    between atoms: N_10  and  C_11
REMARK    5  A    between atoms: C_11  and  C_12
REMARK    6  A    between atoms: C_12  and  C_13
REMARK    7  A    between atoms: C_13  and  N_14
REMARK                            x       y       z     vdW  Elec       q    Type
REMARK                         _______ _______ _______ _____ _____    ______ ____
ROOT
ATOM      1  C   UNL     1       5.920   3.530  15.405  0.00  0.00    +0.000 C 
ATOM      2  C   UNL     1       5.879   4.424  16.619  0.00  0.00    +0.000 C 
ATOM      3  C   UNL     1       7.011   5.037  17.004  0.00  0.00    +0.000 C 
ATOM      4  C   UNL     1       7.104   6.000  18.139  0.00  0.00    +0.000 C 
ATOM      5  C   UNL     1       7.439   7.396  17.596  0.00  0.00    +0.000 C 
ATOM      6  C   UNL     1       8.173   5.534  19.133  0.00  0.00    +0.000 C 
ATOM      7  N   UNL     1       5.832   6.051  18.828  0.00  0.00    +0.000 N 
ATOM      8  C   UNL     1       4.645   5.525  18.414  0.00  0.00    +0.000 C 
ATOM      9  S   UNL     1       3.313   5.987  19.320  0.00  0.00    +0.000 S 
ATOM     10  N   UNL     1       4.680   4.657  17.313  0.00  0.00    +0.000 N 
ATOM     11  H   UNL     1       5.757   6.680  19.619  0.00  0.00    +0.000 HD
ENDROOT
BRANCH  10  12
ATOM     12  C   UNL     1       3.436   4.000  16.840  0.00  0.00    +0.000 C 
BRANCH  12  13
ATOM     13  C   UNL     1       3.236   2.560  17.331  0.00  0.00    +0.000 C 
BRANCH  13  14
ATOM     14  C   UNL     1       3.806   2.242  18.714  0.00  0.00    +0.000 C 
BRANCH  14  15
ATOM     15  N   UNL     1       2.812   2.496  19.748  0.00  0.00    +0.000 N 
ATOM     16  C   UNL     1       3.045   2.666  21.083  0.00  0.00    +0.000 A 
ATOM     17  C   UNL     1       1.806   2.917  21.630  0.00  0.00    +0.000 A 
ATOM     18  N   UNL     1       0.836   2.902  20.662  0.00  0.00    +0.000 NA
ATOM     19  C   UNL     1       1.470   2.642  19.539  0.00  0.00    +0.000 A 
ENDBRANCH  14  15
ENDBRANCH  13  14
ENDBRANCH  12  13
ENDBRANCH  10  12
TORSDOF 4
ENDMDL
MODEL 3
REMARK VINA RESULT:      -5.8      1.878      2.904
REMARK  Name = 
REMARK  7 active torsions:
REMARK  status: ('A' for Active; 'I' for Inactive)
REMARK    1  A    between atoms: C_1  and  C_2
REMARK    2  A    between atoms: C_4  and  C_5
REMARK    3  A    between atoms: C_4  and  C_6
REMARK    4  A    between atoms: N_10  and  C_11
REMARK    5  A    between atoms: C_11  and  C_12
REMARK    6  A    between atoms: C_12  and  C_13
REMARK    7  A    between atoms: C_13  and  N_14
REMARK                            x       y       z     vdW  Elec       q    Type
REMARK                         _______ _______ _______ _____ _____    ______ ____
ROOT
ATOM      1  C   UNL     1       4.275   7.812  17.133  0.00  0.00    +0.000 C 
ATOM      2  C   UNL     1       4.653   6.360  16.978  0.00  0.00    +0.000 C 
ATOM      3  C   UNL     1       5.833   6.062  16.409  0.00  0.00    +0.000 C 
ATOM      4  C   UNL     1       6.368   4.677  16.253  0.00  0.00    +0.000 C 
ATOM      5  C   UNL     1       7.617   4.514  17.128  0.00  0.00    +0.000 C 
ATOM      6  C   UNL     1       6.697   4.407  14.782  0.00  0.00    +0.000 C 
ATOM      7  N   UNL     1       5.362   3.726  16.679  0.00  0.00    +0.000 N 
ATOM      8  C   UNL     1       4.204   3.989  17.346  0.00  0.00    +0.000 C 
ATOM      9  S   UNL     1       3.393   2.637  17.916  0.00  0.00    +0.000 S 
ATOM     10  N   UNL     1       3.821   5.334  17.457  0.00  0.00    +0.000 N 
ATOM     11  H   UNL     1       5.604   2.743  16.633  0.00  0.00    +0.000 HD
ENDROOT
BRANCH  10  12
ATOM     12  C   UNL     1       2.543   5.694  18.120  0.00  0.00    +0.000 C 
BRANCH  12  13
ATOM     13  C   UNL     1       2.685   6.257  19.540  0.00  0.00    +0.000 C 
BRANCH  13  14
ATOM     14  C   UNL     1       1.557   5.904  20.512  0.00  0.00    +0.000 C 
BRANCH  14  15
ATOM     15  N   UNL     1       1.671   4.519  20.947  0.00  0.00    +0.000 N 
ATOM     16  C   UNL     1       0.867   3.477  20.580  0.00  0.00    +0.000 A 
ATOM     17  C   UNL     1       1.399   2.378  21.216  0.00  0.00    +0.000 A 
ATOM     18  N   UNL     1       2.499   2.729  21.954  0.00  0.00    +0.000 NA
ATOM     19  C   UNL     1       2.637   4.026  21.776  0.00  0.00    +0.000 A 
ENDBRANCH  14  15
ENDBRANCH  13  14
ENDBRANCH  12  13
ENDBRANCH  10  12
TORSDOF 4
ENDMDL
MODEL 4
REMARK VINA RESULT:      -5.8      1.632      2.457
REMARK  Name = 
REMARK  7 active torsions:
REMARK  status: ('A' for Active; 'I' for Inactive)
REMARK    1  A    between atoms: C_1  and  C_2
REMARK    2  A    between atoms: C_4  and  C_5
REMARK    3  A    between atoms: C_4  and  C_6
REMARK    4  A    between atoms: N_10  and  C_11
REMARK    5  A    between atoms: C_11  and  C_12
REMARK    6  A    between atoms: C_12  and  C_13
REMARK    7  A    between atoms: C_13  and  N_14
REMARK                            x       y       z     vdW  Elec       q    Type
REMARK                         _______ _______ _______ _____ _____    ______ ____
ROOT
ATOM      1  C   UNL     1       3.490   5.928  19.008  0.00  0.00    +0.000 C 
ATOM      2  C   UNL     1       4.770   5.782  18.224  0.00  0.00    +0.000 C 
ATOM      3  C   UNL     1       5.853   6.465  18.631  0.00  0.00    +0.000 C 
ATOM      4  C   UNL     1       7.200   6.365  17.997  0.00  0.00    +0.000 C 
ATOM      5  C   UNL     1       8.181   5.719  18.985  0.00  0.00    +0.000 C 
ATOM      6  C   UNL     1       7.686   7.757  17.582  0.00  0.00    +0.000 C 
ATOM      7  N   UNL     1       7.109   5.540  16.810  0.00  0.00    +0.000 N 
ATOM      8  C   UNL     1       6.061   4.760  16.423  0.00  0.00    +0.000 C 
ATOM      9  S   UNL     1       6.382   3.733  15.137  0.00  0.00    +0.000 S 
ATOM     10  N   UNL     1       4.854   4.920  17.118  0.00  0.00    +0.000 N 
ATOM     11  H   UNL     1       7.963   5.383  16.288  0.00  0.00    +0.000 HD
ENDROOT
BRANCH  10  12
ATOM     12  C   UNL     1       3.653   4.147  16.716  0.00  0.00    +0.000 C 
BRANCH  12  13
ATOM     13  C   UNL     1       3.505   2.779  17.395  0.00  0.00    +0.000 C 
BRANCH  13  14
ATOM     14  C   UNL     1       2.115   2.457  17.949  0.00  0.00    +0.000 C 
BRANCH  14  15
ATOM     15  N   UNL     1       2.093   2.613  19.396  0.00  0.00    +0.000 N 
ATOM     16  C   UNL     1       3.156   2.508  20.248  0.00  0.00    +0.000 A 
ATOM     17  C   UNL     1       2.639   2.778  21.496  0.00  0.00    +0.000 A 
ATOM     18  N   UNL     1       1.296   3.042  21.418  0.00  0.00    +0.000 NA
ATOM     19  C   UNL     1       0.994   2.932  20.142  0.00  0.00    +0.000 A 
ENDBRANCH  14  15
ENDBRANCH  13  14
ENDBRANCH  12  13
ENDBRANCH  10  12
TORSDOF 4
ENDMDL
MODEL 5
REMARK VINA RESULT:      -5.7      3.551      6.078
REMARK  Name = 
REMARK  7 active torsions:
REMARK  status: ('A' for Active; 'I' for Inactive)
REMARK    1  A    between atoms: C_1  and  C_2
REMARK    2  A    between atoms: C_4  and  C_5
REMARK    3  A    between atoms: C_4  and  C_6
REMARK    4  A    between atoms: N_10  and  C_11
REMARK    5  A    between atoms: C_11  and  C_12
REMARK    6  A    between atoms: C_12  and  C_13
REMARK    7  A    between atoms: C_13  and  N_14
REMARK                            x       y       z     vdW  Elec       q    Type
REMARK                         _______ _______ _______ _____ _____    ______ ____
ROOT
ATOM      1  C   UNL     1       2.338   8.746  17.662  0.00  0.00    +0.000 C 
ATOM      2  C   UNL     1       2.023   8.110  18.992  0.00  0.00    +0.000 C 
ATOM      3  C   UNL     1       1.426   8.858  19.936  0.00  0.00    +0.000 C 
ATOM      4  C   UNL     1       0.994   8.346  21.269  0.00  0.00    +0.000 C 
ATOM      5  C   UNL     1      -0.538   8.385  21.356  0.00  0.00    +0.000 C 
ATOM      6  C   UNL     1       1.621   9.191  22.382  0.00  0.00    +0.000 C 
ATOM      7  N   UNL     1       1.444   6.979  21.424  0.00  0.00    +0.000 N 
ATOM      8  C   UNL     1       1.961   6.163  20.463  0.00  0.00    +0.000 C 
ATOM      9  S   UNL     1       2.138   4.559  20.916  0.00  0.00    +0.000 S 
ATOM     10  N   UNL     1       2.298   6.754  19.237  0.00  0.00    +0.000 N 
ATOM     11  H   UNL     1       1.205   6.507  22.289  0.00  0.00    +0.000 HD
ENDROOT
BRANCH  10  12
ATOM     12  C   UNL     1       2.919   5.942  18.161  0.00  0.00    +0.000 C 
BRANCH  12  13
ATOM     13  C   UNL     1       4.411   5.638  18.357  0.00  0.00    +0.000 C 
BRANCH  13  14
ATOM     14  C   UNL     1       4.868   4.243  17.928  0.00  0.00    +0.000 C 
BRANCH  14  15
ATOM     15  N   UNL     1       5.798   4.330  16.811  0.00  0.00    +0.000 N 
ATOM     16  C   UNL     1       5.509   4.146  15.488  0.00  0.00    +0.000 A 
ATOM     17  C   UNL     1       6.697   4.372  14.831  0.00  0.00    +0.000 A 
ATOM     18  N   UNL     1       7.692   4.687  15.720  0.00  0.00    +0.000 NA
ATOM     19  C   UNL     1       7.122   4.650  16.906  0.00  0.00    +0.000 A 
ENDBRANCH  14  15
ENDBRANCH  13  14
ENDBRANCH  12  13
ENDBRANCH  10  12
TORSDOF 4
ENDMDL
MODEL 6
REMARK VINA RESULT:      -5.7      2.116      6.199
REMARK  Name = 
REMARK  7 active torsions:
REMARK  status: ('A' for Active; 'I' for Inactive)
REMARK    1  A    between atoms: C_1  and  C_2
REMARK    2  A    between atoms: C_4  and  C_5
REMARK    3  A    between atoms: C_4  and  C_6
REMARK    4  A    between atoms: N_10  and  C_11
REMARK    5  A    between atoms: C_11  and  C_12
REMARK    6  A    between atoms: C_12  and  C_13
REMARK    7  A    between atoms: C_13  and  N_14
REMARK                            x       y       z     vdW  Elec       q    Type
REMARK                         _______ _______ _______ _____ _____    ______ ____
ROOT
ATOM      1  C   UNL     1       1.637   7.069  20.364  0.00  0.00    +0.000 C 
ATOM      2  C   UNL     1       2.066   5.637  20.166  0.00  0.00    +0.000 C 
ATOM      3  C   UNL     1       1.238   4.658  20.569  0.00  0.00    +0.000 C 
ATOM      4  C   UNL     1       1.499   3.201  20.376  0.00  0.00    +0.000 C 
ATOM      5  C   UNL     1       0.465   2.626  19.398  0.00  0.00    +0.000 C 
ATOM      6  C   UNL     1       1.433   2.476  21.723  0.00  0.00    +0.000 C 
ATOM      7  N   UNL     1       2.825   3.022  19.824  0.00  0.00    +0.000 N 
ATOM      8  C   UNL     1       3.647   3.983  19.316  0.00  0.00    +0.000 C 
ATOM      9  S   UNL     1       5.005   3.405  18.522  0.00  0.00    +0.000 S 
ATOM     10  N   UNL     1       3.280   5.319  19.534  0.00  0.00    +0.000 N 
ATOM     11  H   UNL     1       3.125   2.073  19.634  0.00  0.00    +0.000 HD
ENDROOT
BRANCH  10  12
ATOM     12  C   UNL     1       4.154   6.421  19.061  0.00  0.00    +0.000 C 
BRANCH  12  13
ATOM     13  C   UNL     1       4.086   6.702  17.554  0.00  0.00    +0.000 C 
BRANCH  13  14
ATOM     14  C   UNL     1       5.390   7.166  16.904  0.00  0.00    +0.000 C 
BRANCH  14  15
ATOM     15  N   UNL     1       6.070   6.048  16.265  0.00  0.00    +0.000 N 
ATOM     16  C   UNL     1       5.623   5.321  15.197  0.00  0.00    +0.000 A 
ATOM     17  C   UNL     1       6.627   4.413  14.942  0.00  0.00    +0.000 A 
ATOM     18  N   UNL     1       7.663   4.574  15.825  0.00  0.00    +0.000 NA
ATOM     19  C   UNL     1       7.298   5.563  16.613  0.00  0.00    +0.000 A 
ENDBRANCH  14  15
ENDBRANCH  13  14
ENDBRANCH  12  13
ENDBRANCH  10  12
TORSDOF 4
ENDMDL
MODEL 7
REMARK VINA RESULT:      -5.6      1.896      5.861
REMARK  Name = 
REMARK  7 active torsions:
REMARK  status: ('A' for Active; 'I' for Inactive)
REMARK    1  A    between atoms: C_1  and  C_2
REMARK    2  A    between atoms: C_4  and  C_5
REMARK    3  A    between atoms: C_4  and  C_6
REMARK    4  A    between atoms: N_10  and  C_11
REMARK    5  A    between atoms: C_11  and  C_12
REMARK    6  A    between atoms: C_12  and  C_13
REMARK    7  A    between atoms: C_13  and  N_14
REMARK                            x       y       z     vdW  Elec       q    Type
REMARK                         _______ _______ _______ _____ _____    ______ ____
ROOT
ATOM      1  C   UNL     1       5.005   3.455  18.598  0.00  0.00    +0.000 C 
ATOM      2  C   UNL     1       3.693   3.857  19.225  0.00  0.00    +0.000 C 
ATOM      3  C   UNL     1       2.845   2.889  19.614  0.00  0.00    +0.000 C 
ATOM      4  C   UNL     1       1.548   3.135  20.309  0.00  0.00    +0.000 C 
ATOM      5  C   UNL     1       1.625   2.583  21.738  0.00  0.00    +0.000 C 
ATOM      6  C   UNL     1       0.406   2.472  19.532  0.00  0.00    +0.000 C 
ATOM      7  N   UNL     1       1.297   4.560  20.362  0.00  0.00    +0.000 N 
ATOM      8  C   UNL     1       2.168   5.565  20.070  0.00  0.00    +0.000 C 
ATOM      9  S   UNL     1       1.641   7.101  20.485  0.00  0.00    +0.000 S 
ATOM     10  N   UNL     1       3.372   5.207  19.446  0.00  0.00    +0.000 N 
ATOM     11  H   UNL     1       0.446   4.864  20.821  0.00  0.00    +0.000 HD
ENDROOT
BRANCH  10  12
ATOM     12  C   UNL     1       4.346   6.252  19.045  0.00  0.00    +0.000 C 
BRANCH  12  13
ATOM     13  C   UNL     1       4.132   6.833  17.641  0.00  0.00    +0.000 C 
BRANCH  13  14
ATOM     14  C   UNL     1       5.400   7.248  16.892  0.00  0.00    +0.000 C 
BRANCH  14  15
ATOM     15  N   UNL     1       6.099   6.077  16.381  0.00  0.00    +0.000 N 
ATOM     16  C   UNL     1       5.702   5.271  15.351  0.00  0.00    +0.000 A 
ATOM     17  C   UNL     1       6.706   4.337  15.223  0.00  0.00    +0.000 A 
ATOM     18  N   UNL     1       7.694   4.559  16.147  0.00  0.00    +0.000 NA
ATOM     19  C   UNL     1       7.300   5.610  16.833  0.00  0.00    +0.000 A 
ENDBRANCH  14  15
ENDBRANCH  13  14
ENDBRANCH  12  13
ENDBRANCH  10  12
TORSDOF 4
ENDMDL
MODEL 8
REMARK VINA RESULT:      -5.4      3.660      4.676
REMARK  Name = 
REMARK  7 active torsions:
REMARK  status: ('A' for Active; 'I' for Inactive)
REMARK    1  A    between atoms: C_1  and  C_2
REMARK    2  A    between atoms: C_4  and  C_5
REMARK    3  A    between atoms: C_4  and  C_6
REMARK    4  A    between atoms: N_10  and  C_11
REMARK    5  A    between atoms: C_11  and  C_12
REMARK    6  A    between atoms: C_12  and  C_13
REMARK    7  A    between atoms: C_13  and  N_14
REMARK                            x       y       z     vdW  Elec       q    Type
REMARK                         _______ _______ _______ _____ _____    ______ ____
ROOT
ATOM      1  C   UNL     1       3.700   7.527  17.271  0.00  0.00    +0.000 C 
ATOM      2  C   UNL     1       4.222   6.113  17.305  0.00  0.00    +0.000 C 
ATOM      3  C   UNL     1       5.348   5.828  16.628  0.00  0.00    +0.000 C 
ATOM      4  C   UNL     1       6.016   4.494  16.628  0.00  0.00    +0.000 C 
ATOM      5  C   UNL     1       7.377   4.607  17.329  0.00  0.00    +0.000 C 
ATOM      6  C   UNL     1       6.187   3.996  15.189  0.00  0.00    +0.000 C 
ATOM      7  N   UNL     1       5.190   3.545  17.344  0.00  0.00    +0.000 N 
ATOM      8  C   UNL     1       4.102   3.815  18.119  0.00  0.00    +0.000 C 
ATOM      9  S   UNL     1       3.532   2.518  19.014  0.00  0.00    +0.000 S 
ATOM     10  N   UNL     1       3.582   5.116  18.060  0.00  0.00    +0.000 N 
ATOM     11  H   UNL     1       5.537   2.597  17.426  0.00  0.00    +0.000 HD
ENDROOT
BRANCH  10  12
ATOM     12  C   UNL     1       2.364   5.470  18.832  0.00  0.00    +0.000 C 
BRANCH  12  13
ATOM     13  C   UNL     1       2.601   6.405  20.025  0.00  0.00    +0.000 C 
BRANCH  13  14
ATOM     14  C   UNL     1       1.357   6.784  20.831  0.00  0.00    +0.000 C 
BRANCH  14  15
ATOM     15  N   UNL     1       1.229   8.232  20.925  0.00  0.00    +0.000 N 
ATOM     16  C   UNL     1       1.009   9.103  19.895  0.00  0.00    +0.000 A 
ATOM     17  C   UNL     1       0.925  10.341  20.491  0.00  0.00    +0.000 A 
ATOM     18  N   UNL     1       1.088  10.240  21.848  0.00  0.00    +0.000 NA
ATOM     19  C   UNL     1       1.274   8.958  22.081  0.00  0.00    +0.000 A 
ENDBRANCH  14  15
ENDBRANCH  13  14
ENDBRANCH  12  13
ENDBRANCH  10  12
TORSDOF 4
ENDMDL
MODEL 9
REMARK VINA RESULT:      -5.4      2.637      6.298
REMARK  Name = 
REMARK  7 active torsions:
REMARK  status: ('A' for Active; 'I' for Inactive)
REMARK    1  A    between atoms: C_1  and  C_2
REMARK    2  A    between atoms: C_4  and  C_5
REMARK    3  A    between atoms: C_4  and  C_6
REMARK    4  A    between atoms: N_10  and  C_11
REMARK    5  A    between atoms: C_11  and  C_12
REMARK    6  A    between atoms: C_12  and  C_13
REMARK    7  A    between atoms: C_13  and  N_14
REMARK                            x       y       z     vdW  Elec       q    Type
REMARK                         _______ _______ _______ _____ _____    ______ ____
ROOT
ATOM      1  C   UNL     1       2.269   2.674  17.080  0.00  0.00    +0.000 C 
ATOM      2  C   UNL     1       2.828   3.587  18.142  0.00  0.00    +0.000 C 
ATOM      3  C   UNL     1       2.053   3.895  19.196  0.00  0.00    +0.000 C 
ATOM      4  C   UNL     1       2.496   4.728  20.352  0.00  0.00    +0.000 C 
ATOM      5  C   UNL     1       2.544   3.858  21.615  0.00  0.00    +0.000 C 
ATOM      6  C   UNL     1       1.538   5.908  20.543  0.00  0.00    +0.000 C 
ATOM      7  N   UNL     1       3.819   5.251  20.085  0.00  0.00    +0.000 N 
ATOM      8  C   UNL     1       4.667   4.886  19.084  0.00  0.00    +0.000 C 
ATOM      9  S   UNL     1       6.222   5.499  19.215  0.00  0.00    +0.000 S 
ATOM     10  N   UNL     1       4.144   4.073  18.068  0.00  0.00    +0.000 N 
ATOM     11  H   UNL     1       4.242   5.829  20.802  0.00  0.00    +0.000 HD
ENDROOT
BRANCH  10  12
ATOM     12  C   UNL     1       4.991   3.681  16.914  0.00  0.00    +0.000 C 
BRANCH  12  13
ATOM     13  C   UNL     1       5.126   4.746  15.817  0.00  0.00    +0.000 C 
BRANCH  13  14
ATOM     14  C   UNL     1       6.551   5.034  15.341  0.00  0.00    +0.000 C 
BRANCH  14  15
ATOM     15  N   UNL     1       6.734   4.579  13.970  0.00  0.00    +0.000 N 
ATOM     16  C   UNL     1       6.016   3.611  13.326  0.00  0.00    +0.000 A 
ATOM     17  C   UNL     1       6.534   3.574  12.051  0.00  0.00    +0.000 A 
ATOM     18  N   UNL     1       7.542   4.492  11.910  0.00  0.00    +0.000 NA
ATOM     19  C   UNL     1       7.644   5.080  13.083  0.00  0.00    +0.000 A 
ENDBRANCH  14  15
ENDBRANCH  13  14
ENDBRANCH  12  13
ENDBRANCH  10  12
TORSDOF 4
ENDMDL
