MODEL 1
REMARK VINA RESULT:      -8.0      0.000      0.000
REMARK  Name = 
REMARK  6 active torsions:
REMARK  status: ('A' for Active; 'I' for Inactive)
REMARK    1  A    between atoms: C_1  and  O_2
REMARK    2  A    between atoms: O_2  and  C_3
REMARK    3  A    between atoms: C_6  and  C_7
REMARK    4  A    between atoms: C_11  and  N_12
REMARK    5  A    between atoms: C_13  and  C_14
REMARK    6  A    between atoms: N_16  and  C_17
REMARK                            x       y       z     vdW  Elec       q    Type
REMARK                         _______ _______ _______ _____ _____    ______ ____
ROOT
ATOM      1  C   UNL     1      -0.607  11.700  21.295  0.00  0.00    +0.000 A 
ATOM      2  C   UNL     1      -0.418  12.234  20.019  0.00  0.00    +0.000 A 
ATOM      3  C   UNL     1       0.302  11.520  19.065  0.00  0.00    +0.000 A 
ATOM      4  C   UNL     1       0.806  10.256  19.420  0.00  0.00    +0.000 A 
ATOM      5  C   UNL     1       1.557   9.270  18.703  0.00  0.00    +0.000 A 
ATOM      6  C   UNL     1       1.819   8.134  19.450  0.00  0.00    +0.000 A 
ATOM      7  S   UNL     1       1.178   8.285  21.036  0.00  0.00    +0.000 S 
ATOM      8  C   UNL     1       0.541   9.824  20.711  0.00  0.00    +0.000 A 
ATOM      9  N   UNL     1      -0.140  10.487  21.664  0.00  0.00    +0.000 NA
ENDROOT
BRANCH   1  13
ATOM     10  C   UNL     1      -2.731  13.874  24.356  0.00  0.00    +0.000 A 
ATOM     11  C   UNL     1      -1.542  14.376  23.830  0.00  0.00    +0.000 A 
ATOM     12  C   UNL     1      -0.856  13.676  22.830  0.00  0.00    +0.000 A 
ATOM     13  C   UNL     1      -1.333  12.444  22.348  0.00  0.00    +0.000 A 
ATOM     14  C   UNL     1      -2.527  11.954  22.902  0.00  0.00    +0.000 A 
ATOM     15  C   UNL     1      -3.214  12.653  23.898  0.00  0.00    +0.000 A 
BRANCH  10  17
ATOM     16  C   UNL     1      -3.429  16.019  25.039  0.00  0.00    +0.000 C 
ATOM     17  O   UNL     1      -3.319  14.632  25.332  0.00  0.00    +0.000 OA
ENDBRANCH  10  17
ENDBRANCH   1  13
BRANCH   6  18
ATOM     18  C   UNL     1       2.545   6.933  19.037  0.00  0.00    +0.000 C 
ATOM     19  O   UNL     1       3.564   7.001  18.352  0.00  0.00    +0.000 OA
ATOM     20  N   UNL     1       1.974   5.735  19.439  0.00  0.00    +0.000 N 
ATOM     21  H   UNL     1       1.059   5.795  19.879  0.00  0.00    +0.000 HD
BRANCH  20  22
ATOM     22  C   UNL     1       2.459   4.430  19.211  0.00  0.00    +0.000 A 
ATOM     23  C   UNL     1       3.406   3.802  20.019  0.00  0.00    +0.000 A 
ATOM     24  C   UNL     1       3.839   2.515  19.704  0.00  0.00    +0.000 A 
ATOM     25  F   UNL     1       4.747   1.920  20.488  0.00  0.00    +0.000 F 
ATOM     26  C   UNL     1       3.348   1.834  18.594  0.00  0.00    +0.000 A 
ATOM     27  C   UNL     1       2.387   2.444  17.790  0.00  0.00    +0.000 A 
ATOM     28  C   UNL     1       1.945   3.729  18.111  0.00  0.00    +0.000 A 
ATOM     29  F   UNL     1       1.021   4.306  17.327  0.00  0.00    +0.000 F 
ENDBRANCH  20  22
ENDBRANCH   6  18
BRANCH   5  30
ATOM     30  N   UNL     1       1.945   9.438  17.420  0.00  0.00    +0.000 N 
ATOM     31  H   UNL     1       2.913   9.490  17.124  0.00  0.00    +0.000 HD
ATOM     32  H   UNL     1       1.274   9.367  16.651  0.00  0.00    +0.000 HD
ENDBRANCH   5  30
TORSDOF 5
ENDMDL
MODEL 2
REMARK VINA RESULT:      -8.0      3.867     10.242
REMARK  Name = 
REMARK  6 active torsions:
REMARK  status: ('A' for Active; 'I' for Inactive)
REMARK    1  A    between atoms: C_1  and  O_2
REMARK    2  A    between atoms: O_2  and  C_3
REMARK    3  A    between atoms: C_6  and  C_7
REMARK    4  A    between atoms: C_11  and  N_12
REMARK    5  A    between atoms: C_13  and  C_14
REMARK    6  A    between atoms: N_16  and  C_17
REMARK                            x       y       z     vdW  Elec       q    Type
REMARK                         _______ _______ _______ _____ _____    ______ ____
ROOT
ATOM      1  C   UNL     1       2.222   7.631  19.054  0.00  0.00    +0.000 A 
ATOM      2  C   UNL     1       2.440   8.429  17.928  0.00  0.00    +0.000 A 
ATOM      3  C   UNL     1       1.884   9.703  17.859  0.00  0.00    +0.000 A 
ATOM      4  C   UNL     1       1.125  10.159  18.952  0.00  0.00    +0.000 A 
ATOM      5  C   UNL     1       0.440  11.387  19.219  0.00  0.00    +0.000 A 
ATOM      6  C   UNL     1      -0.167  11.416  20.463  0.00  0.00    +0.000 A 
ATOM      7  S   UNL     1       0.072   9.931  21.292  0.00  0.00    +0.000 S 
ATOM      8  C   UNL     1       0.991   9.284  20.021  0.00  0.00    +0.000 A 
ATOM      9  N   UNL     1       1.503   8.043  20.121  0.00  0.00    +0.000 NA
ENDROOT
BRANCH   1  13
ATOM     10  C   UNL     1       3.809   3.630  19.338  0.00  0.00    +0.000 A 
ATOM     11  C   UNL     1       4.245   4.492  18.333  0.00  0.00    +0.000 A 
ATOM     12  C   UNL     1       3.737   5.795  18.245  0.00  0.00    +0.000 A 
ATOM     13  C   UNL     1       2.763   6.258  19.149  0.00  0.00    +0.000 A 
ATOM     14  C   UNL     1       2.333   5.366  20.145  0.00  0.00    +0.000 A 
ATOM     15  C   UNL     1       2.840   4.067  20.235  0.00  0.00    +0.000 A 
BRANCH  10  17
ATOM     16  C   UNL     1       3.666   1.410  18.560  0.00  0.00    +0.000 C 
ATOM     17  O   UNL     1       4.363   2.380  19.333  0.00  0.00    +0.000 OA
ENDBRANCH  10  17
ENDBRANCH   1  13
BRANCH   6  18
ATOM     18  C   UNL     1      -0.936  12.504  21.065  0.00  0.00    +0.000 C 
ATOM     19  O   UNL     1      -1.540  13.323  20.375  0.00  0.00    +0.000 OA
ATOM     20  N   UNL     1      -0.890  12.558  22.450  0.00  0.00    +0.000 N 
ATOM     21  H   UNL     1      -0.247  11.917  22.907  0.00  0.00    +0.000 HD
BRANCH  20  22
ATOM     22  C   UNL     1      -1.548  13.475  23.298  0.00  0.00    +0.000 A 
ATOM     23  C   UNL     1      -0.986  14.678  23.723  0.00  0.00    +0.000 A 
ATOM     24  C   UNL     1      -1.705  15.513  24.577  0.00  0.00    +0.000 A 
ATOM     25  F   UNL     1      -1.158  16.668  24.977  0.00  0.00    +0.000 F 
ATOM     26  C   UNL     1      -2.979  15.174  25.022  0.00  0.00    +0.000 A 
ATOM     27  C   UNL     1      -3.559  13.983  24.589  0.00  0.00    +0.000 A 
ATOM     28  C   UNL     1      -2.843  13.151  23.726  0.00  0.00    +0.000 A 
ATOM     29  F   UNL     1      -3.411  12.005  23.317  0.00  0.00    +0.000 F 
ENDBRANCH  20  22
ENDBRANCH   6  18
BRANCH   5  30
ATOM     30  N   UNL     1       0.415  12.415  18.341  0.00  0.00    +0.000 N 
ATOM     31  H   UNL     1      -0.365  12.612  17.724  0.00  0.00    +0.000 HD
ATOM     32  H   UNL     1       1.129  13.146  18.364  0.00  0.00    +0.000 HD
ENDBRANCH   5  30
TORSDOF 5
ENDMDL
MODEL 3
REMARK VINA RESULT:      -7.9      2.233      2.854
REMARK  Name = 
REMARK  6 active torsions:
REMARK  status: ('A' for Active; 'I' for Inactive)
REMARK    1  A    between atoms: C_1  and  O_2
REMARK    2  A    between atoms: O_2  and  C_3
REMARK    3  A    between atoms: C_6  and  C_7
REMARK    4  A    between atoms: C_11  and  N_12
REMARK    5  A    between atoms: C_13  and  C_14
REMARK    6  A    between atoms: N_16  and  C_17
REMARK                            x       y       z     vdW  Elec       q    Type
REMARK                         _______ _______ _______ _____ _____    ______ ____
ROOT
ATOM      1  C   UNL     1      -1.030  11.373  22.512  0.00  0.00    +0.000 A 
ATOM      2  C   UNL     1      -0.760  10.280  23.337  0.00  0.00    +0.000 A 
ATOM      3  C   UNL     1      -0.023   9.204  22.851  0.00  0.00    +0.000 A 
ATOM      4  C   UNL     1       0.449   9.265  21.527  0.00  0.00    +0.000 A 
ATOM      5  C   UNL     1       1.229   8.368  20.729  0.00  0.00    +0.000 A 
ATOM      6  C   UNL     1       1.491   8.855  19.459  0.00  0.00    +0.000 A 
ATOM      7  S   UNL     1       0.757  10.391  19.231  0.00  0.00    +0.000 S 
ATOM      8  C   UNL     1       0.132  10.408  20.809  0.00  0.00    +0.000 A 
ATOM      9  N   UNL     1      -0.585  11.463  21.239  0.00  0.00    +0.000 NA
ENDROOT
BRANCH   1  13
ATOM     10  C   UNL     1      -3.393  14.709  23.887  0.00  0.00    +0.000 A 
ATOM     11  C   UNL     1      -3.995  13.480  23.622  0.00  0.00    +0.000 A 
ATOM     12  C   UNL     1      -3.227  12.393  23.184  0.00  0.00    +0.000 A 
ATOM     13  C   UNL     1      -1.841  12.518  22.979  0.00  0.00    +0.000 A 
ATOM     14  C   UNL     1      -1.261  13.770  23.244  0.00  0.00    +0.000 A 
ATOM     15  C   UNL     1      -2.025  14.854  23.683  0.00  0.00    +0.000 A 
BRANCH  10  17
ATOM     16  C   UNL     1      -5.580  15.588  23.868  0.00  0.00    +0.000 C 
ATOM     17  O   UNL     1      -4.232  15.706  24.305  0.00  0.00    +0.000 OA
ENDBRANCH  10  17
ENDBRANCH   1  13
BRANCH   6  18
ATOM     18  C   UNL     1       2.260   8.217  18.391  0.00  0.00    +0.000 C 
ATOM     19  O   UNL     1       2.347   8.720  17.273  0.00  0.00    +0.000 OA
ATOM     20  N   UNL     1       2.832   6.999  18.728  0.00  0.00    +0.000 N 
ATOM     21  H   UNL     1       2.577   6.614  19.634  0.00  0.00    +0.000 HD
BRANCH  20  22
ATOM     22  C   UNL     1       3.641   6.174  17.918  0.00  0.00    +0.000 A 
ATOM     23  C   UNL     1       4.869   6.571  17.389  0.00  0.00    +0.000 A 
ATOM     24  C   UNL     1       5.590   5.691  16.583  0.00  0.00    +0.000 A 
ATOM     25  F   UNL     1       6.769   6.080  16.081  0.00  0.00    +0.000 F 
ATOM     26  C   UNL     1       5.113   4.417  16.289  0.00  0.00    +0.000 A 
ATOM     27  C   UNL     1       3.897   4.003  16.827  0.00  0.00    +0.000 A 
ATOM     28  C   UNL     1       3.178   4.879  17.643  0.00  0.00    +0.000 A 
ATOM     29  F   UNL     1       2.007   4.469  18.154  0.00  0.00    +0.000 F 
ENDBRANCH  20  22
ENDBRANCH   6  18
BRANCH   5  30
ATOM     30  N   UNL     1       1.675   7.179  21.190  0.00  0.00    +0.000 N 
ATOM     31  H   UNL     1       1.415   6.284  20.789  0.00  0.00    +0.000 HD
ATOM     32  H   UNL     1       2.428   7.128  21.880  0.00  0.00    +0.000 HD
ENDBRANCH   5  30
TORSDOF 5
ENDMDL
MODEL 4
REMARK VINA RESULT:      -7.9      4.162      5.727
REMARK  Name = 
REMARK  6 active torsions:
REMARK  status: ('A' for Active; 'I' for Inactive)
REMARK    1  A    between atoms: C_1  and  O_2
REMARK    2  A    between atoms: O_2  and  C_3
REMARK    3  A    between atoms: C_6  and  C_7
REMARK    4  A    between atoms: C_11  and  N_12
REMARK    5  A    between atoms: C_13  and  C_14
REMARK    6  A    between atoms: N_16  and  C_17
REMARK                            x       y       z     vdW  Elec       q    Type
REMARK                         _______ _______ _______ _____ _____    ______ ____
ROOT
ATOM      1  C   UNL     1       1.482   7.625  20.525  0.00  0.00    +0.000 A 
ATOM      2  C   UNL     1       1.309   6.401  21.174  0.00  0.00    +0.000 A 
ATOM      3  C   UNL     1       1.887   5.248  20.652  0.00  0.00    +0.000 A 
ATOM      4  C   UNL     1       2.655   5.360  19.480  0.00  0.00    +0.000 A 
ATOM      5  C   UNL     1       3.385   4.408  18.698  0.00  0.00    +0.000 A 
ATOM      6  C   UNL     1       4.035   4.974  17.615  0.00  0.00    +0.000 A 
ATOM      7  S   UNL     1       3.725   6.662  17.531  0.00  0.00    +0.000 S 
ATOM      8  C   UNL     1       2.770   6.630  18.934  0.00  0.00    +0.000 A 
ATOM      9  N   UNL     1       2.219   7.766  19.401  0.00  0.00    +0.000 NA
ENDROOT
BRANCH   1  13
ATOM     10  C   UNL     1      -0.343  11.248  21.993  0.00  0.00    +0.000 A 
ATOM     11  C   UNL     1      -0.392  10.077  22.747  0.00  0.00    +0.000 A 
ATOM     12  C   UNL     1       0.208   8.903  22.276  0.00  0.00    +0.000 A 
ATOM     13  C   UNL     1       0.853   8.866  21.026  0.00  0.00    +0.000 A 
ATOM     14  C   UNL     1       0.880  10.056  20.281  0.00  0.00    +0.000 A 
ATOM     15  C   UNL     1       0.284  11.230  20.751  0.00  0.00    +0.000 A 
BRANCH  10  17
ATOM     16  C   UNL     1      -2.204  12.070  23.181  0.00  0.00    +0.000 C 
ATOM     17  O   UNL     1      -0.963  12.337  22.540  0.00  0.00    +0.000 OA
ENDBRANCH  10  17
ENDBRANCH   1  13
BRANCH   6  18
ATOM     18  C   UNL     1       4.873   4.308  16.619  0.00  0.00    +0.000 C 
ATOM     19  O   UNL     1       5.535   3.310  16.898  0.00  0.00    +0.000 OA
ATOM     20  N   UNL     1       4.893   4.912  15.370  0.00  0.00    +0.000 N 
ATOM     21  H   UNL     1       4.421   5.810  15.294  0.00  0.00    +0.000 HD
BRANCH  20  22
ATOM     22  C   UNL     1       5.586   4.485  14.217  0.00  0.00    +0.000 A 
ATOM     23  C   UNL     1       5.036   3.646  13.249  0.00  0.00    +0.000 A 
ATOM     24  C   UNL     1       5.803   3.263  12.151  0.00  0.00    +0.000 A 
ATOM     25  F   UNL     1       5.266   2.459  11.225  0.00  0.00    +0.000 F 
ATOM     26  C   UNL     1       7.116   3.697  11.994  0.00  0.00    +0.000 A 
ATOM     27  C   UNL     1       7.671   4.551  12.945  0.00  0.00    +0.000 A 
ATOM     28  C   UNL     1       6.899   4.944  14.040  0.00  0.00    +0.000 A 
ATOM     29  F   UNL     1       7.444   5.765  14.951  0.00  0.00    +0.000 F 
ENDBRANCH  20  22
ENDBRANCH   6  18
BRANCH   5  30
ATOM     30  N   UNL     1       3.443   3.095  19.013  0.00  0.00    +0.000 N 
ATOM     31  H   UNL     1       3.850   2.387  18.412  0.00  0.00    +0.000 HD
ATOM     32  H   UNL     1       3.214   2.766  19.954  0.00  0.00    +0.000 HD
ENDBRANCH   5  30
TORSDOF 5
ENDMDL
MODEL 5
REMARK VINA RESULT:      -7.8      3.850     10.199
REMARK  Name = 
REMARK  6 active torsions:
REMARK  status: ('A' for Active; 'I' for Inactive)
REMARK    1  A    between atoms: C_1  and  O_2
REMARK    2  A    between atoms: O_2  and  C_3
REMARK    3  A    between atoms: C_6  and  C_7
REMARK    4  A    between atoms: C_11  and  N_12
REMARK    5  A    between atoms: C_13  and  C_14
REMARK    6  A    between atoms: N_16  and  C_17
REMARK                            x       y       z     vdW  Elec       q    Type
REMARK                         _______ _______ _______ _____ _____    ______ ____
ROOT
ATOM      1  C   UNL     1       2.198   7.646  19.057  0.00  0.00    +0.000 A 
ATOM      2  C   UNL     1       2.389   8.408  17.903  0.00  0.00    +0.000 A 
ATOM      3  C   UNL     1       1.857   9.691  17.820  0.00  0.00    +0.000 A 
ATOM      4  C   UNL     1       1.151  10.193  18.928  0.00  0.00    +0.000 A 
ATOM      5  C   UNL     1       0.502  11.442  19.186  0.00  0.00    +0.000 A 
ATOM      6  C   UNL     1      -0.055  11.517  20.452  0.00  0.00    +0.000 A 
ATOM      7  S   UNL     1       0.184  10.050  21.312  0.00  0.00    +0.000 S 
ATOM      8  C   UNL     1       1.040   9.350  20.024  0.00  0.00    +0.000 A 
ATOM      9  N   UNL     1       1.530   8.101  20.139  0.00  0.00    +0.000 NA
ENDROOT
BRANCH   1  13
ATOM     10  C   UNL     1       3.695   3.613  19.376  0.00  0.00    +0.000 A 
ATOM     11  C   UNL     1       2.773   4.098  20.302  0.00  0.00    +0.000 A 
ATOM     12  C   UNL     1       2.280   5.405  20.194  0.00  0.00    +0.000 A 
ATOM     13  C   UNL     1       2.714   6.264  19.169  0.00  0.00    +0.000 A 
ATOM     14  C   UNL     1       3.651   5.754  18.255  0.00  0.00    +0.000 A 
ATOM     15  C   UNL     1       4.143   4.450  18.359  0.00  0.00    +0.000 A 
BRANCH  10  17
ATOM     16  C   UNL     1       3.685   1.389  18.596  0.00  0.00    +0.000 C 
ATOM     17  O   UNL     1       4.118   2.327  19.573  0.00  0.00    +0.000 OA
ENDBRANCH  10  17
ENDBRANCH   1  13
BRANCH   6  18
ATOM     18  C   UNL     1      -0.778  12.637  21.052  0.00  0.00    +0.000 C 
ATOM     19  O   UNL     1      -0.571  13.798  20.703  0.00  0.00    +0.000 OA
ATOM     20  N   UNL     1      -1.666  12.290  22.059  0.00  0.00    +0.000 N 
ATOM     21  H   UNL     1      -1.652  11.319  22.360  0.00  0.00    +0.000 HD
BRANCH  20  22
ATOM     22  C   UNL     1      -2.512  13.147  22.796  0.00  0.00    +0.000 A 
ATOM     23  C   UNL     1      -2.075  13.949  23.849  0.00  0.00    +0.000 A 
ATOM     24  C   UNL     1      -2.988  14.751  24.531  0.00  0.00    +0.000 A 
ATOM     25  F   UNL     1      -2.558  15.520  25.541  0.00  0.00    +0.000 F 
ATOM     26  C   UNL     1      -4.336  14.772  24.187  0.00  0.00    +0.000 A 
ATOM     27  C   UNL     1      -4.781  13.990  23.124  0.00  0.00    +0.000 A 
ATOM     28  C   UNL     1      -3.865  13.194  22.434  0.00  0.00    +0.000 A 
ATOM     29  F   UNL     1      -4.306  12.442  21.412  0.00  0.00    +0.000 F 
ENDBRANCH  20  22
ENDBRANCH   6  18
BRANCH   5  30
ATOM     30  N   UNL     1       0.465  12.446  18.283  0.00  0.00    +0.000 N 
ATOM     31  H   UNL     1       0.001  12.380  17.383  0.00  0.00    +0.000 HD
ATOM     32  H   UNL     1       0.775  13.390  18.527  0.00  0.00    +0.000 HD
ENDBRANCH   5  30
TORSDOF 5
ENDMDL
MODEL 6
REMARK VINA RESULT:      -7.7      3.855     10.270
REMARK  Name = 
REMARK  6 active torsions:
REMARK  status: ('A' for Active; 'I' for Inactive)
REMARK    1  A    between atoms: C_1  and  O_2
REMARK    2  A    between atoms: O_2  and  C_3
REMARK    3  A    between atoms: C_6  and  C_7
REMARK    4  A    between atoms: C_11  and  N_12
REMARK    5  A    between atoms: C_13  and  C_14
REMARK    6  A    between atoms: N_16  and  C_17
REMARK                            x       y       z     vdW  Elec       q    Type
REMARK                         _______ _______ _______ _____ _____    ______ ____
ROOT
ATOM      1  C   UNL     1       2.190   7.635  19.089  0.00  0.00    +0.000 A 
ATOM      2  C   UNL     1       2.466   8.413  17.963  0.00  0.00    +0.000 A 
ATOM      3  C   UNL     1       1.925   9.690  17.849  0.00  0.00    +0.000 A 
ATOM      4  C   UNL     1       1.121  10.170  18.898  0.00  0.00    +0.000 A 
ATOM      5  C   UNL     1       0.435  11.407  19.113  0.00  0.00    +0.000 A 
ATOM      6  C   UNL     1      -0.228  11.461  20.328  0.00  0.00    +0.000 A 
ATOM      7  S   UNL     1      -0.041   9.987  21.190  0.00  0.00    +0.000 S 
ATOM      8  C   UNL     1       0.930   9.313  19.973  0.00  0.00    +0.000 A 
ATOM      9  N   UNL     1       1.426   8.070  20.116  0.00  0.00    +0.000 NA
ENDROOT
BRANCH   1  13
ATOM     10  C   UNL     1       3.728   3.627  19.508  0.00  0.00    +0.000 A 
ATOM     11  C   UNL     1       4.174   4.450  18.475  0.00  0.00    +0.000 A 
ATOM     12  C   UNL     1       3.683   5.754  18.344  0.00  0.00    +0.000 A 
ATOM     13  C   UNL     1       2.714   6.260  19.230  0.00  0.00    +0.000 A 
ATOM     14  C   UNL     1       2.273   5.407  20.256  0.00  0.00    +0.000 A 
ATOM     15  C   UNL     1       2.764   4.106  20.390  0.00  0.00    +0.000 A 
BRANCH  10  17
ATOM     16  C   UNL     1       3.715   1.446  18.615  0.00  0.00    +0.000 C 
ATOM     17  O   UNL     1       4.266   2.370  19.545  0.00  0.00    +0.000 OA
ENDBRANCH  10  17
ENDBRANCH   1  13
BRANCH   6  18
ATOM     18  C   UNL     1      -1.015  12.564  20.876  0.00  0.00    +0.000 C 
ATOM     19  O   UNL     1      -0.844  13.724  20.505  0.00  0.00    +0.000 OA
ATOM     20  N   UNL     1      -1.921  12.205  21.863  0.00  0.00    +0.000 N 
ATOM     21  H   UNL     1      -1.877  11.243  22.189  0.00  0.00    +0.000 HD
BRANCH  20  22
ATOM     22  C   UNL     1      -2.824  13.044  22.551  0.00  0.00    +0.000 A 
ATOM     23  C   UNL     1      -4.181  13.137  22.246  0.00  0.00    +0.000 A 
ATOM     24  C   UNL     1      -4.994  14.008  22.969  0.00  0.00    +0.000 A 
ATOM     25  F   UNL     1      -6.296  14.089  22.670  0.00  0.00    +0.000 F 
ATOM     26  C   UNL     1      -4.482  14.794  23.997  0.00  0.00    +0.000 A 
ATOM     27  C   UNL     1      -3.131  14.695  24.325  0.00  0.00    +0.000 A 
ATOM     28  C   UNL     1      -2.319  13.816  23.606  0.00  0.00    +0.000 A 
ATOM     29  F   UNL     1      -1.019  13.731  23.929  0.00  0.00    +0.000 F 
ENDBRANCH  20  22
ENDBRANCH   6  18
BRANCH   5  30
ATOM     30  N   UNL     1       0.460  12.421  18.220  0.00  0.00    +0.000 N 
ATOM     31  H   UNL     1      -0.365  12.784  17.755  0.00  0.00    +0.000 HD
ATOM     32  H   UNL     1       1.303  12.983  18.081  0.00  0.00    +0.000 HD
ENDBRANCH   5  30
TORSDOF 5
ENDMDL
MODEL 7
REMARK VINA RESULT:      -7.7      3.949     10.431
REMARK  Name = 
REMARK  6 active torsions:
REMARK  status: ('A' for Active; 'I' for Inactive)
REMARK    1  A    between atoms: C_1  and  O_2
REMARK    2  A    between atoms: O_2  and  C_3
REMARK    3  A    between atoms: C_6  and  C_7
REMARK    4  A    between atoms: C_11  and  N_12
REMARK    5  A    between atoms: C_13  and  C_14
REMARK    6  A    between atoms: N_16  and  C_17
REMARK                            x       y       z     vdW  Elec       q    Type
REMARK                         _______ _______ _______ _____ _____    ______ ____
ROOT
ATOM      1  C   UNL     1       2.644   7.771  18.196  0.00  0.00    +0.000 A 
ATOM      2  C   UNL     1       2.271   8.871  17.421  0.00  0.00    +0.000 A 
ATOM      3  C   UNL     1       1.470   9.869  17.968  0.00  0.00    +0.000 A 
ATOM      4  C   UNL     1       1.075   9.744  19.312  0.00  0.00    +0.000 A 
ATOM      5  C   UNL     1       0.286  10.568  20.176  0.00  0.00    +0.000 A 
ATOM      6  C   UNL     1       0.173  10.063  21.460  0.00  0.00    +0.000 A 
ATOM      7  S   UNL     1       1.001   8.564  21.601  0.00  0.00    +0.000 S 
ATOM      8  C   UNL     1       1.520   8.616  19.986  0.00  0.00    +0.000 A 
ATOM      9  N   UNL     1       2.285   7.626  19.490  0.00  0.00    +0.000 NA
ENDROOT
BRANCH   1  13
ATOM     10  C   UNL     1       5.023   4.564  16.564  0.00  0.00    +0.000 A 
ATOM     11  C   UNL     1       3.836   4.288  17.240  0.00  0.00    +0.000 A 
ATOM     12  C   UNL     1       3.057   5.329  17.762  0.00  0.00    +0.000 A 
ATOM     13  C   UNL     1       3.462   6.671  17.640  0.00  0.00    +0.000 A 
ATOM     14  C   UNL     1       4.668   6.921  16.965  0.00  0.00    +0.000 A 
ATOM     15  C   UNL     1       5.444   5.884  16.441  0.00  0.00    +0.000 A 
BRANCH  10  17
ATOM     16  C   UNL     1       6.279   3.629  14.803  0.00  0.00    +0.000 C 
ATOM     17  O   UNL     1       5.710   3.477  16.098  0.00  0.00    +0.000 OA
ENDBRANCH  10  17
ENDBRANCH   1  13
BRANCH   6  18
ATOM     18  C   UNL     1      -0.542  10.642  22.596  0.00  0.00    +0.000 C 
ATOM     19  O   UNL     1      -0.447  10.166  23.726  0.00  0.00    +0.000 OA
ATOM     20  N   UNL     1      -1.356  11.722  22.289  0.00  0.00    +0.000 N 
ATOM     21  H   UNL     1      -1.466  11.939  21.301  0.00  0.00    +0.000 HD
BRANCH  20  22
ATOM     22  C   UNL     1      -2.140  12.491  23.175  0.00  0.00    +0.000 A 
ATOM     23  C   UNL     1      -3.374  12.078  23.675  0.00  0.00    +0.000 A 
ATOM     24  C   UNL     1      -4.086  12.914  24.533  0.00  0.00    +0.000 A 
ATOM     25  F   UNL     1      -5.270  12.509  25.009  0.00  0.00    +0.000 F 
ATOM     26  C   UNL     1      -3.595  14.162  24.906  0.00  0.00    +0.000 A 
ATOM     27  C   UNL     1      -2.353  14.577  24.429  0.00  0.00    +0.000 A 
ATOM     28  C   UNL     1      -1.635  13.735  23.577  0.00  0.00    +0.000 A 
ATOM     29  F   UNL     1      -0.441  14.147  23.122  0.00  0.00    +0.000 F 
ENDBRANCH  20  22
ENDBRANCH   6  18
BRANCH   5  30
ATOM     30  N   UNL     1      -0.268  11.732  19.770  0.00  0.00    +0.000 N 
ATOM     31  H   UNL     1      -1.268  11.891  19.708  0.00  0.00    +0.000 HD
ATOM     32  H   UNL     1       0.299  12.574  19.650  0.00  0.00    +0.000 HD
ENDBRANCH   5  30
TORSDOF 5
ENDMDL
MODEL 8
REMARK VINA RESULT:      -7.7      3.870     10.265
REMARK  Name = 
REMARK  6 active torsions:
REMARK  status: ('A' for Active; 'I' for Inactive)
REMARK    1  A    between atoms: C_1  and  O_2
REMARK    2  A    between atoms: O_2  and  C_3
REMARK    3  A    between atoms: C_6  and  C_7
REMARK    4  A    between atoms: C_11  and  N_12
REMARK    5  A    between atoms: C_13  and  C_14
REMARK    6  A    between atoms: N_16  and  C_17
REMARK                            x       y       z     vdW  Elec       q    Type
REMARK                         _______ _______ _______ _____ _____    ______ ____
ROOT
ATOM      1  C   UNL     1       2.295   7.614  18.995  0.00  0.00    +0.000 A 
ATOM      2  C   UNL     1       2.537   8.422  17.882  0.00  0.00    +0.000 A 
ATOM      3  C   UNL     1       1.946   9.679  17.792  0.00  0.00    +0.000 A 
ATOM      4  C   UNL     1       1.127  10.108  18.853  0.00  0.00    +0.000 A 
ATOM      5  C   UNL     1       0.394  11.314  19.092  0.00  0.00    +0.000 A 
ATOM      6  C   UNL     1      -0.266  11.319  20.310  0.00  0.00    +0.000 A 
ATOM      7  S   UNL     1      -0.019   9.839  21.144  0.00  0.00    +0.000 S 
ATOM      8  C   UNL     1       0.974   9.225  19.912  0.00  0.00    +0.000 A 
ATOM      9  N   UNL     1       1.518   8.000  20.031  0.00  0.00    +0.000 NA
ENDROOT
BRANCH   1  13
ATOM     10  C   UNL     1       3.974   3.654  19.320  0.00  0.00    +0.000 A 
ATOM     11  C   UNL     1       2.890   4.028  20.112  0.00  0.00    +0.000 A 
ATOM     12  C   UNL     1       2.338   5.310  20.001  0.00  0.00    +0.000 A 
ATOM     13  C   UNL     1       2.873   6.258  19.109  0.00  0.00    +0.000 A 
ATOM     14  C   UNL     1       3.972   5.860  18.330  0.00  0.00    +0.000 A 
ATOM     15  C   UNL     1       4.522   4.580  18.438  0.00  0.00    +0.000 A 
BRANCH  10  17
ATOM     16  C   UNL     1       3.769   1.373  18.766  0.00  0.00    +0.000 C 
ATOM     17  O   UNL     1       4.441   2.382  19.509  0.00  0.00    +0.000 OA
ENDBRANCH  10  17
ENDBRANCH   1  13
BRANCH   6  18
ATOM     18  C   UNL     1      -1.093  12.381  20.880  0.00  0.00    +0.000 C 
ATOM     19  O   UNL     1      -1.392  13.382  20.232  0.00  0.00    +0.000 OA
ATOM     20  N   UNL     1      -1.467  12.188  22.202  0.00  0.00    +0.000 N 
ATOM     21  H   UNL     1      -1.046  11.395  22.680  0.00  0.00    +0.000 HD
BRANCH  20  22
ATOM     22  C   UNL     1      -2.276  13.024  23.000  0.00  0.00    +0.000 A 
ATOM     23  C   UNL     1      -3.632  12.796  23.234  0.00  0.00    +0.000 A 
ATOM     24  C   UNL     1      -4.355  13.689  24.023  0.00  0.00    +0.000 A 
ATOM     25  F   UNL     1      -5.657  13.461  24.244  0.00  0.00    +0.000 F 
ATOM     26  C   UNL     1      -3.757  14.811  24.587  0.00  0.00    +0.000 A 
ATOM     27  C   UNL     1      -2.398  15.039  24.376  0.00  0.00    +0.000 A 
ATOM     28  C   UNL     1      -1.671  14.140  23.594  0.00  0.00    +0.000 A 
ATOM     29  F   UNL     1      -0.363  14.370  23.396  0.00  0.00    +0.000 F 
ENDBRANCH  20  22
ENDBRANCH   6  18
BRANCH   5  30
ATOM     30  N   UNL     1       0.376  12.343  18.218  0.00  0.00    +0.000 N 
ATOM     31  H   UNL     1      -0.327  13.074  18.219  0.00  0.00    +0.000 HD
ATOM     32  H   UNL     1       1.169  12.525  17.598  0.00  0.00    +0.000 HD
ENDBRANCH   5  30
TORSDOF 5
ENDMDL
MODEL 9
REMARK VINA RESULT:      -7.6      3.123      3.806
REMARK  Name = 
REMARK  6 active torsions:
REMARK  status: ('A' for Active; 'I' for Inactive)
REMARK    1  A    between atoms: C_1  and  O_2
REMARK    2  A    between atoms: O_2  and  C_3
REMARK    3  A    between atoms: C_6  and  C_7
REMARK    4  A    between atoms: C_11  and  N_12
REMARK    5  A    between atoms: C_13  and  C_14
REMARK    6  A    between atoms: N_16  and  C_17
REMARK                            x       y       z     vdW  Elec       q    Type
REMARK                         _______ _______ _______ _____ _____    ______ ____
ROOT
ATOM      1  C   UNL     1      -0.074  11.004  20.714  0.00  0.00    +0.000 A 
ATOM      2  C   UNL     1      -0.065  10.181  21.843  0.00  0.00    +0.000 A 
ATOM      3  C   UNL     1       0.538   8.928  21.786  0.00  0.00    +0.000 A 
ATOM      4  C   UNL     1       1.145   8.535  20.579  0.00  0.00    +0.000 A 
ATOM      5  C   UNL     1       1.851   7.354  20.183  0.00  0.00    +0.000 A 
ATOM      6  C   UNL     1       2.314   7.406  18.878  0.00  0.00    +0.000 A 
ATOM      7  S   UNL     1       1.857   8.883  18.128  0.00  0.00    +0.000 S 
ATOM      8  C   UNL     1       1.086   9.443  19.532  0.00  0.00    +0.000 A 
ATOM      9  N   UNL     1       0.505  10.657  19.544  0.00  0.00    +0.000 NA
ENDROOT
BRANCH   1  13
ATOM     10  C   UNL     1      -2.017  14.855  20.731  0.00  0.00    +0.000 A 
ATOM     11  C   UNL     1      -0.873  14.646  19.963  0.00  0.00    +0.000 A 
ATOM     12  C   UNL     1      -0.246  13.393  19.950  0.00  0.00    +0.000 A 
ATOM     13  C   UNL     1      -0.738  12.326  20.723  0.00  0.00    +0.000 A 
ATOM     14  C   UNL     1      -1.885  12.566  21.497  0.00  0.00    +0.000 A 
ATOM     15  C   UNL     1      -2.513  13.814  21.510  0.00  0.00    +0.000 A 
BRANCH  10  17
ATOM     16  C   UNL     1      -3.346  16.484  21.797  0.00  0.00    +0.000 C 
ATOM     17  O   UNL     1      -2.548  16.115  20.679  0.00  0.00    +0.000 OA
ENDBRANCH  10  17
ENDBRANCH   1  13
BRANCH   6  18
ATOM     18  C   UNL     1       3.076   6.392  18.152  0.00  0.00    +0.000 C 
ATOM     19  O   UNL     1       2.586   5.300  17.870  0.00  0.00    +0.000 OA
ATOM     20  N   UNL     1       4.384   6.742  17.855  0.00  0.00    +0.000 N 
ATOM     21  H   UNL     1       4.724   7.611  18.260  0.00  0.00    +0.000 HD
BRANCH  20  22
ATOM     22  C   UNL     1       5.341   5.982  17.149  0.00  0.00    +0.000 A 
ATOM     23  C   UNL     1       5.306   5.780  15.770  0.00  0.00    +0.000 A 
ATOM     24  C   UNL     1       6.285   4.998  15.161  0.00  0.00    +0.000 A 
ATOM     25  F   UNL     1       6.244   4.812  13.835  0.00  0.00    +0.000 F 
ATOM     26  C   UNL     1       7.307   4.407  15.899  0.00  0.00    +0.000 A 
ATOM     27  C   UNL     1       7.363   4.617  17.275  0.00  0.00    +0.000 A 
ATOM     28  C   UNL     1       6.388   5.408  17.884  0.00  0.00    +0.000 A 
ATOM     29  F   UNL     1       6.452   5.602  19.211  0.00  0.00    +0.000 F 
ENDBRANCH  20  22
ENDBRANCH   6  18
BRANCH   5  30
ATOM     30  N   UNL     1       2.055   6.311  21.016  0.00  0.00    +0.000 N 
ATOM     31  H   UNL     1       2.055   6.387  22.028  0.00  0.00    +0.000 HD
ATOM     32  H   UNL     1       2.068   5.350  20.668  0.00  0.00    +0.000 HD
ENDBRANCH   5  30
TORSDOF 5
ENDMDL
