MODEL 1
REMARK VINA RESULT:      -7.1      0.000      0.000
REMARK  Name = 
REMARK  11 active torsions:
REMARK  status: ('A' for Active; 'I' for Inactive)
REMARK    1  A    between atoms: C_1  and  N_2
REMARK    2  A    between atoms: N_2  and  C_3
REMARK    3  A    between atoms: N_2  and  C_4
REMARK    4  A    between atoms: C_4  and  C_5
REMARK    5  A    between atoms: C_5  and  O_6
REMARK    6  A    between atoms: O_6  and  N_7
REMARK    7  A    between atoms: N_21  and  C_22
REMARK    8  A    between atoms: C_22  and  C_23
REMARK    9  A    between atoms: C_23  and  N_24
REMARK   10  A    between atoms: N_24  and  C_25
REMARK   11  A    between atoms: N_24  and  C_26
REMARK                            x       y       z     vdW  Elec       q    Type
REMARK                         _______ _______ _______ _____ _____    ______ ____
ROOT
ATOM      1  N   UNL     1       2.373   7.191  19.074  0.00  0.00    +0.000 NA
ATOM      2  C   UNL     1       2.839   6.058  18.630  0.00  0.00    +0.000 C 
ATOM      3  C   UNL     1       2.399   4.795  19.297  0.00  0.00    +0.000 A 
ATOM      4  C   UNL     1       1.480   4.852  20.354  0.00  0.00    +0.000 A 
ATOM      5  C   UNL     1       1.099   3.670  20.962  0.00  0.00    +0.000 A 
ATOM      6  N   UNL     1       1.569   2.460  20.589  0.00  0.00    +0.000 NA
ATOM      7  C   UNL     1       2.452   2.426  19.559  0.00  0.00    +0.000 A 
ATOM      8  C   UNL     1       2.894   3.555  18.882  0.00  0.00    +0.000 A 
ATOM      9  C   UNL     1       3.859   3.423  17.765  0.00  0.00    +0.000 C 
ATOM     10  O   UNL     1       4.242   2.305  17.434  0.00  0.00    +0.000 OA
ATOM     11  C   UNL     1       4.278   4.657  17.139  0.00  0.00    +0.000 A 
ATOM     12  C   UNL     1       3.800   5.909  17.532  0.00  0.00    +0.000 A 
ATOM     13  C   UNL     1       4.436   6.862  16.694  0.00  0.00    +0.000 A 
ATOM     14  C   UNL     1       5.242   6.188  15.815  0.00  0.00    +0.000 A 
ATOM     15  N   UNL     1       5.172   4.846  16.105  0.00  0.00    +0.000 N 
ENDROOT
BRANCH   1  16
ATOM     16  O   UNL     1       2.805   8.285  18.329  0.00  0.00    +0.000 OA
BRANCH  16  17
ATOM     17  C   UNL     1       1.691   9.079  17.933  0.00  0.00    +0.000 C 
BRANCH  17  18
ATOM     18  C   UNL     1       1.063   9.646  19.216  0.00  0.00    +0.000 C 
BRANCH  18  20
ATOM     19  C   UNL     1       0.025  11.808  19.063  0.00  0.00    +0.000 C 
ATOM     20  N   UNL     1      -0.212  10.361  19.029  0.00  0.00    +0.000 NA
ATOM     21  C   UNL     1      -0.858   9.997  17.768  0.00  0.00    +0.000 C 
ENDBRANCH  18  20
ENDBRANCH  17  18
ENDBRANCH  16  17
ENDBRANCH   1  16
BRANCH  15  22
ATOM     22  C   UNL     1       5.968   3.867  15.360  0.00  0.00    +0.000 C 
BRANCH  22  23
ATOM     23  C   UNL     1       6.670   4.527  14.154  0.00  0.00    +0.000 C 
BRANCH  23  24
ATOM     24  N   UNL     1       6.694   3.770  12.884  0.00  0.00    +0.000 NA
ATOM     25  C   UNL     1       5.354   3.370  12.444  0.00  0.00    +0.000 C 
ATOM     26  C   UNL     1       7.305   4.617  11.848  0.00  0.00    +0.000 C 
ENDBRANCH  23  24
ENDBRANCH  22  23
ENDBRANCH  15  22
TORSDOF 7
ENDMDL
MODEL 2
REMARK VINA RESULT:      -7.0      2.262      6.487
REMARK  Name = 
REMARK  11 active torsions:
REMARK  status: ('A' for Active; 'I' for Inactive)
REMARK    1  A    between atoms: C_1  and  N_2
REMARK    2  A    between atoms: N_2  and  C_3
REMARK    3  A    between atoms: N_2  and  C_4
REMARK    4  A    between atoms: C_4  and  C_5
REMARK    5  A    between atoms: C_5  and  O_6
REMARK    6  A    between atoms: O_6  and  N_7
REMARK    7  A    between atoms: N_21  and  C_22
REMARK    8  A    between atoms: C_22  and  C_23
REMARK    9  A    between atoms: C_23  and  N_24
REMARK   10  A    between atoms: N_24  and  C_25
REMARK   11  A    between atoms: N_24  and  C_26
REMARK                            x       y       z     vdW  Elec       q    Type
REMARK                         _______ _______ _______ _____ _____    ______ ____
ROOT
ATOM      1  N   UNL     1       4.838   4.081  17.709  0.00  0.00    +0.000 NA
ATOM      2  C   UNL     1       4.009   4.707  18.495  0.00  0.00    +0.000 C 
ATOM      3  C   UNL     1       3.485   3.988  19.696  0.00  0.00    +0.000 A 
ATOM      4  C   UNL     1       3.917   2.682  19.967  0.00  0.00    +0.000 A 
ATOM      5  C   UNL     1       3.407   2.035  21.078  0.00  0.00    +0.000 A 
ATOM      6  N   UNL     1       2.512   2.600  21.917  0.00  0.00    +0.000 NA
ATOM      7  C   UNL     1       2.113   3.867  21.642  0.00  0.00    +0.000 A 
ATOM      8  C   UNL     1       2.568   4.601  20.555  0.00  0.00    +0.000 A 
ATOM      9  C   UNL     1       2.079   5.982  20.333  0.00  0.00    +0.000 C 
ATOM     10  O   UNL     1       1.288   6.474  21.133  0.00  0.00    +0.000 OA
ATOM     11  C   UNL     1       2.591   6.657  19.161  0.00  0.00    +0.000 A 
ATOM     12  C   UNL     1       3.508   6.069  18.287  0.00  0.00    +0.000 A 
ATOM     13  C   UNL     1       3.766   7.029  17.273  0.00  0.00    +0.000 A 
ATOM     14  C   UNL     1       3.044   8.157  17.558  0.00  0.00    +0.000 A 
ATOM     15  N   UNL     1       2.303   7.921  18.691  0.00  0.00    +0.000 N 
ENDROOT
BRANCH   1  16
ATOM     16  O   UNL     1       5.303   4.878  16.666  0.00  0.00    +0.000 OA
BRANCH  16  17
ATOM     17  C   UNL     1       6.714   4.741  16.537  0.00  0.00    +0.000 C 
BRANCH  17  18
ATOM     18  C   UNL     1       7.307   6.159  16.545  0.00  0.00    +0.000 C 
BRANCH  18  20
ATOM     19  C   UNL     1       7.824   6.030  18.889  0.00  0.00    +0.000 C 
ATOM     20  N   UNL     1       7.234   6.865  17.837  0.00  0.00    +0.000 NA
ATOM     21  C   UNL     1       7.920   8.156  17.789  0.00  0.00    +0.000 C 
ENDBRANCH  18  20
ENDBRANCH  17  18
ENDBRANCH  16  17
ENDBRANCH   1  16
BRANCH  15  22
ATOM     22  C   UNL     1       1.385   8.934  19.222  0.00  0.00    +0.000 C 
BRANCH  22  23
ATOM     23  C   UNL     1       1.483  10.246  18.414  0.00  0.00    +0.000 C 
BRANCH  23  24
ATOM     24  N   UNL     1       0.551  11.337  18.773  0.00  0.00    +0.000 NA
ATOM     25  C   UNL     1      -0.836  10.877  18.883  0.00  0.00    +0.000 C 
ATOM     26  C   UNL     1       0.972  11.902  20.064  0.00  0.00    +0.000 C 
ENDBRANCH  23  24
ENDBRANCH  22  23
ENDBRANCH  15  22
TORSDOF 7
ENDMDL
MODEL 3
REMARK VINA RESULT:      -6.9      0.660      1.104
REMARK  Name = 
REMARK  11 active torsions:
REMARK  status: ('A' for Active; 'I' for Inactive)
REMARK    1  A    between atoms: C_1  and  N_2
REMARK    2  A    between atoms: N_2  and  C_3
REMARK    3  A    between atoms: N_2  and  C_4
REMARK    4  A    between atoms: C_4  and  C_5
REMARK    5  A    between atoms: C_5  and  O_6
REMARK    6  A    between atoms: O_6  and  N_7
REMARK    7  A    between atoms: N_21  and  C_22
REMARK    8  A    between atoms: C_22  and  C_23
REMARK    9  A    between atoms: C_23  and  N_24
REMARK   10  A    between atoms: N_24  and  C_25
REMARK   11  A    between atoms: N_24  and  C_26
REMARK                            x       y       z     vdW  Elec       q    Type
REMARK                         _______ _______ _______ _____ _____    ______ ____
ROOT
ATOM      1  N   UNL     1       2.198   7.170  19.276  0.00  0.00    +0.000 NA
ATOM      2  C   UNL     1       2.717   6.067  18.817  0.00  0.00    +0.000 C 
ATOM      3  C   UNL     1       2.305   4.772  19.440  0.00  0.00    +0.000 A 
ATOM      4  C   UNL     1       1.356   4.769  20.472  0.00  0.00    +0.000 A 
ATOM      5  C   UNL     1       1.002   3.558  21.040  0.00  0.00    +0.000 A 
ATOM      6  N   UNL     1       1.526   2.377  20.649  0.00  0.00    +0.000 NA
ATOM      7  C   UNL     1       2.437   2.401  19.644  0.00  0.00    +0.000 A 
ATOM      8  C   UNL     1       2.856   3.562  19.008  0.00  0.00    +0.000 A 
ATOM      9  C   UNL     1       3.855   3.494  17.916  0.00  0.00    +0.000 C 
ATOM     10  O   UNL     1       4.287   2.399  17.568  0.00  0.00    +0.000 OA
ATOM     11  C   UNL     1       4.245   4.757  17.332  0.00  0.00    +0.000 A 
ATOM     12  C   UNL     1       3.711   5.981  17.743  0.00  0.00    +0.000 A 
ATOM     13  C   UNL     1       4.335   6.977  16.947  0.00  0.00    +0.000 A 
ATOM     14  C   UNL     1       5.188   6.355  16.074  0.00  0.00    +0.000 A 
ATOM     15  N   UNL     1       5.159   5.005  16.329  0.00  0.00    +0.000 N 
ENDROOT
BRANCH   1  16
ATOM     16  O   UNL     1       2.609   8.298  18.570  0.00  0.00    +0.000 OA
BRANCH  16  17
ATOM     17  C   UNL     1       1.478   9.047  18.139  0.00  0.00    +0.000 C 
BRANCH  17  18
ATOM     18  C   UNL     1       0.996   9.871  19.344  0.00  0.00    +0.000 C 
BRANCH  18  20
ATOM     19  C   UNL     1      -1.042  10.209  18.115  0.00  0.00    +0.000 C 
ATOM     20  N   UNL     1      -0.100  10.815  19.063  0.00  0.00    +0.000 NA
ATOM     21  C   UNL     1      -0.809  11.201  20.283  0.00  0.00    +0.000 C 
ENDBRANCH  18  20
ENDBRANCH  17  18
ENDBRANCH  16  17
ENDBRANCH   1  16
BRANCH  15  22
ATOM     22  C   UNL     1       6.010   4.074  15.582  0.00  0.00    +0.000 C 
BRANCH  22  23
ATOM     23  C   UNL     1       7.157   4.823  14.869  0.00  0.00    +0.000 C 
BRANCH  23  24
ATOM     24  N   UNL     1       7.012   5.062  13.417  0.00  0.00    +0.000 NA
ATOM     25  C   UNL     1       8.261   5.510  12.795  0.00  0.00    +0.000 C 
ATOM     26  C   UNL     1       6.583   3.808  12.779  0.00  0.00    +0.000 C 
ENDBRANCH  23  24
ENDBRANCH  22  23
ENDBRANCH  15  22
TORSDOF 7
ENDMDL
MODEL 4
REMARK VINA RESULT:      -6.8      2.450      7.100
REMARK  Name = 
REMARK  11 active torsions:
REMARK  status: ('A' for Active; 'I' for Inactive)
REMARK    1  A    between atoms: C_1  and  N_2
REMARK    2  A    between atoms: N_2  and  C_3
REMARK    3  A    between atoms: N_2  and  C_4
REMARK    4  A    between atoms: C_4  and  C_5
REMARK    5  A    between atoms: C_5  and  O_6
REMARK    6  A    between atoms: O_6  and  N_7
REMARK    7  A    between atoms: N_21  and  C_22
REMARK    8  A    between atoms: C_22  and  C_23
REMARK    9  A    between atoms: C_23  and  N_24
REMARK   10  A    between atoms: N_24  and  C_25
REMARK   11  A    between atoms: N_24  and  C_26
REMARK                            x       y       z     vdW  Elec       q    Type
REMARK                         _______ _______ _______ _____ _____    ______ ____
ROOT
ATOM      1  N   UNL     1       4.383   5.240  17.367  0.00  0.00    +0.000 NA
ATOM      2  C   UNL     1       3.576   5.640  18.309  0.00  0.00    +0.000 C 
ATOM      3  C   UNL     1       3.226   4.684  19.402  0.00  0.00    +0.000 A 
ATOM      4  C   UNL     1       3.791   3.401  19.410  0.00  0.00    +0.000 A 
ATOM      5  C   UNL     1       3.440   2.531  20.427  0.00  0.00    +0.000 A 
ATOM      6  N   UNL     1       2.578   2.856  21.414  0.00  0.00    +0.000 NA
ATOM      7  C   UNL     1       2.049   4.105  21.393  0.00  0.00    +0.000 A 
ATOM      8  C   UNL     1       2.339   5.051  20.419  0.00  0.00    +0.000 A 
ATOM      9  C   UNL     1       1.715   6.394  20.476  0.00  0.00    +0.000 C 
ATOM     10  O   UNL     1       0.960   6.664  21.406  0.00  0.00    +0.000 OA
ATOM     11  C   UNL     1       2.061   7.301  19.405  0.00  0.00    +0.000 A 
ATOM     12  C   UNL     1       2.944   6.962  18.377  0.00  0.00    +0.000 A 
ATOM     13  C   UNL     1       3.027   8.097  17.529  0.00  0.00    +0.000 A 
ATOM     14  C   UNL     1       2.239   9.084  18.058  0.00  0.00    +0.000 A 
ATOM     15  N   UNL     1       1.624   8.591  19.184  0.00  0.00    +0.000 N 
ENDROOT
BRANCH   1  16
ATOM     16  O   UNL     1       4.683   6.241  16.447  0.00  0.00    +0.000 OA
BRANCH  16  17
ATOM     17  C   UNL     1       6.054   6.165  16.070  0.00  0.00    +0.000 C 
BRANCH  17  18
ATOM     18  C   UNL     1       6.873   6.762  17.226  0.00  0.00    +0.000 C 
BRANCH  18  20
ATOM     19  C   UNL     1       7.426   5.753  19.337  0.00  0.00    +0.000 C 
ATOM     20  N   UNL     1       7.772   5.817  17.913  0.00  0.00    +0.000 NA
ATOM     21  C   UNL     1       7.702   4.479  17.327  0.00  0.00    +0.000 C 
ENDBRANCH  18  20
ENDBRANCH  17  18
ENDBRANCH  16  17
ENDBRANCH   1  16
BRANCH  15  22
ATOM     22  C   UNL     1       0.674   9.405  19.948  0.00  0.00    +0.000 C 
BRANCH  22  23
ATOM     23  C   UNL     1       1.332   9.969  21.226  0.00  0.00    +0.000 C 
BRANCH  23  24
ATOM     24  N   UNL     1       0.466  10.717  22.163  0.00  0.00    +0.000 NA
ATOM     25  C   UNL     1      -0.493  11.582  21.472  0.00  0.00    +0.000 C 
ATOM     26  C   UNL     1      -0.270   9.749  22.990  0.00  0.00    +0.000 C 
ENDBRANCH  23  24
ENDBRANCH  22  23
ENDBRANCH  15  22
TORSDOF 7
ENDMDL
MODEL 5
REMARK VINA RESULT:      -6.7      1.873      2.540
REMARK  Name = 
REMARK  11 active torsions:
REMARK  status: ('A' for Active; 'I' for Inactive)
REMARK    1  A    between atoms: C_1  and  N_2
REMARK    2  A    between atoms: N_2  and  C_3
REMARK    3  A    between atoms: N_2  and  C_4
REMARK    4  A    between atoms: C_4  and  C_5
REMARK    5  A    between atoms: C_5  and  O_6
REMARK    6  A    between atoms: O_6  and  N_7
REMARK    7  A    between atoms: N_21  and  C_22
REMARK    8  A    between atoms: C_22  and  C_23
REMARK    9  A    between atoms: C_23  and  N_24
REMARK   10  A    between atoms: N_24  and  C_25
REMARK   11  A    between atoms: N_24  and  C_26
REMARK                            x       y       z     vdW  Elec       q    Type
REMARK                         _______ _______ _______ _____ _____    ______ ____
ROOT
ATOM      1  N   UNL     1       1.792   7.111  19.934  0.00  0.00    +0.000 NA
ATOM      2  C   UNL     1       2.391   6.142  19.302  0.00  0.00    +0.000 C 
ATOM      3  C   UNL     1       2.212   4.746  19.805  0.00  0.00    +0.000 A 
ATOM      4  C   UNL     1       1.388   4.508  20.914  0.00  0.00    +0.000 A 
ATOM      5  C   UNL     1       1.250   3.208  21.367  0.00  0.00    +0.000 A 
ATOM      6  N   UNL     1       1.871   2.155  20.794  0.00  0.00    +0.000 NA
ATOM      7  C   UNL     1       2.658   2.405  19.718  0.00  0.00    +0.000 A 
ATOM      8  C   UNL     1       2.859   3.672  19.185  0.00  0.00    +0.000 A 
ATOM      9  C   UNL     1       3.735   3.853  18.004  0.00  0.00    +0.000 C 
ATOM     10  O   UNL     1       4.260   2.869  17.492  0.00  0.00    +0.000 OA
ATOM     11  C   UNL     1       3.901   5.212  17.538  0.00  0.00    +0.000 A 
ATOM     12  C   UNL     1       3.267   6.303  18.138  0.00  0.00    +0.000 A 
ATOM     13  C   UNL     1       3.673   7.451  17.408  0.00  0.00    +0.000 A 
ATOM     14  C   UNL     1       4.497   7.044  16.393  0.00  0.00    +0.000 A 
ATOM     15  N   UNL     1       4.663   5.683  16.490  0.00  0.00    +0.000 N 
ENDROOT
BRANCH   1  16
ATOM     16  O   UNL     1       1.982   8.352  19.329  0.00  0.00    +0.000 OA
BRANCH  16  17
ATOM     17  C   UNL     1       1.129   9.323  19.925  0.00  0.00    +0.000 C 
BRANCH  17  18
ATOM     18  C   UNL     1       1.045   8.991  21.424  0.00  0.00    +0.000 C 
BRANCH  18  20
ATOM     19  C   UNL     1       0.080  11.192  21.489  0.00  0.00    +0.000 C 
ATOM     20  N   UNL     1       0.661  10.114  22.297  0.00  0.00    +0.000 NA
ATOM     21  C   UNL     1      -0.293   9.700  23.325  0.00  0.00    +0.000 C 
ENDBRANCH  18  20
ENDBRANCH  17  18
ENDBRANCH  16  17
ENDBRANCH   1  16
BRANCH  15  22
ATOM     22  C   UNL     1       5.538   4.958  15.564  0.00  0.00    +0.000 C 
BRANCH  22  23
ATOM     23  C   UNL     1       6.925   5.631  15.472  0.00  0.00    +0.000 C 
BRANCH  23  24
ATOM     24  N   UNL     1       7.763   5.628  16.690  0.00  0.00    +0.000 NA
ATOM     25  C   UNL     1       7.570   6.828  17.507  0.00  0.00    +0.000 C 
ATOM     26  C   UNL     1       7.419   4.442  17.490  0.00  0.00    +0.000 C 
ENDBRANCH  23  24
ENDBRANCH  22  23
ENDBRANCH  15  22
TORSDOF 7
ENDMDL
MODEL 6
REMARK VINA RESULT:      -6.7      2.292      6.885
REMARK  Name = 
REMARK  11 active torsions:
REMARK  status: ('A' for Active; 'I' for Inactive)
REMARK    1  A    between atoms: C_1  and  N_2
REMARK    2  A    between atoms: N_2  and  C_3
REMARK    3  A    between atoms: N_2  and  C_4
REMARK    4  A    between atoms: C_4  and  C_5
REMARK    5  A    between atoms: C_5  and  O_6
REMARK    6  A    between atoms: O_6  and  N_7
REMARK    7  A    between atoms: N_21  and  C_22
REMARK    8  A    between atoms: C_22  and  C_23
REMARK    9  A    between atoms: C_23  and  N_24
REMARK   10  A    between atoms: N_24  and  C_25
REMARK   11  A    between atoms: N_24  and  C_26
REMARK                            x       y       z     vdW  Elec       q    Type
REMARK                         _______ _______ _______ _____ _____    ______ ____
ROOT
ATOM      1  N   UNL     1       4.356   4.962  17.251  0.00  0.00    +0.000 NA
ATOM      2  C   UNL     1       3.602   5.435  18.202  0.00  0.00    +0.000 C 
ATOM      3  C   UNL     1       3.245   4.537  19.343  0.00  0.00    +0.000 A 
ATOM      4  C   UNL     1       3.749   3.229  19.380  0.00  0.00    +0.000 A 
ATOM      5  C   UNL     1       3.393   2.414  20.440  0.00  0.00    +0.000 A 
ATOM      6  N   UNL     1       2.582   2.816  21.442  0.00  0.00    +0.000 NA
ATOM      7  C   UNL     1       2.112   4.088  21.391  0.00  0.00    +0.000 A 
ATOM      8  C   UNL     1       2.413   4.983  20.373  0.00  0.00    +0.000 A 
ATOM      9  C   UNL     1       1.855   6.356  20.400  0.00  0.00    +0.000 C 
ATOM     10  O   UNL     1       1.146   6.696  21.343  0.00  0.00    +0.000 OA
ATOM     11  C   UNL     1       2.206   7.206  19.284  0.00  0.00    +0.000 A 
ATOM     12  C   UNL     1       3.036   6.787  18.242  0.00  0.00    +0.000 A 
ATOM     13  C   UNL     1       3.142   7.885  17.349  0.00  0.00    +0.000 A 
ATOM     14  C   UNL     1       2.420   8.928  17.866  0.00  0.00    +0.000 A 
ATOM     15  N   UNL     1       1.823   8.506  19.029  0.00  0.00    +0.000 N 
ENDROOT
BRANCH   1  16
ATOM     16  O   UNL     1       4.671   5.913  16.284  0.00  0.00    +0.000 OA
BRANCH  16  17
ATOM     17  C   UNL     1       6.052   5.833  15.949  0.00  0.00    +0.000 C 
BRANCH  17  18
ATOM     18  C   UNL     1       6.824   6.601  17.034  0.00  0.00    +0.000 C 
BRANCH  18  20
ATOM     19  C   UNL     1       7.240   5.795  19.260  0.00  0.00    +0.000 C 
ATOM     20  N   UNL     1       7.716   5.780  17.873  0.00  0.00    +0.000 NA
ATOM     21  C   UNL     1       7.791   4.400  17.393  0.00  0.00    +0.000 C 
ENDBRANCH  18  20
ENDBRANCH  17  18
ENDBRANCH  16  17
ENDBRANCH   1  16
BRANCH  15  22
ATOM     22  C   UNL     1       0.939   9.392  19.793  0.00  0.00    +0.000 C 
BRANCH  22  23
ATOM     23  C   UNL     1       0.950  10.821  19.208  0.00  0.00    +0.000 C 
BRANCH  23  24
ATOM     24  N   UNL     1       0.392  11.903  20.048  0.00  0.00    +0.000 NA
ATOM     25  C   UNL     1      -0.406  11.392  21.165  0.00  0.00    +0.000 C 
ATOM     26  C   UNL     1       1.507  12.701  20.581  0.00  0.00    +0.000 C 
ENDBRANCH  23  24
ENDBRANCH  22  23
ENDBRANCH  15  22
TORSDOF 7
ENDMDL
MODEL 7
REMARK VINA RESULT:      -6.7      2.408      3.108
REMARK  Name = 
REMARK  11 active torsions:
REMARK  status: ('A' for Active; 'I' for Inactive)
REMARK    1  A    between atoms: C_1  and  N_2
REMARK    2  A    between atoms: N_2  and  C_3
REMARK    3  A    between atoms: N_2  and  C_4
REMARK    4  A    between atoms: C_4  and  C_5
REMARK    5  A    between atoms: C_5  and  O_6
REMARK    6  A    between atoms: O_6  and  N_7
REMARK    7  A    between atoms: N_21  and  C_22
REMARK    8  A    between atoms: C_22  and  C_23
REMARK    9  A    between atoms: C_23  and  N_24
REMARK   10  A    between atoms: N_24  and  C_25
REMARK   11  A    between atoms: N_24  and  C_26
REMARK                            x       y       z     vdW  Elec       q    Type
REMARK                         _______ _______ _______ _____ _____    ______ ____
ROOT
ATOM      1  N   UNL     1       1.502   6.930  20.652  0.00  0.00    +0.000 NA
ATOM      2  C   UNL     1       2.291   6.191  19.925  0.00  0.00    +0.000 C 
ATOM      3  C   UNL     1       2.517   4.772  20.335  0.00  0.00    +0.000 A 
ATOM      4  C   UNL     1       1.858   4.262  21.462  0.00  0.00    +0.000 A 
ATOM      5  C   UNL     1       2.095   2.948  21.828  0.00  0.00    +0.000 A 
ATOM      6  N   UNL     1       2.931   2.132  21.152  0.00  0.00    +0.000 NA
ATOM      7  C   UNL     1       3.554   2.642  20.060  0.00  0.00    +0.000 A 
ATOM      8  C   UNL     1       3.381   3.945  19.610  0.00  0.00    +0.000 A 
ATOM      9  C   UNL     1       4.100   4.418  18.404  0.00  0.00    +0.000 C 
ATOM     10  O   UNL     1       4.829   3.638  17.798  0.00  0.00    +0.000 OA
ATOM     11  C   UNL     1       3.873   5.796  18.029  0.00  0.00    +0.000 A 
ATOM     12  C   UNL     1       3.017   6.644  18.734  0.00  0.00    +0.000 A 
ATOM     13  C   UNL     1       3.059   7.898  18.070  0.00  0.00    +0.000 A 
ATOM     14  C   UNL     1       3.894   7.782  16.990  0.00  0.00    +0.000 A 
ATOM     15  N   UNL     1       4.416   6.511  16.981  0.00  0.00    +0.000 N 
ENDROOT
BRANCH   1  16
ATOM     16  O   UNL     1       1.321   8.208  20.129  0.00  0.00    +0.000 OA
BRANCH  16  17
ATOM     17  C   UNL     1       0.306   8.895  20.854  0.00  0.00    +0.000 C 
BRANCH  17  18
ATOM     18  C   UNL     1       0.907  10.233  21.313  0.00  0.00    +0.000 C 
BRANCH  18  20
ATOM     19  C   UNL     1      -0.819  11.887  21.569  0.00  0.00    +0.000 C 
ATOM     20  N   UNL     1       0.095  10.988  22.283  0.00  0.00    +0.000 NA
ATOM     21  C   UNL     1      -0.671  10.099  23.157  0.00  0.00    +0.000 C 
ENDBRANCH  18  20
ENDBRANCH  17  18
ENDBRANCH  16  17
ENDBRANCH   1  16
BRANCH  15  22
ATOM     22  C   UNL     1       5.388   6.097  15.965  0.00  0.00    +0.000 C 
BRANCH  22  23
ATOM     23  C   UNL     1       6.820   6.084  16.542  0.00  0.00    +0.000 C 
BRANCH  23  24
ATOM     24  N   UNL     1       7.034   6.749  17.845  0.00  0.00    +0.000 NA
ATOM     25  C   UNL     1       7.782   5.912  18.786  0.00  0.00    +0.000 C 
ATOM     26  C   UNL     1       7.779   7.996  17.615  0.00  0.00    +0.000 C 
ENDBRANCH  23  24
ENDBRANCH  22  23
ENDBRANCH  15  22
TORSDOF 7
ENDMDL
MODEL 8
REMARK VINA RESULT:      -6.7      1.501      6.961
REMARK  Name = 
REMARK  11 active torsions:
REMARK  status: ('A' for Active; 'I' for Inactive)
REMARK    1  A    between atoms: C_1  and  N_2
REMARK    2  A    between atoms: N_2  and  C_3
REMARK    3  A    between atoms: N_2  and  C_4
REMARK    4  A    between atoms: C_4  and  C_5
REMARK    5  A    between atoms: C_5  and  O_6
REMARK    6  A    between atoms: O_6  and  N_7
REMARK    7  A    between atoms: N_21  and  C_22
REMARK    8  A    between atoms: C_22  and  C_23
REMARK    9  A    between atoms: C_23  and  N_24
REMARK   10  A    between atoms: N_24  and  C_25
REMARK   11  A    between atoms: N_24  and  C_26
REMARK                            x       y       z     vdW  Elec       q    Type
REMARK                         _______ _______ _______ _____ _____    ______ ____
ROOT
ATOM      1  N   UNL     1       4.970   4.159  17.732  0.00  0.00    +0.000 NA
ATOM      2  C   UNL     1       4.111   4.752  18.510  0.00  0.00    +0.000 C 
ATOM      3  C   UNL     1       3.577   4.002  19.688  0.00  0.00    +0.000 A 
ATOM      4  C   UNL     1       4.033   2.702  19.946  0.00  0.00    +0.000 A 
ATOM      5  C   UNL     1       3.514   2.024  21.035  0.00  0.00    +0.000 A 
ATOM      6  N   UNL     1       2.588   2.554  21.863  0.00  0.00    +0.000 NA
ATOM      7  C   UNL     1       2.166   3.816  21.600  0.00  0.00    +0.000 A 
ATOM      8  C   UNL     1       2.627   4.579  20.535  0.00  0.00    +0.000 A 
ATOM      9  C   UNL     1       2.112   5.953  20.325  0.00  0.00    +0.000 C 
ATOM     10  O   UNL     1       1.293   6.412  21.116  0.00  0.00    +0.000 OA
ATOM     11  C   UNL     1       2.634   6.658  19.176  0.00  0.00    +0.000 A 
ATOM     12  C   UNL     1       3.584   6.106  18.313  0.00  0.00    +0.000 A 
ATOM     13  C   UNL     1       3.841   7.089  17.321  0.00  0.00    +0.000 A 
ATOM     14  C   UNL     1       3.088   8.195  17.609  0.00  0.00    +0.000 A 
ATOM     15  N   UNL     1       2.327   7.924  18.721  0.00  0.00    +0.000 N 
ENDROOT
BRANCH   1  16
ATOM     16  O   UNL     1       5.440   4.983  16.713  0.00  0.00    +0.000 OA
BRANCH  16  17
ATOM     17  C   UNL     1       6.301   4.251  15.847  0.00  0.00    +0.000 C 
BRANCH  17  18
ATOM     18  C   UNL     1       5.804   4.486  14.412  0.00  0.00    +0.000 C 
BRANCH  18  20
ATOM     19  C   UNL     1       5.814   3.291  12.326  0.00  0.00    +0.000 C 
ATOM     20  N   UNL     1       6.655   3.920  13.350  0.00  0.00    +0.000 NA
ATOM     21  C   UNL     1       7.502   4.940  12.733  0.00  0.00    +0.000 C 
ENDBRANCH  18  20
ENDBRANCH  17  18
ENDBRANCH  16  17
ENDBRANCH   1  16
BRANCH  15  22
ATOM     22  C   UNL     1       1.376   8.906  19.248  0.00  0.00    +0.000 C 
BRANCH  22  23
ATOM     23  C   UNL     1       1.187  10.078  18.260  0.00  0.00    +0.000 C 
BRANCH  23  24
ATOM     24  N   UNL     1       0.386  11.232  18.720  0.00  0.00    +0.000 NA
ATOM     25  C   UNL     1      -1.056  10.983  18.639  0.00  0.00    +0.000 C 
ATOM     26  C   UNL     1       0.744  11.522  20.117  0.00  0.00    +0.000 C 
ENDBRANCH  23  24
ENDBRANCH  22  23
ENDBRANCH  15  22
TORSDOF 7
ENDMDL
MODEL 9
REMARK VINA RESULT:      -6.6      1.619      6.900
REMARK  Name = 
REMARK  11 active torsions:
REMARK  status: ('A' for Active; 'I' for Inactive)
REMARK    1  A    between atoms: C_1  and  N_2
REMARK    2  A    between atoms: N_2  and  C_3
REMARK    3  A    between atoms: N_2  and  C_4
REMARK    4  A    between atoms: C_4  and  C_5
REMARK    5  A    between atoms: C_5  and  O_6
REMARK    6  A    between atoms: O_6  and  N_7
REMARK    7  A    between atoms: N_21  and  C_22
REMARK    8  A    between atoms: C_22  and  C_23
REMARK    9  A    between atoms: C_23  and  N_24
REMARK   10  A    between atoms: N_24  and  C_25
REMARK   11  A    between atoms: N_24  and  C_26
REMARK                            x       y       z     vdW  Elec       q    Type
REMARK                         _______ _______ _______ _____ _____    ______ ____
ROOT
ATOM      1  N   UNL     1       4.703   4.876  17.426  0.00  0.00    +0.000 NA
ATOM      2  C   UNL     1       3.865   5.334  18.311  0.00  0.00    +0.000 C 
ATOM      3  C   UNL     1       3.442   4.433  19.426  0.00  0.00    +0.000 A 
ATOM      4  C   UNL     1       3.974   3.138  19.512  0.00  0.00    +0.000 A 
ATOM      5  C   UNL     1       3.556   2.319  20.546  0.00  0.00    +0.000 A 
ATOM      6  N   UNL     1       2.659   2.705  21.478  0.00  0.00    +0.000 NA
ATOM      7  C   UNL     1       2.162   3.964  21.382  0.00  0.00    +0.000 A 
ATOM      8  C   UNL     1       2.520   4.862  20.384  0.00  0.00    +0.000 A 
ATOM      9  C   UNL     1       1.927   6.220  20.358  0.00  0.00    +0.000 C 
ATOM     10  O   UNL     1       1.137   6.546  21.239  0.00  0.00    +0.000 OA
ATOM     11  C   UNL     1       2.343   7.073  19.268  0.00  0.00    +0.000 A 
ATOM     12  C   UNL     1       3.263   6.671  18.297  0.00  0.00    +0.000 A 
ATOM     13  C   UNL     1       3.412   7.768  17.408  0.00  0.00    +0.000 A 
ATOM     14  C   UNL     1       2.625   8.794  17.859  0.00  0.00    +0.000 A 
ATOM     15  N   UNL     1       1.949   8.362  18.975  0.00  0.00    +0.000 N 
ENDROOT
BRANCH   1  16
ATOM     16  O   UNL     1       5.070   5.831  16.480  0.00  0.00    +0.000 OA
BRANCH  16  17
ATOM     17  C   UNL     1       6.480   6.025  16.500  0.00  0.00    +0.000 C 
BRANCH  17  18
ATOM     18  C   UNL     1       7.095   4.959  15.579  0.00  0.00    +0.000 C 
BRANCH  18  20
ATOM     19  C   UNL     1       7.867   5.277  13.324  0.00  0.00    +0.000 C 
ATOM     20  N   UNL     1       6.688   5.040  14.164  0.00  0.00    +0.000 NA
ATOM     21  C   UNL     1       6.008   3.821  13.726  0.00  0.00    +0.000 C 
ENDBRANCH  18  20
ENDBRANCH  17  18
ENDBRANCH  16  17
ENDBRANCH   1  16
BRANCH  15  22
ATOM     22  C   UNL     1       0.985   9.229  19.660  0.00  0.00    +0.000 C 
BRANCH  22  23
ATOM     23  C   UNL     1       0.763  10.539  18.874  0.00  0.00    +0.000 C 
BRANCH  23  24
ATOM     24  N   UNL     1      -0.615  11.074  18.820  0.00  0.00    +0.000 NA
ATOM     25  C   UNL     1      -0.656  12.477  18.401  0.00  0.00    +0.000 C 
ATOM     26  C   UNL     1      -1.391  10.266  17.867  0.00  0.00    +0.000 C 
ENDBRANCH  23  24
ENDBRANCH  22  23
ENDBRANCH  15  22
TORSDOF 7
ENDMDL
