MODEL 1
REMARK VINA RESULT:      -6.9      0.000      0.000
REMARK  Name = 
REMARK  10 active torsions:
REMARK  status: ('A' for Active; 'I' for Inactive)
REMARK    1  A    between atoms: C_1  and  C_2
REMARK    2  A    between atoms: C_2  and  O_3
REMARK    3  A    between atoms: O_3  and  C_4
REMARK    4  A    between atoms: C_4  and  C_6
REMARK    5  A    between atoms: C_6  and  N_7
REMARK    6  A    between atoms: N_7  and  C_8
REMARK    7  A    between atoms: C_9  and  C_11
REMARK    8  A    between atoms: C_11  and  C_12
REMARK    9  A    between atoms: C_12  and  C_13
REMARK   10  A    between atoms: C_16  and  C_17
REMARK                            x       y       z     vdW  Elec       q    Type
REMARK                         _______ _______ _______ _____ _____    ______ ____
ROOT
ATOM      1  C   UNL     1       6.350   5.583  19.346  0.00  0.00    +0.000 C 
ENDROOT
BRANCH   1   4
ATOM      2  N   UNL     1       4.345   4.865  18.078  0.00  0.00    +0.000 N 
ATOM      3  C   UNL     1       4.216   6.205  17.530  0.00  0.00    +0.000 C 
ATOM      4  C   UNL     1       5.396   4.483  18.908  0.00  0.00    +0.000 C 
ATOM      5  O   UNL     1       5.516   3.333  19.327  0.00  0.00    +0.000 OA
BRANCH   2   6
ATOM      6  C   UNL     1       3.324   3.874  17.711  0.00  0.00    +0.000 C 
BRANCH   6   7
ATOM      7  C   UNL     1       1.867   4.155  18.068  0.00  0.00    +0.000 C 
ATOM      8  O   UNL     1       0.953   4.041  17.253  0.00  0.00    +0.000 OA
BRANCH   7   9
ATOM      9  O   UNL     1       1.708   4.599  19.346  0.00  0.00    +0.000 OA
BRANCH   9  11
ATOM     10  C   UNL     1       1.041   2.926  20.916  0.00  0.00    +0.000 C 
ATOM     11  C   UNL     1       2.215   3.711  20.357  0.00  0.00    +0.000 C 
ENDBRANCH   9  11
ENDBRANCH   7   9
ENDBRANCH   6   7
ENDBRANCH   2   6
ENDBRANCH   1   4
BRANCH   1  12
ATOM     12  C   UNL     1       7.604   5.664  18.480  0.00  0.00    +0.000 C 
BRANCH  12  13
ATOM     13  C   UNL     1       7.844   7.076  18.091  0.00  0.00    +0.000 A 
ATOM     14  N   UNL     1       7.327   7.759  17.089  0.00  0.00    +0.000 NA
ATOM     15  N   UNL     1       7.764   9.058  17.244  0.00  0.00    +0.000 NA
ATOM     16  C   UNL     1       8.524   9.086  18.320  0.00  0.00    +0.000 A 
ATOM     17  O   UNL     1       8.631   7.839  18.905  0.00  0.00    +0.000 OA
BRANCH  16  18
ATOM     18  C   UNL     1       9.159  10.327  18.863  0.00  0.00    +0.000 A 
ATOM     19  C   UNL     1       9.429  10.574  20.240  0.00  0.00    +0.000 A 
ATOM     20  C   UNL     1      10.056  11.784  20.432  0.00  0.00    +0.000 A 
ATOM     21  S   UNL     1      10.291  12.629  18.961  0.00  0.00    +0.000 S 
ATOM     22  C   UNL     1       9.569  11.365  18.057  0.00  0.00    +0.000 A 
ENDBRANCH  16  18
ENDBRANCH  12  13
ENDBRANCH   1  12
TORSDOF 8
ENDMDL
MODEL 2
REMARK VINA RESULT:      -6.8      0.876      1.025
REMARK  Name = 
REMARK  10 active torsions:
REMARK  status: ('A' for Active; 'I' for Inactive)
REMARK    1  A    between atoms: C_1  and  C_2
REMARK    2  A    between atoms: C_2  and  O_3
REMARK    3  A    between atoms: O_3  and  C_4
REMARK    4  A    between atoms: C_4  and  C_6
REMARK    5  A    between atoms: C_6  and  N_7
REMARK    6  A    between atoms: N_7  and  C_8
REMARK    7  A    between atoms: C_9  and  C_11
REMARK    8  A    between atoms: C_11  and  C_12
REMARK    9  A    between atoms: C_12  and  C_13
REMARK   10  A    between atoms: C_16  and  C_17
REMARK                            x       y       z     vdW  Elec       q    Type
REMARK                         _______ _______ _______ _____ _____    ______ ____
ROOT
ATOM      1  C   UNL     1       6.120   5.542  19.288  0.00  0.00    +0.000 C 
ENDROOT
BRANCH   1   4
ATOM      2  N   UNL     1       4.266   4.593  17.944  0.00  0.00    +0.000 N 
ATOM      3  C   UNL     1       4.078   5.884  17.300  0.00  0.00    +0.000 C 
ATOM      4  C   UNL     1       5.282   4.346  18.864  0.00  0.00    +0.000 C 
ATOM      5  O   UNL     1       5.457   3.237  19.366  0.00  0.00    +0.000 OA
BRANCH   2   6
ATOM      6  C   UNL     1       3.348   3.505  17.579  0.00  0.00    +0.000 C 
BRANCH   6   7
ATOM      7  C   UNL     1       2.296   3.062  18.592  0.00  0.00    +0.000 C 
ATOM      8  O   UNL     1       2.183   1.894  18.959  0.00  0.00    +0.000 OA
BRANCH   7   9
ATOM      9  O   UNL     1       1.476   4.076  18.985  0.00  0.00    +0.000 OA
BRANCH   9  11
ATOM     10  C   UNL     1       1.878   5.918  20.453  0.00  0.00    +0.000 C 
ATOM     11  C   UNL     1       1.583   4.430  20.375  0.00  0.00    +0.000 C 
ENDBRANCH   9  11
ENDBRANCH   7   9
ENDBRANCH   6   7
ENDBRANCH   2   6
ENDBRANCH   1   4
BRANCH   1  12
ATOM     12  C   UNL     1       7.505   5.556  18.647  0.00  0.00    +0.000 C 
BRANCH  12  13
ATOM     13  C   UNL     1       7.809   6.925  18.161  0.00  0.00    +0.000 A 
ATOM     14  N   UNL     1       7.356   7.544  17.089  0.00  0.00    +0.000 NA
ATOM     15  N   UNL     1       7.831   8.836  17.162  0.00  0.00    +0.000 NA
ATOM     16  C   UNL     1       8.549   8.924  18.264  0.00  0.00    +0.000 A 
ATOM     17  O   UNL     1       8.590   7.724  18.947  0.00  0.00    +0.000 OA
BRANCH  16  18
ATOM     18  C   UNL     1       9.205  10.183  18.738  0.00  0.00    +0.000 A 
ATOM     19  C   UNL     1       9.333  10.578  20.100  0.00  0.00    +0.000 A 
ATOM     20  C   UNL     1      10.019  11.765  20.229  0.00  0.00    +0.000 A 
ATOM     21  S   UNL     1      10.479  12.411  18.712  0.00  0.00    +0.000 S 
ATOM     22  C   UNL     1       9.777  11.092  17.875  0.00  0.00    +0.000 A 
ENDBRANCH  16  18
ENDBRANCH  12  13
ENDBRANCH   1  12
TORSDOF 8
ENDMDL
MODEL 3
REMARK VINA RESULT:      -6.7      4.810      6.324
REMARK  Name = 
REMARK  10 active torsions:
REMARK  status: ('A' for Active; 'I' for Inactive)
REMARK    1  A    between atoms: C_1  and  C_2
REMARK    2  A    between atoms: C_2  and  O_3
REMARK    3  A    between atoms: O_3  and  C_4
REMARK    4  A    between atoms: C_4  and  C_6
REMARK    5  A    between atoms: C_6  and  N_7
REMARK    6  A    between atoms: N_7  and  C_8
REMARK    7  A    between atoms: C_9  and  C_11
REMARK    8  A    between atoms: C_11  and  C_12
REMARK    9  A    between atoms: C_12  and  C_13
REMARK   10  A    between atoms: C_16  and  C_17
REMARK                            x       y       z     vdW  Elec       q    Type
REMARK                         _______ _______ _______ _____ _____    ______ ____
ROOT
ATOM      1  C   UNL     1       5.507   4.901  18.303  0.00  0.00    +0.000 C 
ENDROOT
BRANCH   1   4
ATOM      2  N   UNL     1       3.765   3.156  18.056  0.00  0.00    +0.000 N 
ATOM      3  C   UNL     1       3.279   3.817  16.855  0.00  0.00    +0.000 C 
ATOM      4  C   UNL     1       4.882   3.593  18.763  0.00  0.00    +0.000 C 
ATOM      5  O   UNL     1       5.309   2.997  19.750  0.00  0.00    +0.000 OA
BRANCH   2   6
ATOM      6  C   UNL     1       3.046   1.960  18.518  0.00  0.00    +0.000 C 
BRANCH   6   7
ATOM      7  C   UNL     1       1.748   2.141  19.299  0.00  0.00    +0.000 C 
ATOM      8  O   UNL     1       0.660   2.300  18.746  0.00  0.00    +0.000 OA
BRANCH   7   9
ATOM      9  O   UNL     1       1.937   2.169  20.648  0.00  0.00    +0.000 OA
BRANCH   9  11
ATOM     10  C   UNL     1       1.960   4.551  20.836  0.00  0.00    +0.000 C 
ATOM     11  C   UNL     1       1.303   3.270  21.321  0.00  0.00    +0.000 C 
ENDBRANCH   9  11
ENDBRANCH   7   9
ENDBRANCH   6   7
ENDBRANCH   2   6
ENDBRANCH   1   4
BRANCH   1  12
ATOM     12  C   UNL     1       6.921   4.727  17.756  0.00  0.00    +0.000 C 
BRANCH  12  13
ATOM     13  C   UNL     1       6.898   4.862  16.278  0.00  0.00    +0.000 A 
ATOM     14  N   UNL     1       7.581   5.689  15.512  0.00  0.00    +0.000 NA
ATOM     15  N   UNL     1       7.304   5.324  14.211  0.00  0.00    +0.000 NA
ATOM     16  C   UNL     1       6.467   4.308  14.264  0.00  0.00    +0.000 A 
ATOM     17  O   UNL     1       6.151   3.970  15.565  0.00  0.00    +0.000 OA
BRANCH  16  18
ATOM     18  C   UNL     1       5.953   3.583  13.059  0.00  0.00    +0.000 A 
ATOM     19  C   UNL     1       4.654   3.743  12.500  0.00  0.00    +0.000 A 
ATOM     20  C   UNL     1       4.481   2.975  11.370  0.00  0.00    +0.000 A 
ATOM     21  S   UNL     1       5.872   2.045  11.006  0.00  0.00    +0.000 S 
ATOM     22  C   UNL     1       6.719   2.683  12.352  0.00  0.00    +0.000 A 
ENDBRANCH  16  18
ENDBRANCH  12  13
ENDBRANCH   1  12
TORSDOF 8
ENDMDL
MODEL 4
REMARK VINA RESULT:      -6.6      1.597      1.736
REMARK  Name = 
REMARK  10 active torsions:
REMARK  status: ('A' for Active; 'I' for Inactive)
REMARK    1  A    between atoms: C_1  and  C_2
REMARK    2  A    between atoms: C_2  and  O_3
REMARK    3  A    between atoms: O_3  and  C_4
REMARK    4  A    between atoms: C_4  and  C_6
REMARK    5  A    between atoms: C_6  and  N_7
REMARK    6  A    between atoms: N_7  and  C_8
REMARK    7  A    between atoms: C_9  and  C_11
REMARK    8  A    between atoms: C_11  and  C_12
REMARK    9  A    between atoms: C_12  and  C_13
REMARK   10  A    between atoms: C_16  and  C_17
REMARK                            x       y       z     vdW  Elec       q    Type
REMARK                         _______ _______ _______ _____ _____    ______ ____
ROOT
ATOM      1  C   UNL     1       5.297   6.075  16.031  0.00  0.00    +0.000 C 
ENDROOT
BRANCH   1   4
ATOM      2  N   UNL     1       3.795   5.261  17.827  0.00  0.00    +0.000 N 
ATOM      3  C   UNL     1       3.663   6.620  18.328  0.00  0.00    +0.000 C 
ATOM      4  C   UNL     1       4.516   4.942  16.680  0.00  0.00    +0.000 C 
ATOM      5  O   UNL     1       4.581   3.794  16.243  0.00  0.00    +0.000 OA
BRANCH   2   6
ATOM      6  C   UNL     1       3.112   4.189  18.566  0.00  0.00    +0.000 C 
BRANCH   6   7
ATOM      7  C   UNL     1       1.600   4.047  18.420  0.00  0.00    +0.000 C 
ATOM      8  O   UNL     1       1.032   4.107  17.331  0.00  0.00    +0.000 OA
BRANCH   7   9
ATOM      9  O   UNL     1       0.959   3.913  19.615  0.00  0.00    +0.000 OA
BRANCH   9  11
ATOM     10  C   UNL     1       1.562   2.787  21.634  0.00  0.00    +0.000 C 
ATOM     11  C   UNL     1       1.065   2.608  20.210  0.00  0.00    +0.000 C 
ENDBRANCH   9  11
ENDBRANCH   7   9
ENDBRANCH   6   7
ENDBRANCH   2   6
ENDBRANCH   1   4
BRANCH   1  12
ATOM     12  C   UNL     1       6.807   5.868  16.090  0.00  0.00    +0.000 C 
BRANCH  12  13
ATOM     13  C   UNL     1       7.374   6.682  17.194  0.00  0.00    +0.000 A 
ATOM     14  N   UNL     1       7.843   6.284  18.360  0.00  0.00    +0.000 NA
ATOM     15  N   UNL     1       8.374   7.405  18.963  0.00  0.00    +0.000 NA
ATOM     16  C   UNL     1       8.190   8.414  18.136  0.00  0.00    +0.000 A 
ATOM     17  O   UNL     1       7.536   8.021  16.984  0.00  0.00    +0.000 OA
BRANCH  16  18
ATOM     18  C   UNL     1       8.667   9.808  18.397  0.00  0.00    +0.000 A 
ATOM     19  C   UNL     1       9.541  10.190  19.455  0.00  0.00    +0.000 A 
ATOM     20  C   UNL     1       9.836  11.535  19.419  0.00  0.00    +0.000 A 
ATOM     21  S   UNL     1       9.038  12.334  18.131  0.00  0.00    +0.000 S 
ATOM     22  C   UNL     1       8.309  10.876  17.605  0.00  0.00    +0.000 A 
ENDBRANCH  16  18
ENDBRANCH  12  13
ENDBRANCH   1  12
TORSDOF 8
ENDMDL
MODEL 5
REMARK VINA RESULT:      -6.4      4.443      5.844
REMARK  Name = 
REMARK  10 active torsions:
REMARK  status: ('A' for Active; 'I' for Inactive)
REMARK    1  A    between atoms: C_1  and  C_2
REMARK    2  A    between atoms: C_2  and  O_3
REMARK    3  A    between atoms: O_3  and  C_4
REMARK    4  A    between atoms: C_4  and  C_6
REMARK    5  A    between atoms: C_6  and  N_7
REMARK    6  A    between atoms: N_7  and  C_8
REMARK    7  A    between atoms: C_9  and  C_11
REMARK    8  A    between atoms: C_11  and  C_12
REMARK    9  A    between atoms: C_12  and  C_13
REMARK   10  A    between atoms: C_16  and  C_17
REMARK                            x       y       z     vdW  Elec       q    Type
REMARK                         _______ _______ _______ _____ _____    ______ ____
ROOT
ATOM      1  C   UNL     1       5.137   5.252  19.123  0.00  0.00    +0.000 C 
ENDROOT
BRANCH   1   4
ATOM      2  N   UNL     1       3.117   4.010  18.402  0.00  0.00    +0.000 N 
ATOM      3  C   UNL     1       3.960   3.043  17.718  0.00  0.00    +0.000 C 
ATOM      4  C   UNL     1       3.628   5.062  19.157  0.00  0.00    +0.000 C 
ATOM      5  O   UNL     1       2.903   5.845  19.768  0.00  0.00    +0.000 OA
BRANCH   2   6
ATOM      6  C   UNL     1       1.660   3.841  18.301  0.00  0.00    +0.000 C 
BRANCH   6   7
ATOM      7  C   UNL     1       1.036   2.544  18.809  0.00  0.00    +0.000 C 
ATOM      8  O   UNL     1       0.120   1.975  18.217  0.00  0.00    +0.000 OA
BRANCH   7   9
ATOM      9  O   UNL     1       1.555   2.134  20.000  0.00  0.00    +0.000 OA
BRANCH   9  11
ATOM     10  C   UNL     1       2.373   3.136  22.008  0.00  0.00    +0.000 C 
ATOM     11  C   UNL     1       1.150   2.919  21.134  0.00  0.00    +0.000 C 
ENDBRANCH   9  11
ENDBRANCH   7   9
ENDBRANCH   6   7
ENDBRANCH   2   6
ENDBRANCH   1   4
BRANCH   1  12
ATOM     12  C   UNL     1       5.579   6.341  18.150  0.00  0.00    +0.000 C 
BRANCH  12  13
ATOM     13  C   UNL     1       6.318   5.724  17.021  0.00  0.00    +0.000 A 
ATOM     14  N   UNL     1       7.564   5.294  16.983  0.00  0.00    +0.000 NA
ATOM     15  N   UNL     1       7.723   4.687  15.755  0.00  0.00    +0.000 NA
ATOM     16  C   UNL     1       6.574   4.790  15.119  0.00  0.00    +0.000 A 
ATOM     17  O   UNL     1       5.630   5.463  15.871  0.00  0.00    +0.000 OA
BRANCH  16  18
ATOM     18  C   UNL     1       6.313   4.215  13.763  0.00  0.00    +0.000 A 
ATOM     19  C   UNL     1       7.275   4.108  12.719  0.00  0.00    +0.000 A 
ATOM     20  C   UNL     1       6.755   3.499  11.599  0.00  0.00    +0.000 A 
ATOM     21  S   UNL     1       5.105   3.087  11.798  0.00  0.00    +0.000 S 
ATOM     22  C   UNL     1       5.087   3.705  13.396  0.00  0.00    +0.000 A 
ENDBRANCH  16  18
ENDBRANCH  12  13
ENDBRANCH   1  12
TORSDOF 8
ENDMDL
MODEL 6
REMARK VINA RESULT:      -6.4      4.381      5.530
REMARK  Name = 
REMARK  10 active torsions:
REMARK  status: ('A' for Active; 'I' for Inactive)
REMARK    1  A    between atoms: C_1  and  C_2
REMARK    2  A    between atoms: C_2  and  O_3
REMARK    3  A    between atoms: O_3  and  C_4
REMARK    4  A    between atoms: C_4  and  C_6
REMARK    5  A    between atoms: C_6  and  N_7
REMARK    6  A    between atoms: N_7  and  C_8
REMARK    7  A    between atoms: C_9  and  C_11
REMARK    8  A    between atoms: C_11  and  C_12
REMARK    9  A    between atoms: C_12  and  C_13
REMARK   10  A    between atoms: C_16  and  C_17
REMARK                            x       y       z     vdW  Elec       q    Type
REMARK                         _______ _______ _______ _____ _____    ______ ____
ROOT
ATOM      1  C   UNL     1       5.455   5.319  19.363  0.00  0.00    +0.000 C 
ENDROOT
BRANCH   1   4
ATOM      2  N   UNL     1       3.922   3.485  18.710  0.00  0.00    +0.000 N 
ATOM      3  C   UNL     1       4.502   2.638  19.740  0.00  0.00    +0.000 C 
ATOM      4  C   UNL     1       4.292   4.814  18.523  0.00  0.00    +0.000 C 
ATOM      5  O   UNL     1       3.760   5.531  17.677  0.00  0.00    +0.000 OA
BRANCH   2   6
ATOM      6  C   UNL     1       2.882   2.902  17.851  0.00  0.00    +0.000 C 
BRANCH   6   7
ATOM      7  C   UNL     1       1.432   3.329  18.061  0.00  0.00    +0.000 C 
ATOM      8  O   UNL     1       0.862   4.125  17.317  0.00  0.00    +0.000 OA
BRANCH   7   9
ATOM      9  O   UNL     1       0.875   2.787  19.180  0.00  0.00    +0.000 OA
BRANCH   9  11
ATOM     10  C   UNL     1       1.374   2.768  21.516  0.00  0.00    +0.000 C 
ATOM     11  C   UNL     1       0.929   3.627  20.346  0.00  0.00    +0.000 C 
ENDBRANCH   9  11
ENDBRANCH   7   9
ENDBRANCH   6   7
ENDBRANCH   2   6
ENDBRANCH   1   4
BRANCH   1  12
ATOM     12  C   UNL     1       6.813   4.864  18.836  0.00  0.00    +0.000 C 
BRANCH  12  13
ATOM     13  C   UNL     1       6.947   5.261  17.412  0.00  0.00    +0.000 A 
ATOM     14  N   UNL     1       7.549   6.316  16.899  0.00  0.00    +0.000 NA
ATOM     15  N   UNL     1       7.510   6.153  15.531  0.00  0.00    +0.000 NA
ATOM     16  C   UNL     1       6.883   5.018  15.293  0.00  0.00    +0.000 A 
ATOM     17  O   UNL     1       6.479   4.401  16.460  0.00  0.00    +0.000 OA
BRANCH  16  18
ATOM     18  C   UNL     1       6.671   4.450  13.925  0.00  0.00    +0.000 A 
ATOM     19  C   UNL     1       7.518   4.678  12.803  0.00  0.00    +0.000 A 
ATOM     20  C   UNL     1       7.091   3.992  11.688  0.00  0.00    +0.000 A 
ATOM     21  S   UNL     1       5.659   3.102  11.989  0.00  0.00    +0.000 S 
ATOM     22  C   UNL     1       5.616   3.618  13.622  0.00  0.00    +0.000 A 
ENDBRANCH  16  18
ENDBRANCH  12  13
ENDBRANCH   1  12
TORSDOF 8
ENDMDL
MODEL 7
REMARK VINA RESULT:      -6.4      1.293      1.658
REMARK  Name = 
REMARK  10 active torsions:
REMARK  status: ('A' for Active; 'I' for Inactive)
REMARK    1  A    between atoms: C_1  and  C_2
REMARK    2  A    between atoms: C_2  and  O_3
REMARK    3  A    between atoms: O_3  and  C_4
REMARK    4  A    between atoms: C_4  and  C_6
REMARK    5  A    between atoms: C_6  and  N_7
REMARK    6  A    between atoms: N_7  and  C_8
REMARK    7  A    between atoms: C_9  and  C_11
REMARK    8  A    between atoms: C_11  and  C_12
REMARK    9  A    between atoms: C_12  and  C_13
REMARK   10  A    between atoms: C_16  and  C_17
REMARK                            x       y       z     vdW  Elec       q    Type
REMARK                         _______ _______ _______ _____ _____    ______ ____
ROOT
ATOM      1  C   UNL     1       6.234   5.456  17.816  0.00  0.00    +0.000 C 
ENDROOT
BRANCH   1   4
ATOM      2  N   UNL     1       4.090   4.854  18.904  0.00  0.00    +0.000 N 
ATOM      3  C   UNL     1       3.411   4.975  17.623  0.00  0.00    +0.000 C 
ATOM      4  C   UNL     1       5.466   5.007  19.050  0.00  0.00    +0.000 C 
ATOM      5  O   UNL     1       6.032   4.857  20.132  0.00  0.00    +0.000 OA
BRANCH   2   6
ATOM      6  C   UNL     1       3.274   4.533  20.084  0.00  0.00    +0.000 C 
BRANCH   6   7
ATOM      7  C   UNL     1       3.094   3.069  20.474  0.00  0.00    +0.000 C 
ATOM      8  O   UNL     1       4.005   2.247  20.395  0.00  0.00    +0.000 OA
BRANCH   7   9
ATOM      9  O   UNL     1       1.819   2.772  20.852  0.00  0.00    +0.000 OA
BRANCH   9  11
ATOM     10  C   UNL     1       0.852   2.397  18.700  0.00  0.00    +0.000 C 
ATOM     11  C   UNL     1       0.801   3.249  19.956  0.00  0.00    +0.000 C 
ENDBRANCH   9  11
ENDBRANCH   7   9
ENDBRANCH   6   7
ENDBRANCH   2   6
ENDBRANCH   1   4
BRANCH   1  12
ATOM     12  C   UNL     1       7.678   5.845  18.122  0.00  0.00    +0.000 C 
BRANCH  12  13
ATOM     13  C   UNL     1       7.840   7.311  17.951  0.00  0.00    +0.000 A 
ATOM     14  N   UNL     1       7.146   8.138  17.195  0.00  0.00    +0.000 NA
ATOM     15  N   UNL     1       7.602   9.405  17.494  0.00  0.00    +0.000 NA
ATOM     16  C   UNL     1       8.546   9.273  18.404  0.00  0.00    +0.000 A 
ATOM     17  O   UNL     1       8.762   7.948  18.731  0.00  0.00    +0.000 OA
BRANCH  16  18
ATOM     18  C   UNL     1       9.269  10.422  19.034  0.00  0.00    +0.000 A 
ATOM     19  C   UNL     1       9.334  10.681  20.432  0.00  0.00    +0.000 A 
ATOM     20  C   UNL     1      10.103  11.787  20.716  0.00  0.00    +0.000 A 
ATOM     21  S   UNL     1      10.718  12.524  19.297  0.00  0.00    +0.000 S 
ATOM     22  C   UNL     1       9.970  11.351  18.298  0.00  0.00    +0.000 A 
ENDBRANCH  16  18
ENDBRANCH  12  13
ENDBRANCH   1  12
TORSDOF 8
ENDMDL
MODEL 8
REMARK VINA RESULT:      -6.3      4.817      6.950
REMARK  Name = 
REMARK  10 active torsions:
REMARK  status: ('A' for Active; 'I' for Inactive)
REMARK    1  A    between atoms: C_1  and  C_2
REMARK    2  A    between atoms: C_2  and  O_3
REMARK    3  A    between atoms: O_3  and  C_4
REMARK    4  A    between atoms: C_4  and  C_6
REMARK    5  A    between atoms: C_6  and  N_7
REMARK    6  A    between atoms: N_7  and  C_8
REMARK    7  A    between atoms: C_9  and  C_11
REMARK    8  A    between atoms: C_11  and  C_12
REMARK    9  A    between atoms: C_12  and  C_13
REMARK   10  A    between atoms: C_16  and  C_17
REMARK                            x       y       z     vdW  Elec       q    Type
REMARK                         _______ _______ _______ _____ _____    ______ ____
ROOT
ATOM      1  C   UNL     1       2.461   5.472  18.254  0.00  0.00    +0.000 C 
ENDROOT
BRANCH   1   4
ATOM      2  N   UNL     1       4.220   4.096  17.179  0.00  0.00    +0.000 N 
ATOM      3  C   UNL     1       3.610   2.895  17.726  0.00  0.00    +0.000 C 
ATOM      4  C   UNL     1       3.674   5.366  17.342  0.00  0.00    +0.000 C 
ATOM      5  O   UNL     1       4.177   6.368  16.835  0.00  0.00    +0.000 OA
BRANCH   2   6
ATOM      6  C   UNL     1       5.459   3.942  16.403  0.00  0.00    +0.000 C 
BRANCH   6   7
ATOM      7  C   UNL     1       6.770   4.436  17.008  0.00  0.00    +0.000 C 
ATOM      8  O   UNL     1       7.698   4.858  16.320  0.00  0.00    +0.000 OA
BRANCH   7   9
ATOM      9  O   UNL     1       6.816   4.298  18.363  0.00  0.00    +0.000 OA
BRANCH   9  11
ATOM     10  C   UNL     1       8.189   5.765  19.655  0.00  0.00    +0.000 C 
ATOM     11  C   UNL     1       6.797   5.537  19.093  0.00  0.00    +0.000 C 
ENDBRANCH   9  11
ENDBRANCH   7   9
ENDBRANCH   6   7
ENDBRANCH   2   6
ENDBRANCH   1   4
BRANCH   1  12
ATOM     12  C   UNL     1       2.780   6.127  19.595  0.00  0.00    +0.000 C 
BRANCH  12  13
ATOM     13  C   UNL     1       2.167   7.478  19.642  0.00  0.00    +0.000 A 
ATOM     14  N   UNL     1       2.027   8.358  18.671  0.00  0.00    +0.000 NA
ATOM     15  N   UNL     1       1.277   9.390  19.194  0.00  0.00    +0.000 NA
ATOM     16  C   UNL     1       1.014   9.083  20.448  0.00  0.00    +0.000 A 
ATOM     17  O   UNL     1       1.572   7.871  20.806  0.00  0.00    +0.000 OA
BRANCH  16  18
ATOM     18  C   UNL     1       0.179   9.926  21.359  0.00  0.00    +0.000 A 
ATOM     19  C   UNL     1      -0.377   9.492  22.596  0.00  0.00    +0.000 A 
ATOM     20  C   UNL     1      -1.065  10.500  23.233  0.00  0.00    +0.000 A 
ATOM     21  S   UNL     1      -1.063  11.953  22.328  0.00  0.00    +0.000 S 
ATOM     22  C   UNL     1      -0.122  11.241  21.085  0.00  0.00    +0.000 A 
ENDBRANCH  16  18
ENDBRANCH  12  13
ENDBRANCH   1  12
TORSDOF 8
ENDMDL
MODEL 9
REMARK VINA RESULT:      -6.2      0.976      1.375
REMARK  Name = 
REMARK  10 active torsions:
REMARK  status: ('A' for Active; 'I' for Inactive)
REMARK    1  A    between atoms: C_1  and  C_2
REMARK    2  A    between atoms: C_2  and  O_3
REMARK    3  A    between atoms: O_3  and  C_4
REMARK    4  A    between atoms: C_4  and  C_6
REMARK    5  A    between atoms: C_6  and  N_7
REMARK    6  A    between atoms: N_7  and  C_8
REMARK    7  A    between atoms: C_9  and  C_11
REMARK    8  A    between atoms: C_11  and  C_12
REMARK    9  A    between atoms: C_12  and  C_13
REMARK   10  A    between atoms: C_16  and  C_17
REMARK                            x       y       z     vdW  Elec       q    Type
REMARK                         _______ _______ _______ _____ _____    ______ ____
ROOT
ATOM      1  C   UNL     1       6.424   5.181  17.841  0.00  0.00    +0.000 C 
ENDROOT
BRANCH   1   4
ATOM      2  N   UNL     1       4.205   5.360  18.931  0.00  0.00    +0.000 N 
ATOM      3  C   UNL     1       3.882   6.494  18.080  0.00  0.00    +0.000 C 
ATOM      4  C   UNL     1       5.391   4.640  18.817  0.00  0.00    +0.000 C 
ATOM      5  O   UNL     1       5.631   3.655  19.514  0.00  0.00    +0.000 OA
BRANCH   2   6
ATOM      6  C   UNL     1       3.214   4.956  19.938  0.00  0.00    +0.000 C 
BRANCH   6   7
ATOM      7  C   UNL     1       2.142   3.944  19.546  0.00  0.00    +0.000 C 
ATOM      8  O   UNL     1       1.070   4.276  19.043  0.00  0.00    +0.000 OA
BRANCH   7   9
ATOM      9  O   UNL     1       2.476   2.663  19.868  0.00  0.00    +0.000 OA
BRANCH   9  11
ATOM     10  C   UNL     1       2.580   2.616  17.482  0.00  0.00    +0.000 C 
ATOM     11  C   UNL     1       2.598   1.773  18.745  0.00  0.00    +0.000 C 
ENDBRANCH   9  11
ENDBRANCH   7   9
ENDBRANCH   6   7
ENDBRANCH   2   6
ENDBRANCH   1   4
BRANCH   1  12
ATOM     12  C   UNL     1       7.662   5.743  18.534  0.00  0.00    +0.000 C 
BRANCH  12  13
ATOM     13  C   UNL     1       7.857   7.157  18.124  0.00  0.00    +0.000 A 
ATOM     14  N   UNL     1       7.294   7.817  17.132  0.00  0.00    +0.000 NA
ATOM     15  N   UNL     1       7.705   9.127  17.260  0.00  0.00    +0.000 NA
ATOM     16  C   UNL     1       8.496   9.184  18.312  0.00  0.00    +0.000 A 
ATOM     17  O   UNL     1       8.650   7.946  18.905  0.00  0.00    +0.000 OA
BRANCH  16  18
ATOM     18  C   UNL     1       9.119  10.444  18.824  0.00  0.00    +0.000 A 
ATOM     19  C   UNL     1       9.621  10.633  20.143  0.00  0.00    +0.000 A 
ATOM     20  C   UNL     1      10.172  11.884  20.310  0.00  0.00    +0.000 A 
ATOM     21  S   UNL     1      10.055  12.833  18.890  0.00  0.00    +0.000 S 
ATOM     22  C   UNL     1       9.283  11.564  18.038  0.00  0.00    +0.000 A 
ENDBRANCH  16  18
ENDBRANCH  12  13
ENDBRANCH   1  12
TORSDOF 8
ENDMDL
