MODEL 1
REMARK VINA RESULT:      -5.5      0.000      0.000
REMARK  Name = 
REMARK  10 active torsions:
REMARK  status: ('A' for Active; 'I' for Inactive)
REMARK    1  A    between atoms: C_1  and  N_2
REMARK    2  A    between atoms: N_2  and  C_3
REMARK    3  A    between atoms: N_2  and  S_12
REMARK    4  A    between atoms: C_3  and  C_4
REMARK    5  A    between atoms: C_4  and  C_5
REMARK    6  A    between atoms: C_5  and  N_6
REMARK    7  A    between atoms: N_6  and  C_7
REMARK    8  A    between atoms: N_6  and  S_8
REMARK    9  A    between atoms: S_8  and  C_9
REMARK   10  A    between atoms: S_12  and  C_13
REMARK                            x       y       z     vdW  Elec       q    Type
REMARK                         _______ _______ _______ _____ _____    ______ ____
ROOT
ATOM      1  C   UNL     1       3.441   5.100  17.587  0.00  0.00    +0.000 C 
ENDROOT
BRANCH   1   2
ATOM      2  C   UNL     1       4.462   4.005  17.282  0.00  0.00    +0.000 C 
BRANCH   2   4
ATOM      3  C   UNL     1       6.093   3.962  15.399  0.00  0.00    +0.000 C 
ATOM      4  N   UNL     1       5.729   4.533  16.711  0.00  0.00    +0.000 NA
BRANCH   4   5
ATOM      5  S   UNL     1       7.000   4.845  17.791  0.00  0.00    +0.000 S 
ATOM      6  C   UNL     1       7.181   6.608  17.623  0.00  0.00    +0.000 C 
ATOM      7  O   UNL     1       6.526   4.579  19.132  0.00  0.00    +0.000 OA
ATOM      8  O   UNL     1       8.189   4.198  17.276  0.00  0.00    +0.000 OA
ENDBRANCH   4   5
ENDBRANCH   2   4
ENDBRANCH   1   2
BRANCH   1   9
ATOM      9  C   UNL     1       2.286   4.540  18.421  0.00  0.00    +0.000 C 
BRANCH   9  10
ATOM     10  N   UNL     1       2.617   4.507  19.872  0.00  0.00    +0.000 NA
ATOM     11  C   UNL     1       1.937   5.536  20.688  0.00  0.00    +0.000 C 
BRANCH  10  12
ATOM     12  S   UNL     1       2.737   2.964  20.588  0.00  0.00    +0.000 S 
ATOM     13  C   UNL     1       1.627   1.989  19.583  0.00  0.00    +0.000 C 
ATOM     14  O   UNL     1       4.080   2.469  20.382  0.00  0.00    +0.000 OA
ATOM     15  O   UNL     1       2.159   3.043  21.912  0.00  0.00    +0.000 OA
ENDBRANCH  10  12
ENDBRANCH   9  10
ENDBRANCH   1   9
TORSDOF 6
ENDMDL
MODEL 2
REMARK VINA RESULT:      -5.5      1.626      2.166
REMARK  Name = 
REMARK  10 active torsions:
REMARK  status: ('A' for Active; 'I' for Inactive)
REMARK    1  A    between atoms: C_1  and  N_2
REMARK    2  A    between atoms: N_2  and  C_3
REMARK    3  A    between atoms: N_2  and  S_12
REMARK    4  A    between atoms: C_3  and  C_4
REMARK    5  A    between atoms: C_4  and  C_5
REMARK    6  A    between atoms: C_5  and  N_6
REMARK    7  A    between atoms: N_6  and  C_7
REMARK    8  A    between atoms: N_6  and  S_8
REMARK    9  A    between atoms: S_8  and  C_9
REMARK   10  A    between atoms: S_12  and  C_13
REMARK                            x       y       z     vdW  Elec       q    Type
REMARK                         _______ _______ _______ _____ _____    ______ ____
ROOT
ATOM      1  C   UNL     1       3.367   4.000  17.030  0.00  0.00    +0.000 C 
ENDROOT
BRANCH   1   2
ATOM      2  C   UNL     1       4.864   3.725  16.896  0.00  0.00    +0.000 C 
BRANCH   2   4
ATOM      3  C   UNL     1       4.954   6.052  17.784  0.00  0.00    +0.000 C 
ATOM      4  N   UNL     1       5.708   4.846  17.388  0.00  0.00    +0.000 NA
BRANCH   4   5
ATOM      5  S   UNL     1       7.200   5.093  16.619  0.00  0.00    +0.000 S 
ATOM      6  C   UNL     1       6.846   4.523  14.970  0.00  0.00    +0.000 C 
ATOM      7  O   UNL     1       7.439   6.519  16.549  0.00  0.00    +0.000 OA
ATOM      8  O   UNL     1       8.166   4.202  17.229  0.00  0.00    +0.000 OA
ENDBRANCH   4   5
ENDBRANCH   2   4
ENDBRANCH   1   2
BRANCH   1   9
ATOM      9  C   UNL     1       2.649   2.786  17.627  0.00  0.00    +0.000 C 
BRANCH   9  10
ATOM     10  N   UNL     1       1.883   3.144  18.850  0.00  0.00    +0.000 NA
ATOM     11  C   UNL     1       0.622   2.394  19.035  0.00  0.00    +0.000 C 
BRANCH  10  12
ATOM     12  S   UNL     1       2.794   3.406  20.268  0.00  0.00    +0.000 S 
ATOM     13  C   UNL     1       1.707   2.783  21.542  0.00  0.00    +0.000 C 
ATOM     14  O   UNL     1       3.964   2.556  20.222  0.00  0.00    +0.000 OA
ATOM     15  O   UNL     1       2.910   4.835  20.463  0.00  0.00    +0.000 OA
ENDBRANCH  10  12
ENDBRANCH   9  10
ENDBRANCH   1   9
TORSDOF 6
ENDMDL
MODEL 3
REMARK VINA RESULT:      -5.4      2.014      2.615
REMARK  Name = 
REMARK  10 active torsions:
REMARK  status: ('A' for Active; 'I' for Inactive)
REMARK    1  A    between atoms: C_1  and  N_2
REMARK    2  A    between atoms: N_2  and  C_3
REMARK    3  A    between atoms: N_2  and  S_12
REMARK    4  A    between atoms: C_3  and  C_4
REMARK    5  A    between atoms: C_4  and  C_5
REMARK    6  A    between atoms: C_5  and  N_6
REMARK    7  A    between atoms: N_6  and  C_7
REMARK    8  A    between atoms: N_6  and  S_8
REMARK    9  A    between atoms: S_8  and  C_9
REMARK   10  A    between atoms: S_12  and  C_13
REMARK                            x       y       z     vdW  Elec       q    Type
REMARK                         _______ _______ _______ _____ _____    ______ ____
ROOT
ATOM      1  C   UNL     1       5.028   4.015  18.991  0.00  0.00    +0.000 C 
ENDROOT
BRANCH   1   2
ATOM      2  C   UNL     1       5.923   5.249  18.885  0.00  0.00    +0.000 C 
BRANCH   2   4
ATOM      3  C   UNL     1       4.771   6.235  16.908  0.00  0.00    +0.000 C 
ATOM      4  N   UNL     1       6.041   5.765  17.496  0.00  0.00    +0.000 NA
BRANCH   4   5
ATOM      5  S   UNL     1       7.117   4.964  16.456  0.00  0.00    +0.000 S 
ATOM      6  C   UNL     1       6.027   3.826  15.628  0.00  0.00    +0.000 C 
ATOM      7  O   UNL     1       7.586   5.918  15.473  0.00  0.00    +0.000 OA
ATOM      8  O   UNL     1       8.048   4.215  17.274  0.00  0.00    +0.000 OA
ENDBRANCH   4   5
ENDBRANCH   2   4
ENDBRANCH   1   2
BRANCH   1   9
ATOM      9  C   UNL     1       3.706   4.368  19.679  0.00  0.00    +0.000 C 
BRANCH   9  10
ATOM     10  N   UNL     1       2.830   3.176  19.836  0.00  0.00    +0.000 NA
ATOM     11  C   UNL     1       2.220   3.024  21.174  0.00  0.00    +0.000 C 
BRANCH  10  12
ATOM     12  S   UNL     1       1.811   2.804  18.519  0.00  0.00    +0.000 S 
ATOM     13  C   UNL     1       1.587   4.400  17.748  0.00  0.00    +0.000 C 
ATOM     14  O   UNL     1       2.544   1.961  17.600  0.00  0.00    +0.000 OA
ATOM     15  O   UNL     1       0.528   2.400  19.051  0.00  0.00    +0.000 OA
ENDBRANCH  10  12
ENDBRANCH   9  10
ENDBRANCH   1   9
TORSDOF 6
ENDMDL
MODEL 4
REMARK VINA RESULT:      -5.4      1.784      5.686
REMARK  Name = 
REMARK  10 active torsions:
REMARK  status: ('A' for Active; 'I' for Inactive)
REMARK    1  A    between atoms: C_1  and  N_2
REMARK    2  A    between atoms: N_2  and  C_3
REMARK    3  A    between atoms: N_2  and  S_12
REMARK    4  A    between atoms: C_3  and  C_4
REMARK    5  A    between atoms: C_4  and  C_5
REMARK    6  A    between atoms: C_5  and  N_6
REMARK    7  A    between atoms: N_6  and  C_7
REMARK    8  A    between atoms: N_6  and  S_8
REMARK    9  A    between atoms: S_8  and  C_9
REMARK   10  A    between atoms: S_12  and  C_13
REMARK                            x       y       z     vdW  Elec       q    Type
REMARK                         _______ _______ _______ _____ _____    ______ ____
ROOT
ATOM      1  C   UNL     1       3.615   4.405  17.874  0.00  0.00    +0.000 C 
ENDROOT
BRANCH   1   2
ATOM      2  C   UNL     1       3.982   3.945  19.285  0.00  0.00    +0.000 C 
BRANCH   2   4
ATOM      3  C   UNL     1       2.990   1.720  18.763  0.00  0.00    +0.000 C 
ATOM      4  N   UNL     1       3.160   2.799  19.756  0.00  0.00    +0.000 NA
BRANCH   4   5
ATOM      5  S   UNL     1       1.826   3.151  20.743  0.00  0.00    +0.000 S 
ATOM      6  C   UNL     1       2.023   4.903  20.992  0.00  0.00    +0.000 C 
ATOM      7  O   UNL     1       0.624   2.952  19.962  0.00  0.00    +0.000 OA
ATOM      8  O   UNL     1       2.017   2.471  22.007  0.00  0.00    +0.000 OA
ENDBRANCH   4   5
ENDBRANCH   2   4
ENDBRANCH   1   2
BRANCH   1   9
ATOM      9  C   UNL     1       4.819   4.275  16.937  0.00  0.00    +0.000 C 
BRANCH   9  10
ATOM     10  N   UNL     1       5.300   5.603  16.470  0.00  0.00    +0.000 NA
ATOM     11  C   UNL     1       4.497   6.754  16.936  0.00  0.00    +0.000 C 
BRANCH  10  12
ATOM     12  S   UNL     1       6.990   5.841  16.468  0.00  0.00    +0.000 S 
ATOM     13  C   UNL     1       7.543   4.658  17.686  0.00  0.00    +0.000 C 
ATOM     14  O   UNL     1       7.505   5.434  15.179  0.00  0.00    +0.000 OA
ATOM     15  O   UNL     1       7.252   7.161  17.000  0.00  0.00    +0.000 OA
ENDBRANCH  10  12
ENDBRANCH   9  10
ENDBRANCH   1   9
TORSDOF 6
ENDMDL
MODEL 5
REMARK VINA RESULT:      -5.4      1.563      1.807
REMARK  Name = 
REMARK  10 active torsions:
REMARK  status: ('A' for Active; 'I' for Inactive)
REMARK    1  A    between atoms: C_1  and  N_2
REMARK    2  A    between atoms: N_2  and  C_3
REMARK    3  A    between atoms: N_2  and  S_12
REMARK    4  A    between atoms: C_3  and  C_4
REMARK    5  A    between atoms: C_4  and  C_5
REMARK    6  A    between atoms: C_5  and  N_6
REMARK    7  A    between atoms: N_6  and  C_7
REMARK    8  A    between atoms: N_6  and  S_8
REMARK    9  A    between atoms: S_8  and  C_9
REMARK   10  A    between atoms: S_12  and  C_13
REMARK                            x       y       z     vdW  Elec       q    Type
REMARK                         _______ _______ _______ _____ _____    ______ ____
ROOT
ATOM      1  C   UNL     1       3.984   3.646  16.965  0.00  0.00    +0.000 C 
ENDROOT
BRANCH   1   2
ATOM      2  C   UNL     1       4.545   5.065  17.057  0.00  0.00    +0.000 C 
BRANCH   2   4
ATOM      3  C   UNL     1       6.304   4.527  15.377  0.00  0.00    +0.000 C 
ATOM      4  N   UNL     1       5.979   5.150  16.675  0.00  0.00    +0.000 NA
BRANCH   4   5
ATOM      5  S   UNL     1       7.126   4.983  17.914  0.00  0.00    +0.000 S 
ATOM      6  C   UNL     1       7.663   6.667  18.128  0.00  0.00    +0.000 C 
ATOM      7  O   UNL     1       6.431   4.587  19.120  0.00  0.00    +0.000 OA
ATOM      8  O   UNL     1       8.228   4.199  17.395  0.00  0.00    +0.000 OA
ENDBRANCH   4   5
ENDBRANCH   2   4
ENDBRANCH   1   2
BRANCH   1   9
ATOM      9  C   UNL     1       2.570   3.589  17.551  0.00  0.00    +0.000 C 
BRANCH   9  10
ATOM     10  N   UNL     1       2.546   2.894  18.866  0.00  0.00    +0.000 NA
ATOM     11  C   UNL     1       3.649   1.933  19.082  0.00  0.00    +0.000 C 
BRANCH  10  12
ATOM     12  S   UNL     1       2.125   3.843  20.220  0.00  0.00    +0.000 S 
ATOM     13  C   UNL     1       2.416   2.721  21.579  0.00  0.00    +0.000 C 
ATOM     14  O   UNL     1       3.073   4.931  20.326  0.00  0.00    +0.000 OA
ATOM     15  O   UNL     1       0.701   4.090  20.163  0.00  0.00    +0.000 OA
ENDBRANCH  10  12
ENDBRANCH   9  10
ENDBRANCH   1   9
TORSDOF 6
ENDMDL
MODEL 6
REMARK VINA RESULT:      -5.4      1.772      2.108
REMARK  Name = 
REMARK  10 active torsions:
REMARK  status: ('A' for Active; 'I' for Inactive)
REMARK    1  A    between atoms: C_1  and  N_2
REMARK    2  A    between atoms: N_2  and  C_3
REMARK    3  A    between atoms: N_2  and  S_12
REMARK    4  A    between atoms: C_3  and  C_4
REMARK    5  A    between atoms: C_4  and  C_5
REMARK    6  A    between atoms: C_5  and  N_6
REMARK    7  A    between atoms: N_6  and  C_7
REMARK    8  A    between atoms: N_6  and  S_8
REMARK    9  A    between atoms: S_8  and  C_9
REMARK   10  A    between atoms: S_12  and  C_13
REMARK                            x       y       z     vdW  Elec       q    Type
REMARK                         _______ _______ _______ _____ _____    ______ ____
ROOT
ATOM      1  C   UNL     1       3.759   3.795  16.891  0.00  0.00    +0.000 C 
ENDROOT
BRANCH   1   2
ATOM      2  C   UNL     1       4.422   5.154  17.109  0.00  0.00    +0.000 C 
BRANCH   2   4
ATOM      3  C   UNL     1       5.631   4.569  15.011  0.00  0.00    +0.000 C 
ATOM      4  N   UNL     1       5.623   5.360  16.257  0.00  0.00    +0.000 NA
BRANCH   4   5
ATOM      5  S   UNL     1       7.112   5.566  17.045  0.00  0.00    +0.000 S 
ATOM      6  C   UNL     1       6.608   5.586  18.752  0.00  0.00    +0.000 C 
ATOM      7  O   UNL     1       7.901   4.372  16.834  0.00  0.00    +0.000 OA
ATOM      8  O   UNL     1       7.624   6.873  16.689  0.00  0.00    +0.000 OA
ENDBRANCH   4   5
ENDBRANCH   2   4
ENDBRANCH   1   2
BRANCH   1   9
ATOM      9  C   UNL     1       2.378   3.759  17.551  0.00  0.00    +0.000 C 
BRANCH   9  10
ATOM     10  N   UNL     1       2.399   3.002  18.832  0.00  0.00    +0.000 NA
ATOM     11  C   UNL     1       3.473   1.992  18.941  0.00  0.00    +0.000 C 
BRANCH  10  12
ATOM     12  S   UNL     1       2.091   3.901  20.250  0.00  0.00    +0.000 S 
ATOM     13  C   UNL     1       2.479   2.725  21.538  0.00  0.00    +0.000 C 
ATOM     14  O   UNL     1       3.052   4.979  20.323  0.00  0.00    +0.000 OA
ATOM     15  O   UNL     1       0.669   4.155  20.314  0.00  0.00    +0.000 OA
ENDBRANCH  10  12
ENDBRANCH   9  10
ENDBRANCH   1   9
TORSDOF 6
ENDMDL
MODEL 7
REMARK VINA RESULT:      -5.4      2.018      5.459
REMARK  Name = 
REMARK  10 active torsions:
REMARK  status: ('A' for Active; 'I' for Inactive)
REMARK    1  A    between atoms: C_1  and  N_2
REMARK    2  A    between atoms: N_2  and  C_3
REMARK    3  A    between atoms: N_2  and  S_12
REMARK    4  A    between atoms: C_3  and  C_4
REMARK    5  A    between atoms: C_4  and  C_5
REMARK    6  A    between atoms: C_5  and  N_6
REMARK    7  A    between atoms: N_6  and  C_7
REMARK    8  A    between atoms: N_6  and  S_8
REMARK    9  A    between atoms: S_8  and  C_9
REMARK   10  A    between atoms: S_12  and  C_13
REMARK                            x       y       z     vdW  Elec       q    Type
REMARK                         _______ _______ _______ _____ _____    ______ ____
ROOT
ATOM      1  C   UNL     1       4.270   6.431  17.783  0.00  0.00    +0.000 C 
ENDROOT
BRANCH   1   2
ATOM      2  C   UNL     1       3.130   5.413  17.830  0.00  0.00    +0.000 C 
BRANCH   2   4
ATOM      3  C   UNL     1       4.740   4.124  19.228  0.00  0.00    +0.000 C 
ATOM      4  N   UNL     1       3.330   4.362  18.862  0.00  0.00    +0.000 NA
BRANCH   4   5
ATOM      5  S   UNL     1       2.314   3.004  18.798  0.00  0.00    +0.000 S 
ATOM      6  C   UNL     1       3.438   1.750  18.221  0.00  0.00    +0.000 C 
ATOM      7  O   UNL     1       1.933   2.663  20.152  0.00  0.00    +0.000 OA
ATOM      8  O   UNL     1       1.315   3.247  17.778  0.00  0.00    +0.000 OA
ENDBRANCH   4   5
ENDBRANCH   2   4
ENDBRANCH   1   2
BRANCH   1   9
ATOM      9  C   UNL     1       4.831   6.543  16.363  0.00  0.00    +0.000 C 
BRANCH   9  10
ATOM     10  N   UNL     1       6.294   6.273  16.325  0.00  0.00    +0.000 NA
ATOM     11  C   UNL     1       7.065   6.869  17.438  0.00  0.00    +0.000 C 
BRANCH  10  12
ATOM     12  S   UNL     1       6.763   4.698  15.868  0.00  0.00    +0.000 S 
ATOM     13  C   UNL     1       7.236   4.921  14.160  0.00  0.00    +0.000 C 
ATOM     14  O   UNL     1       7.947   4.340  16.618  0.00  0.00    +0.000 OA
ATOM     15  O   UNL     1       5.583   3.862  15.882  0.00  0.00    +0.000 OA
ENDBRANCH  10  12
ENDBRANCH   9  10
ENDBRANCH   1   9
TORSDOF 6
ENDMDL
MODEL 8
REMARK VINA RESULT:      -5.4      1.526      5.571
REMARK  Name = 
REMARK  10 active torsions:
REMARK  status: ('A' for Active; 'I' for Inactive)
REMARK    1  A    between atoms: C_1  and  N_2
REMARK    2  A    between atoms: N_2  and  C_3
REMARK    3  A    between atoms: N_2  and  S_12
REMARK    4  A    between atoms: C_3  and  C_4
REMARK    5  A    between atoms: C_4  and  C_5
REMARK    6  A    between atoms: C_5  and  N_6
REMARK    7  A    between atoms: N_6  and  C_7
REMARK    8  A    between atoms: N_6  and  S_8
REMARK    9  A    between atoms: S_8  and  C_9
REMARK   10  A    between atoms: S_12  and  C_13
REMARK                            x       y       z     vdW  Elec       q    Type
REMARK                         _______ _______ _______ _____ _____    ______ ____
ROOT
ATOM      1  C   UNL     1       3.744   4.075  17.516  0.00  0.00    +0.000 C 
ENDROOT
BRANCH   1   2
ATOM      2  C   UNL     1       2.300   4.382  17.909  0.00  0.00    +0.000 C 
BRANCH   2   4
ATOM      3  C   UNL     1       2.445   5.388  20.184  0.00  0.00    +0.000 C 
ATOM      4  N   UNL     1       2.048   4.225  19.366  0.00  0.00    +0.000 NA
BRANCH   4   5
ATOM      5  S   UNL     1       2.305   2.689  20.041  0.00  0.00    +0.000 S 
ATOM      6  C   UNL     1       1.336   2.791  21.531  0.00  0.00    +0.000 C 
ATOM      7  O   UNL     1       1.681   1.709  19.177  0.00  0.00    +0.000 OA
ATOM      8  O   UNL     1       3.706   2.589  20.394  0.00  0.00    +0.000 OA
ENDBRANCH   4   5
ENDBRANCH   2   4
ENDBRANCH   1   2
BRANCH   1   9
ATOM      9  C   UNL     1       4.432   5.332  16.977  0.00  0.00    +0.000 C 
BRANCH   9  10
ATOM     10  N   UNL     1       5.747   5.566  17.633  0.00  0.00    +0.000 NA
ATOM     11  C   UNL     1       5.888   4.961  18.975  0.00  0.00    +0.000 C 
BRANCH  10  12
ATOM     12  S   UNL     1       7.125   5.461  16.633  0.00  0.00    +0.000 S 
ATOM     13  C   UNL     1       6.428   4.922  15.079  0.00  0.00    +0.000 C 
ATOM     14  O   UNL     1       7.656   6.794  16.448  0.00  0.00    +0.000 OA
ATOM     15  O   UNL     1       7.952   4.384  17.130  0.00  0.00    +0.000 OA
ENDBRANCH  10  12
ENDBRANCH   9  10
ENDBRANCH   1   9
TORSDOF 6
ENDMDL
MODEL 9
REMARK VINA RESULT:      -5.3      1.579      5.365
REMARK  Name = 
REMARK  10 active torsions:
REMARK  status: ('A' for Active; 'I' for Inactive)
REMARK    1  A    between atoms: C_1  and  N_2
REMARK    2  A    between atoms: N_2  and  C_3
REMARK    3  A    between atoms: N_2  and  S_12
REMARK    4  A    between atoms: C_3  and  C_4
REMARK    5  A    between atoms: C_4  and  C_5
REMARK    6  A    between atoms: C_5  and  N_6
REMARK    7  A    between atoms: N_6  and  C_7
REMARK    8  A    between atoms: N_6  and  S_8
REMARK    9  A    between atoms: S_8  and  C_9
REMARK   10  A    between atoms: S_12  and  C_13
REMARK                            x       y       z     vdW  Elec       q    Type
REMARK                         _______ _______ _______ _____ _____    ______ ____
ROOT
ATOM      1  C   UNL     1       3.426   6.315  17.826  0.00  0.00    +0.000 C 
ENDROOT
BRANCH   1   2
ATOM      2  C   UNL     1       3.585   5.281  18.940  0.00  0.00    +0.000 C 
BRANCH   2   4
ATOM      3  C   UNL     1       1.642   4.187  17.828  0.00  0.00    +0.000 C 
ATOM      4  N   UNL     1       2.838   4.023  18.677  0.00  0.00    +0.000 NA
BRANCH   4   5
ATOM      5  S   UNL     1       2.729   2.902  19.947  0.00  0.00    +0.000 S 
ATOM      6  C   UNL     1       2.113   3.924  21.268  0.00  0.00    +0.000 C 
ATOM      7  O   UNL     1       1.697   1.944  19.614  0.00  0.00    +0.000 OA
ATOM      8  O   UNL     1       4.073   2.470  20.272  0.00  0.00    +0.000 OA
ENDBRANCH   4   5
ENDBRANCH   2   4
ENDBRANCH   1   2
BRANCH   1   9
ATOM      9  C   UNL     1       4.786   6.654  17.209  0.00  0.00    +0.000 C 
BRANCH   9  10
ATOM     10  N   UNL     1       5.620   5.437  17.009  0.00  0.00    +0.000 NA
ATOM     11  C   UNL     1       5.253   4.619  15.833  0.00  0.00    +0.000 C 
BRANCH  10  12
ATOM     12  S   UNL     1       7.294   5.609  17.289  0.00  0.00    +0.000 S 
ATOM     13  C   UNL     1       7.371   5.745  19.069  0.00  0.00    +0.000 C 
ATOM     14  O   UNL     1       7.949   4.378  16.905  0.00  0.00    +0.000 OA
ATOM     15  O   UNL     1       7.706   6.883  16.743  0.00  0.00    +0.000 OA
ENDBRANCH  10  12
ENDBRANCH   9  10
ENDBRANCH   1   9
TORSDOF 6
ENDMDL
