MODEL 1
REMARK VINA RESULT:      -6.3      0.000      0.000
REMARK  Name = 
REMARK  6 active torsions:
REMARK  status: ('A' for Active; 'I' for Inactive)
REMARK    1  A    between atoms: C_1  and  O_2
REMARK    2  A    between atoms: O_2  and  C_3
REMARK    3  A    between atoms: C_6  and  C_7
REMARK    4  A    between atoms: C_20  and  O_21
REMARK    5  A    between atoms: O_21  and  C_22
REMARK    6  A    between atoms: C_22  and  C_23
REMARK                            x       y       z     vdW  Elec       q    Type
REMARK                         _______ _______ _______ _____ _____    ______ ____
ROOT
ATOM      1  C   UNL     1      -3.651  13.033  20.569  0.00  0.00    +0.000 C 
ATOM      2  S   UNL     1      -4.380  14.705  20.370  0.00  0.00    +0.000 S 
ATOM      3  C   UNL     1      -6.109  14.245  20.934  0.00  0.00    +0.000 A 
ATOM      4  C   UNL     1      -7.015  14.539  19.908  0.00  0.00    +0.000 A 
ATOM      5  C   UNL     1      -7.713  13.489  19.320  0.00  0.00    +0.000 A 
ATOM      6  C   UNL     1      -7.598  12.199  19.839  0.00  0.00    +0.000 A 
ATOM      7  C   UNL     1      -6.969  11.996  21.072  0.00  0.00    +0.000 A 
ATOM      8  C   UNL     1      -6.277  13.062  21.676  0.00  0.00    +0.000 A 
ATOM      9  N   UNL     1      -5.519  12.799  22.855  0.00  0.00    +0.000 N 
ATOM     10  C   UNL     1      -6.141  12.465  24.045  0.00  0.00    +0.000 A 
ATOM     11  C   UNL     1      -5.191  12.412  25.045  0.00  0.00    +0.000 A 
ATOM     12  C   UNL     1      -3.941  12.628  24.435  0.00  0.00    +0.000 A 
ATOM     13  C   UNL     1      -4.139  12.808  23.069  0.00  0.00    +0.000 A 
ATOM     14  C   UNL     1      -3.053  12.938  21.995  0.00  0.00    +0.000 C 
ENDROOT
BRANCH   1  18
ATOM     15  C   UNL     1      -2.788  11.113  16.795  0.00  0.00    +0.000 A 
ATOM     16  C   UNL     1      -1.729  11.574  17.579  0.00  0.00    +0.000 A 
ATOM     17  C   UNL     1      -1.933  12.105  18.870  0.00  0.00    +0.000 A 
ATOM     18  C   UNL     1      -3.222  12.183  19.383  0.00  0.00    +0.000 A 
ATOM     19  C   UNL     1      -4.285  11.693  18.578  0.00  0.00    +0.000 A 
ATOM     20  C   UNL     1      -4.091  11.192  17.296  0.00  0.00    +0.000 A 
BRANCH  15  22
ATOM     21  C   UNL     1      -3.594  10.243  14.750  0.00  0.00    +0.000 C 
ATOM     22  O   UNL     1      -2.486  10.680  15.537  0.00  0.00    +0.000 OA
ENDBRANCH  15  22
ENDBRANCH   1  18
BRANCH  14  23
ATOM     23  O   UNL     1      -2.254  11.742  22.096  0.00  0.00    +0.000 OA
BRANCH  23  24
ATOM     24  C   UNL     1      -0.992  11.871  22.580  0.00  0.00    +0.000 C 
ATOM     25  C   UNL     1      -0.433  13.213  22.245  0.00  0.00    +0.000 C 
ATOM     26  O   UNL     1      -0.391  11.010  23.217  0.00  0.00    +0.000 OA
ENDBRANCH  23  24
ENDBRANCH  14  23
TORSDOF 4
ENDMDL
MODEL 2
REMARK VINA RESULT:      -5.9     11.800     14.242
REMARK  Name = 
REMARK  6 active torsions:
REMARK  status: ('A' for Active; 'I' for Inactive)
REMARK    1  A    between atoms: C_1  and  O_2
REMARK    2  A    between atoms: O_2  and  C_3
REMARK    3  A    between atoms: C_6  and  C_7
REMARK    4  A    between atoms: C_20  and  O_21
REMARK    5  A    between atoms: O_21  and  C_22
REMARK    6  A    between atoms: C_22  and  C_23
REMARK                            x       y       z     vdW  Elec       q    Type
REMARK                         _______ _______ _______ _____ _____    ______ ____
ROOT
ATOM      1  C   UNL     1       9.255  14.113  19.432  0.00  0.00    +0.000 C 
ATOM      2  S   UNL     1       7.673  15.030  19.580  0.00  0.00    +0.000 S 
ATOM      3  C   UNL     1       7.704  15.197  21.447  0.00  0.00    +0.000 A 
ATOM      4  C   UNL     1       6.552  14.603  21.977  0.00  0.00    +0.000 A 
ATOM      5  C   UNL     1       6.698  13.492  22.801  0.00  0.00    +0.000 A 
ATOM      6  C   UNL     1       7.972  13.073  23.184  0.00  0.00    +0.000 A 
ATOM      7  C   UNL     1       9.081  13.888  22.932  0.00  0.00    +0.000 A 
ATOM      8  C   UNL     1       8.931  15.022  22.113  0.00  0.00    +0.000 A 
ATOM      9  N   UNL     1      10.097  15.756  21.747  0.00  0.00    +0.000 N 
ATOM     10  C   UNL     1      10.817  16.471  22.688  0.00  0.00    +0.000 A 
ATOM     11  C   UNL     1      11.796  17.197  22.043  0.00  0.00    +0.000 A 
ATOM     12  C   UNL     1      11.737  16.847  20.681  0.00  0.00    +0.000 A 
ATOM     13  C   UNL     1      10.723  15.908  20.508  0.00  0.00    +0.000 A 
ATOM     14  C   UNL     1      10.390  15.146  19.221  0.00  0.00    +0.000 C 
ENDROOT
BRANCH   1  18
ATOM     15  C   UNL     1       8.942   9.851  18.786  0.00  0.00    +0.000 A 
ATOM     16  C   UNL     1       8.571  10.722  17.760  0.00  0.00    +0.000 A 
ATOM     17  C   UNL     1       8.755  12.116  17.862  0.00  0.00    +0.000 A 
ATOM     18  C   UNL     1       9.315  12.651  19.016  0.00  0.00    +0.000 A 
ATOM     19  C   UNL     1       9.704  11.748  20.042  0.00  0.00    +0.000 A 
ATOM     20  C   UNL     1       9.500  10.375  19.955  0.00  0.00    +0.000 A 
BRANCH  15  22
ATOM     21  C   UNL     1       7.698   8.230  17.597  0.00  0.00    +0.000 C 
ATOM     22  O   UNL     1       8.659   8.528  18.610  0.00  0.00    +0.000 OA
ENDBRANCH  15  22
ENDBRANCH   1  18
BRANCH  14  23
ATOM     23  O   UNL     1      11.599  14.453  18.847  0.00  0.00    +0.000 OA
BRANCH  23  24
ATOM     24  C   UNL     1      12.086  14.672  17.600  0.00  0.00    +0.000 C 
ATOM     25  C   UNL     1      12.270  13.382  16.871  0.00  0.00    +0.000 C 
ATOM     26  O   UNL     1      12.333  15.777  17.124  0.00  0.00    +0.000 OA
ENDBRANCH  23  24
ENDBRANCH  14  23
TORSDOF 4
ENDMDL
MODEL 3
REMARK VINA RESULT:      -5.8      3.225      6.329
REMARK  Name = 
REMARK  6 active torsions:
REMARK  status: ('A' for Active; 'I' for Inactive)
REMARK    1  A    between atoms: C_1  and  O_2
REMARK    2  A    between atoms: O_2  and  C_3
REMARK    3  A    between atoms: C_6  and  C_7
REMARK    4  A    between atoms: C_20  and  O_21
REMARK    5  A    between atoms: O_21  and  C_22
REMARK    6  A    between atoms: C_22  and  C_23
REMARK                            x       y       z     vdW  Elec       q    Type
REMARK                         _______ _______ _______ _____ _____    ______ ____
ROOT
ATOM      1  C   UNL     1      -1.467  12.631  22.352  0.00  0.00    +0.000 C 
ATOM      2  S   UNL     1      -0.413  11.136  22.218  0.00  0.00    +0.000 S 
ATOM      3  C   UNL     1      -0.010  11.329  20.397  0.00  0.00    +0.000 A 
ATOM      4  C   UNL     1      -0.435  10.185  19.712  0.00  0.00    +0.000 A 
ATOM      5  C   UNL     1      -1.439  10.317  18.758  0.00  0.00    +0.000 A 
ATOM      6  C   UNL     1      -1.907  11.585  18.413  0.00  0.00    +0.000 A 
ATOM      7  C   UNL     1      -1.224  12.725  18.850  0.00  0.00    +0.000 A 
ATOM      8  C   UNL     1      -0.196  12.590  19.801  0.00  0.00    +0.000 A 
ATOM      9  N   UNL     1       0.387  13.773  20.345  0.00  0.00    +0.000 N 
ATOM     10  C   UNL     1       1.157  14.615  19.562  0.00  0.00    +0.000 A 
ATOM     11  C   UNL     1       1.711  15.588  20.367  0.00  0.00    +0.000 A 
ATOM     12  C   UNL     1       1.194  15.394  21.661  0.00  0.00    +0.000 A 
ATOM     13  C   UNL     1       0.327  14.306  21.634  0.00  0.00    +0.000 A 
ATOM     14  C   UNL     1      -0.566  13.816  22.780  0.00  0.00    +0.000 C 
ENDROOT
BRANCH   1  18
ATOM     15  C   UNL     1      -5.630  12.933  23.472  0.00  0.00    +0.000 A 
ATOM     16  C   UNL     1      -5.259  13.219  22.158  0.00  0.00    +0.000 A 
ATOM     17  C   UNL     1      -3.940  13.031  21.697  0.00  0.00    +0.000 A 
ATOM     18  C   UNL     1      -2.970  12.553  22.571  0.00  0.00    +0.000 A 
ATOM     19  C   UNL     1      -3.370  12.250  23.900  0.00  0.00    +0.000 A 
ATOM     20  C   UNL     1      -4.664  12.458  24.364  0.00  0.00    +0.000 A 
BRANCH  15  22
ATOM     21  C   UNL     1      -7.916  12.374  23.252  0.00  0.00    +0.000 C 
ATOM     22  O   UNL     1      -6.916  13.213  23.830  0.00  0.00    +0.000 OA
ENDBRANCH  15  22
ENDBRANCH   1  18
BRANCH  14  23
ATOM     23  O   UNL     1      -1.396  14.938  23.141  0.00  0.00    +0.000 OA
BRANCH  23  24
ATOM     24  C   UNL     1      -1.384  15.334  24.439  0.00  0.00    +0.000 C 
ATOM     25  C   UNL     1      -2.757  15.714  24.888  0.00  0.00    +0.000 C 
ATOM     26  O   UNL     1      -0.388  15.367  25.157  0.00  0.00    +0.000 OA
ENDBRANCH  23  24
ENDBRANCH  14  23
TORSDOF 4
ENDMDL
MODEL 4
REMARK VINA RESULT:      -5.7     10.849     13.892
REMARK  Name = 
REMARK  6 active torsions:
REMARK  status: ('A' for Active; 'I' for Inactive)
REMARK    1  A    between atoms: C_1  and  O_2
REMARK    2  A    between atoms: O_2  and  C_3
REMARK    3  A    between atoms: C_6  and  C_7
REMARK    4  A    between atoms: C_20  and  O_21
REMARK    5  A    between atoms: O_21  and  C_22
REMARK    6  A    between atoms: C_22  and  C_23
REMARK                            x       y       z     vdW  Elec       q    Type
REMARK                         _______ _______ _______ _____ _____    ______ ____
ROOT
ATOM      1  C   UNL     1       8.702  14.332  21.784  0.00  0.00    +0.000 C 
ATOM      2  S   UNL     1      10.277  15.088  21.221  0.00  0.00    +0.000 S 
ATOM      3  C   UNL     1      10.508  13.989  19.720  0.00  0.00    +0.000 A 
ATOM      4  C   UNL     1      11.732  13.317  19.831  0.00  0.00    +0.000 A 
ATOM      5  C   UNL     1      11.719  11.930  19.940  0.00  0.00    +0.000 A 
ATOM      6  C   UNL     1      10.518  11.233  19.808  0.00  0.00    +0.000 A 
ATOM      7  C   UNL     1       9.374  11.894  19.348  0.00  0.00    +0.000 A 
ATOM      8  C   UNL     1       9.391  13.295  19.221  0.00  0.00    +0.000 A 
ATOM      9  N   UNL     1       8.175  13.963  18.894  0.00  0.00    +0.000 N 
ATOM     10  C   UNL     1       7.586  13.809  17.650  0.00  0.00    +0.000 A 
ATOM     11  C   UNL     1       6.515  14.674  17.554  0.00  0.00    +0.000 A 
ATOM     12  C   UNL     1       6.386  15.307  18.804  0.00  0.00    +0.000 A 
ATOM     13  C   UNL     1       7.377  14.822  19.653  0.00  0.00    +0.000 A 
ATOM     14  C   UNL     1       7.535  15.127  21.147  0.00  0.00    +0.000 C 
ENDROOT
BRANCH   1  18
ATOM     15  C   UNL     1       7.835  12.386  25.543  0.00  0.00    +0.000 A 
ATOM     16  C   UNL     1       7.806  11.634  24.368  0.00  0.00    +0.000 A 
ATOM     17  C   UNL     1       8.189  12.178  23.125  0.00  0.00    +0.000 A 
ATOM     18  C   UNL     1       8.603  13.503  23.055  0.00  0.00    +0.000 A 
ATOM     19  C   UNL     1       8.644  14.248  24.264  0.00  0.00    +0.000 A 
ATOM     20  C   UNL     1       8.243  13.722  25.487  0.00  0.00    +0.000 A 
BRANCH  15  22
ATOM     21  C   UNL     1       6.148  11.073  26.553  0.00  0.00    +0.000 C 
ATOM     22  O   UNL     1       7.382  11.780  26.679  0.00  0.00    +0.000 OA
ENDBRANCH  15  22
ENDBRANCH   1  18
BRANCH  14  23
ATOM     23  O   UNL     1       6.295  14.727  21.764  0.00  0.00    +0.000 OA
BRANCH  23  24
ATOM     24  C   UNL     1       5.637  15.654  22.505  0.00  0.00    +0.000 C 
ATOM     25  C   UNL     1       5.069  15.036  23.740  0.00  0.00    +0.000 C 
ATOM     26  O   UNL     1       5.528  16.842  22.213  0.00  0.00    +0.000 OA
ENDBRANCH  23  24
ENDBRANCH  14  23
TORSDOF 4
ENDMDL
MODEL 5
REMARK VINA RESULT:      -5.6      3.152      5.779
REMARK  Name = 
REMARK  6 active torsions:
REMARK  status: ('A' for Active; 'I' for Inactive)
REMARK    1  A    between atoms: C_1  and  O_2
REMARK    2  A    between atoms: O_2  and  C_3
REMARK    3  A    between atoms: C_6  and  C_7
REMARK    4  A    between atoms: C_20  and  O_21
REMARK    5  A    between atoms: O_21  and  C_22
REMARK    6  A    between atoms: C_22  and  C_23
REMARK                            x       y       z     vdW  Elec       q    Type
REMARK                         _______ _______ _______ _____ _____    ______ ____
ROOT
ATOM      1  C   UNL     1      -0.990  12.188  19.588  0.00  0.00    +0.000 C 
ATOM      2  S   UNL     1      -0.909  11.467  21.273  0.00  0.00    +0.000 S 
ATOM      3  C   UNL     1      -1.928  12.796  22.116  0.00  0.00    +0.000 A 
ATOM      4  C   UNL     1      -1.163  13.379  23.134  0.00  0.00    +0.000 A 
ATOM      5  C   UNL     1      -0.830  14.725  23.024  0.00  0.00    +0.000 A 
ATOM      6  C   UNL     1      -1.362  15.492  21.987  0.00  0.00    +0.000 A 
ATOM      7  C   UNL     1      -2.395  14.976  21.197  0.00  0.00    +0.000 A 
ATOM      8  C   UNL     1      -2.745  13.618  21.319  0.00  0.00    +0.000 A 
ATOM      9  N   UNL     1      -3.695  13.075  20.405  0.00  0.00    +0.000 N 
ATOM     10  C   UNL     1      -5.021  13.469  20.434  0.00  0.00    +0.000 A 
ATOM     11  C   UNL     1      -5.738  12.687  19.552  0.00  0.00    +0.000 A 
ATOM     12  C   UNL     1      -4.812  11.854  18.896  0.00  0.00    +0.000 A 
ATOM     13  C   UNL     1      -3.538  12.137  19.382  0.00  0.00    +0.000 A 
ATOM     14  C   UNL     1      -2.212  11.572  18.862  0.00  0.00    +0.000 C 
ENDROOT
BRANCH   1  18
ATOM     15  C   UNL     1       2.584  14.227  18.269  0.00  0.00    +0.000 A 
ATOM     16  C   UNL     1       2.559  12.832  18.267  0.00  0.00    +0.000 A 
ATOM     17  C   UNL     1       1.391  12.106  18.575  0.00  0.00    +0.000 A 
ATOM     18  C   UNL     1       0.224  12.789  18.899  0.00  0.00    +0.000 A 
ATOM     19  C   UNL     1       0.263  14.210  18.878  0.00  0.00    +0.000 A 
ATOM     20  C   UNL     1       1.420  14.929  18.599  0.00  0.00    +0.000 A 
BRANCH  15  22
ATOM     21  C   UNL     1       3.976  16.104  18.631  0.00  0.00    +0.000 C 
ATOM     22  O   UNL     1       3.784  14.828  18.020  0.00  0.00    +0.000 OA
ENDBRANCH  15  22
ENDBRANCH   1  18
BRANCH  14  23
ATOM     23  O   UNL     1      -2.157  11.919  17.463  0.00  0.00    +0.000 OA
BRANCH  23  24
ATOM     24  C   UNL     1      -2.356  10.923  16.563  0.00  0.00    +0.000 C 
ATOM     25  C   UNL     1      -1.812   9.631  17.076  0.00  0.00    +0.000 C 
ATOM     26  O   UNL     1      -2.917  11.055  15.478  0.00  0.00    +0.000 OA
ENDBRANCH  23  24
ENDBRANCH  14  23
TORSDOF 4
ENDMDL
MODEL 6
REMARK VINA RESULT:      -5.6      3.058      6.064
REMARK  Name = 
REMARK  6 active torsions:
REMARK  status: ('A' for Active; 'I' for Inactive)
REMARK    1  A    between atoms: C_1  and  O_2
REMARK    2  A    between atoms: O_2  and  C_3
REMARK    3  A    between atoms: C_6  and  C_7
REMARK    4  A    between atoms: C_20  and  O_21
REMARK    5  A    between atoms: O_21  and  C_22
REMARK    6  A    between atoms: C_22  and  C_23
REMARK                            x       y       z     vdW  Elec       q    Type
REMARK                         _______ _______ _______ _____ _____    ______ ____
ROOT
ATOM      1  C   UNL     1      -1.603  12.818  22.033  0.00  0.00    +0.000 C 
ATOM      2  S   UNL     1      -0.813  11.162  22.025  0.00  0.00    +0.000 S 
ATOM      3  C   UNL     1      -0.102  11.281  20.294  0.00  0.00    +0.000 A 
ATOM      4  C   UNL     1      -0.604  10.226  19.522  0.00  0.00    +0.000 A 
ATOM      5  C   UNL     1      -1.409  10.529  18.428  0.00  0.00    +0.000 A 
ATOM      6  C   UNL     1      -1.592  11.859  18.047  0.00  0.00    +0.000 A 
ATOM      7  C   UNL     1      -0.801  12.863  18.615  0.00  0.00    +0.000 A 
ATOM      8  C   UNL     1       0.026  12.554  19.710  0.00  0.00    +0.000 A 
ATOM      9  N   UNL     1       0.711  13.618  20.368  0.00  0.00    +0.000 N 
ATOM     10  C   UNL     1       1.727  14.312  19.736  0.00  0.00    +0.000 A 
ATOM     11  C   UNL     1       2.308  15.176  20.642  0.00  0.00    +0.000 A 
ATOM     12  C   UNL     1       1.568  15.076  21.835  0.00  0.00    +0.000 A 
ATOM     13  C   UNL     1       0.542  14.155  21.645  0.00  0.00    +0.000 A 
ATOM     14  C   UNL     1      -0.590  13.829  22.627  0.00  0.00    +0.000 C 
ENDROOT
BRANCH   1  18
ATOM     15  C   UNL     1      -5.907  12.679  21.674  0.00  0.00    +0.000 A 
ATOM     16  C   UNL     1      -5.335  12.782  22.943  0.00  0.00    +0.000 A 
ATOM     17  C   UNL     1      -3.947  12.947  23.125  0.00  0.00    +0.000 A 
ATOM     18  C   UNL     1      -3.112  13.003  22.015  0.00  0.00    +0.000 A 
ATOM     19  C   UNL     1      -3.714  12.914  20.730  0.00  0.00    +0.000 A 
ATOM     20  C   UNL     1      -5.080  12.727  20.549  0.00  0.00    +0.000 A 
BRANCH  15  22
ATOM     21  C   UNL     1      -7.912  12.316  22.874  0.00  0.00    +0.000 C 
ATOM     22  O   UNL     1      -7.252  12.456  21.615  0.00  0.00    +0.000 OA
ENDBRANCH  15  22
ENDBRANCH   1  18
BRANCH  14  23
ATOM     23  O   UNL     1      -1.262  15.079  22.884  0.00  0.00    +0.000 OA
BRANCH  23  24
ATOM     24  C   UNL     1      -1.380  15.472  24.178  0.00  0.00    +0.000 C 
ATOM     25  C   UNL     1      -2.690  16.150  24.406  0.00  0.00    +0.000 C 
ATOM     26  O   UNL     1      -0.534  15.288  25.049  0.00  0.00    +0.000 OA
ENDBRANCH  23  24
ENDBRANCH  14  23
TORSDOF 4
ENDMDL
MODEL 7
REMARK VINA RESULT:      -5.5      3.819      5.418
REMARK  Name = 
REMARK  6 active torsions:
REMARK  status: ('A' for Active; 'I' for Inactive)
REMARK    1  A    between atoms: C_1  and  O_2
REMARK    2  A    between atoms: O_2  and  C_3
REMARK    3  A    between atoms: C_6  and  C_7
REMARK    4  A    between atoms: C_20  and  O_21
REMARK    5  A    between atoms: O_21  and  C_22
REMARK    6  A    between atoms: C_22  and  C_23
REMARK                            x       y       z     vdW  Elec       q    Type
REMARK                         _______ _______ _______ _____ _____    ______ ____
ROOT
ATOM      1  C   UNL     1       0.367  13.139  20.669  0.00  0.00    +0.000 C 
ATOM      2  S   UNL     1       2.122  13.636  20.869  0.00  0.00    +0.000 S 
ATOM      3  C   UNL     1       1.844  15.475  20.633  0.00  0.00    +0.000 A 
ATOM      4  C   UNL     1       2.615  15.918  19.551  0.00  0.00    +0.000 A 
ATOM      5  C   UNL     1       1.959  16.412  18.428  0.00  0.00    +0.000 A 
ATOM      6  C   UNL     1       0.574  16.578  18.448  0.00  0.00    +0.000 A 
ATOM      7  C   UNL     1      -0.125  16.464  19.654  0.00  0.00    +0.000 A 
ATOM      8  C   UNL     1       0.541  15.980  20.795  0.00  0.00    +0.000 A 
ATOM      9  N   UNL     1      -0.222  15.731  21.974  0.00  0.00    +0.000 N 
ATOM     10  C   UNL     1      -0.793  16.768  22.689  0.00  0.00    +0.000 A 
ATOM     11  C   UNL     1      -1.340  16.262  23.850  0.00  0.00    +0.000 A 
ATOM     12  C   UNL     1      -1.183  14.864  23.802  0.00  0.00    +0.000 A 
ATOM     13  C   UNL     1      -0.543  14.530  22.611  0.00  0.00    +0.000 A 
ATOM     14  C   UNL     1      -0.288  13.118  22.072  0.00  0.00    +0.000 C 
ENDROOT
BRANCH   1  18
ATOM     15  C   UNL     1      -1.387  10.500  17.731  0.00  0.00    +0.000 A 
ATOM     16  C   UNL     1      -1.702  11.860  17.695  0.00  0.00    +0.000 A 
ATOM     17  C   UNL     1      -1.078  12.792  18.549  0.00  0.00    +0.000 A 
ATOM     18  C   UNL     1      -0.126  12.355  19.463  0.00  0.00    +0.000 A 
ATOM     19  C   UNL     1       0.195  10.971  19.472  0.00  0.00    +0.000 A 
ATOM     20  C   UNL     1      -0.436  10.045  18.649  0.00  0.00    +0.000 A 
BRANCH  15  22
ATOM     21  C   UNL     1      -2.904  10.329  15.925  0.00  0.00    +0.000 C 
ATOM     22  O   UNL     1      -2.098   9.677  16.906  0.00  0.00    +0.000 OA
ENDBRANCH  15  22
ENDBRANCH   1  18
BRANCH  14  23
ATOM     23  O   UNL     1      -1.582  12.489  21.983  0.00  0.00    +0.000 OA
BRANCH  23  24
ATOM     24  C   UNL     1      -1.908  11.588  22.944  0.00  0.00    +0.000 C 
ATOM     25  C   UNL     1      -0.837  10.558  23.087  0.00  0.00    +0.000 C 
ATOM     26  O   UNL     1      -2.937  11.614  23.614  0.00  0.00    +0.000 OA
ENDBRANCH  23  24
ENDBRANCH  14  23
TORSDOF 4
ENDMDL
MODEL 8
REMARK VINA RESULT:      -5.5      3.414      4.763
REMARK  Name = 
REMARK  6 active torsions:
REMARK  status: ('A' for Active; 'I' for Inactive)
REMARK    1  A    between atoms: C_1  and  O_2
REMARK    2  A    between atoms: O_2  and  C_3
REMARK    3  A    between atoms: C_6  and  C_7
REMARK    4  A    between atoms: C_20  and  O_21
REMARK    5  A    between atoms: O_21  and  C_22
REMARK    6  A    between atoms: C_22  and  C_23
REMARK                            x       y       z     vdW  Elec       q    Type
REMARK                         _______ _______ _______ _____ _____    ______ ____
ROOT
ATOM      1  C   UNL     1      -1.698  13.443  21.894  0.00  0.00    +0.000 C 
ATOM      2  S   UNL     1      -3.207  14.018  21.022  0.00  0.00    +0.000 S 
ATOM      3  C   UNL     1      -4.201  14.405  22.563  0.00  0.00    +0.000 A 
ATOM      4  C   UNL     1      -5.379  13.649  22.547  0.00  0.00    +0.000 A 
ATOM      5  C   UNL     1      -5.570  12.697  23.544  0.00  0.00    +0.000 A 
ATOM      6  C   UNL     1      -4.662  12.603  24.599  0.00  0.00    +0.000 A 
ATOM      7  C   UNL     1      -3.695  13.597  24.778  0.00  0.00    +0.000 A 
ATOM      8  C   UNL     1      -3.513  14.571  23.779  0.00  0.00    +0.000 A 
ATOM      9  N   UNL     1      -2.426  15.486  23.909  0.00  0.00    +0.000 N 
ATOM     10  C   UNL     1      -2.413  16.441  24.910  0.00  0.00    +0.000 A 
ATOM     11  C   UNL     1      -1.332  17.276  24.715  0.00  0.00    +0.000 A 
ATOM     12  C   UNL     1      -0.611  16.764  23.620  0.00  0.00    +0.000 A 
ATOM     13  C   UNL     1      -1.256  15.620  23.159  0.00  0.00    +0.000 A 
ATOM     14  C   UNL     1      -0.756  14.659  22.074  0.00  0.00    +0.000 C 
ENDROOT
BRANCH   1  18
ATOM     15  C   UNL     1       0.232   9.579  21.758  0.00  0.00    +0.000 A 
ATOM     16  C   UNL     1      -0.431   9.965  22.924  0.00  0.00    +0.000 A 
ATOM     17  C   UNL     1      -1.177  11.159  22.997  0.00  0.00    +0.000 A 
ATOM     18  C   UNL     1      -1.255  11.988  21.884  0.00  0.00    +0.000 A 
ATOM     19  C   UNL     1      -0.588  11.570  20.700  0.00  0.00    +0.000 A 
ATOM     20  C   UNL     1       0.168  10.405  20.632  0.00  0.00    +0.000 A 
BRANCH  15  22
ATOM     21  C   UNL     1       1.567   8.019  20.586  0.00  0.00    +0.000 C 
ATOM     22  O   UNL     1       0.978   8.437  21.817  0.00  0.00    +0.000 OA
ENDBRANCH  15  22
ENDBRANCH   1  18
BRANCH  14  23
ATOM     23  O   UNL     1       0.535  14.197  22.521  0.00  0.00    +0.000 OA
BRANCH  23  24
ATOM     24  C   UNL     1       1.614  14.531  21.768  0.00  0.00    +0.000 C 
ATOM     25  C   UNL     1       1.194  14.936  20.394  0.00  0.00    +0.000 C 
ATOM     26  O   UNL     1       2.778  14.514  22.159  0.00  0.00    +0.000 OA
ENDBRANCH  23  24
ENDBRANCH  14  23
TORSDOF 4
ENDMDL
MODEL 9
REMARK VINA RESULT:      -5.5     12.437     14.627
REMARK  Name = 
REMARK  6 active torsions:
REMARK  status: ('A' for Active; 'I' for Inactive)
REMARK    1  A    between atoms: C_1  and  O_2
REMARK    2  A    between atoms: O_2  and  C_3
REMARK    3  A    between atoms: C_6  and  C_7
REMARK    4  A    between atoms: C_20  and  O_21
REMARK    5  A    between atoms: O_21  and  C_22
REMARK    6  A    between atoms: C_22  and  C_23
REMARK                            x       y       z     vdW  Elec       q    Type
REMARK                         _______ _______ _______ _____ _____    ______ ____
ROOT
ATOM      1  C   UNL     1       8.718  14.103  20.227  0.00  0.00    +0.000 C 
ATOM      2  S   UNL     1       7.194  14.858  19.538  0.00  0.00    +0.000 S 
ATOM      3  C   UNL     1       7.824  16.624  19.530  0.00  0.00    +0.000 A 
ATOM      4  C   UNL     1       6.973  17.415  20.311  0.00  0.00    +0.000 A 
ATOM      5  C   UNL     1       7.486  18.006  21.462  0.00  0.00    +0.000 A 
ATOM      6  C   UNL     1       8.849  17.909  21.744  0.00  0.00    +0.000 A 
ATOM      7  C   UNL     1       9.730  17.420  20.773  0.00  0.00    +0.000 A 
ATOM      8  C   UNL     1       9.213  16.839  19.601  0.00  0.00    +0.000 A 
ATOM      9  N   UNL     1      10.118  16.214  18.694  0.00  0.00    +0.000 N 
ATOM     10  C   UNL     1      11.037  16.958  17.975  0.00  0.00    +0.000 A 
ATOM     11  C   UNL     1      11.676  16.130  17.076  0.00  0.00    +0.000 A 
ATOM     12  C   UNL     1      11.203  14.826  17.313  0.00  0.00    +0.000 A 
ATOM     13  C   UNL     1      10.283  14.869  18.356  0.00  0.00    +0.000 A 
ATOM     14  C   UNL     1       9.616  13.671  19.041  0.00  0.00    +0.000 C 
ENDROOT
BRANCH   1  18
ATOM     15  C   UNL     1       8.261  12.795  24.320  0.00  0.00    +0.000 A 
ATOM     16  C   UNL     1       8.250  11.844  23.299  0.00  0.00    +0.000 A 
ATOM     17  C   UNL     1       8.508  12.188  21.956  0.00  0.00    +0.000 A 
ATOM     18  C   UNL     1       8.774  13.512  21.627  0.00  0.00    +0.000 A 
ATOM     19  C   UNL     1       8.799  14.463  22.682  0.00  0.00    +0.000 A 
ATOM     20  C   UNL     1       8.521  14.132  24.003  0.00  0.00    +0.000 A 
BRANCH  15  22
ATOM     21  C   UNL     1       6.771  11.542  25.662  0.00  0.00    +0.000 C 
ATOM     22  O   UNL     1       7.934  12.365  25.573  0.00  0.00    +0.000 OA
ENDBRANCH  15  22
ENDBRANCH   1  18
BRANCH  14  23
ATOM     23  O   UNL     1      10.693  12.850  19.536  0.00  0.00    +0.000 OA
BRANCH  23  24
ATOM     24  C   UNL     1      10.950  11.691  18.879  0.00  0.00    +0.000 C 
ATOM     25  C   UNL     1       9.684  10.951  18.599  0.00  0.00    +0.000 C 
ATOM     26  O   UNL     1      12.067  11.302  18.547  0.00  0.00    +0.000 OA
ENDBRANCH  23  24
ENDBRANCH  14  23
TORSDOF 4
ENDMDL
