MODEL 1
REMARK VINA RESULT:      -8.4      0.000      0.000
REMARK  Name = 
REMARK  12 active torsions:
REMARK  status: ('A' for Active; 'I' for Inactive)
REMARK    1  A    between atoms: C_1  and  O_2
REMARK    2  A    between atoms: O_2  and  C_3
REMARK    3  A    between atoms: C_6  and  C_7
REMARK    4  A    between atoms: C_8  and  C_9
REMARK    5  A    between atoms: C_14  and  C_15
REMARK    6  A    between atoms: C_15  and  C_16
REMARK    7  A    between atoms: C_16  and  N_17
REMARK    8  A    between atoms: C_18  and  C_20
REMARK    9  A    between atoms: C_23  and  C_24
REMARK   10  A    between atoms: C_24  and  O_25
REMARK   11  A    between atoms: O_25  and  C_26
REMARK   12  A    between atoms: C_26  and  C_27
REMARK                            x       y       z     vdW  Elec       q    Type
REMARK                         _______ _______ _______ _____ _____    ______ ____
ROOT
ATOM      1  C   UNL     1       2.475   7.522  18.374  0.00  0.00    +0.000 C 
ENDROOT
BRANCH   1   2
ATOM      2  N   UNL     1       1.530   8.462  18.964  0.00  0.00    +0.000 N 
ATOM      3  C   UNL     1       1.300   9.683  18.360  0.00  0.00    +0.000 C 
ATOM      4  O   UNL     1       1.965  10.122  17.429  0.00  0.00    +0.000 OA
ATOM      5  H   UNL     1       0.959   8.155  19.743  0.00  0.00    +0.000 HD
BRANCH   3   6
ATOM      6  C   UNL     1       0.193  10.491  18.896  0.00  0.00    +0.000 A 
ATOM      7  C   UNL     1       0.134  10.948  20.211  0.00  0.00    +0.000 A 
ATOM      8  C   UNL     1      -0.996  11.652  20.629  0.00  0.00    +0.000 A 
ATOM      9  C   UNL     1      -2.032  11.874  19.721  0.00  0.00    +0.000 A 
ATOM     10  N   UNL     1      -1.988  11.427  18.441  0.00  0.00    +0.000 NA
ATOM     11  C   UNL     1      -0.884  10.745  18.060  0.00  0.00    +0.000 A 
BRANCH   9  12
ATOM     12  C   UNL     1      -3.275  12.611  20.146  0.00  0.00    +0.000 C 
BRANCH  12  13
ATOM     13  O   UNL     1      -3.064  13.183  21.435  0.00  0.00    +0.000 OA
BRANCH  13  14
ATOM     14  C   UNL     1      -4.007  12.693  22.396  0.00  0.00    +0.000 C 
BRANCH  14  15
ATOM     15  C   UNL     1      -3.358  12.401  23.752  0.00  0.00    +0.000 C 
ATOM     16  F   UNL     1      -4.243  11.982  24.682  0.00  0.00    +0.000 F 
ATOM     17  F   UNL     1      -2.407  11.444  23.632  0.00  0.00    +0.000 F 
ATOM     18  F   UNL     1      -2.753  13.509  24.240  0.00  0.00    +0.000 F 
ENDBRANCH  14  15
ENDBRANCH  13  14
ENDBRANCH  12  13
ENDBRANCH   9  12
ENDBRANCH   3   6
ENDBRANCH   1   2
BRANCH   1  19
ATOM     19  C   UNL     1       3.221   6.659  19.401  0.00  0.00    +0.000 C 
BRANCH  19  27
ATOM     20  C   UNL     1       3.430   4.110  18.871  0.00  0.00    +0.000 A 
ATOM     21  C   UNL     1       2.876   2.795  19.068  0.00  0.00    +0.000 A 
ATOM     22  C   UNL     1       3.340   1.528  18.380  0.00  0.00    +0.000 C 
ATOM     23  C   UNL     1       1.800   2.584  19.952  0.00  0.00    +0.000 A 
ATOM     24  C   UNL     1       1.227   3.634  20.632  0.00  0.00    +0.000 A 
ATOM     25  C   UNL     1       1.716   4.913  20.440  0.00  0.00    +0.000 A 
ATOM     26  F   UNL     1       1.096   5.876  21.132  0.00  0.00    +0.000 F 
ATOM     27  C   UNL     1       2.797   5.199  19.575  0.00  0.00    +0.000 A 
BRANCH  20  31
ATOM     28  C   UNL     1       6.661   4.897  16.255  0.00  0.00    +0.000 A 
ATOM     29  C   UNL     1       5.358   4.778  15.811  0.00  0.00    +0.000 A 
ATOM     30  N   UNL     1       4.330   4.426  16.632  0.00  0.00    +0.000 NA
ATOM     31  C   UNL     1       4.611   4.281  17.958  0.00  0.00    +0.000 A 
ATOM     32  C   UNL     1       5.938   4.410  18.372  0.00  0.00    +0.000 A 
ATOM     33  N   UNL     1       6.983   4.688  17.544  0.00  0.00    +0.000 NA
BRANCH  28  35
ATOM     34  C   UNL     1       7.295   4.915  14.012  0.00  0.00    +0.000 C 
ATOM     35  O   UNL     1       7.633   5.271  15.352  0.00  0.00    +0.000 OA
ENDBRANCH  28  35
ENDBRANCH  20  31
ENDBRANCH  19  27
ENDBRANCH   1  19
TORSDOF 10
ENDMDL
MODEL 2
REMARK VINA RESULT:      -8.3      1.175      1.436
REMARK  Name = 
REMARK  12 active torsions:
REMARK  status: ('A' for Active; 'I' for Inactive)
REMARK    1  A    between atoms: C_1  and  O_2
REMARK    2  A    between atoms: O_2  and  C_3
REMARK    3  A    between atoms: C_6  and  C_7
REMARK    4  A    between atoms: C_8  and  C_9
REMARK    5  A    between atoms: C_14  and  C_15
REMARK    6  A    between atoms: C_15  and  C_16
REMARK    7  A    between atoms: C_16  and  N_17
REMARK    8  A    between atoms: C_18  and  C_20
REMARK    9  A    between atoms: C_23  and  C_24
REMARK   10  A    between atoms: C_24  and  O_25
REMARK   11  A    between atoms: O_25  and  C_26
REMARK   12  A    between atoms: C_26  and  C_27
REMARK                            x       y       z     vdW  Elec       q    Type
REMARK                         _______ _______ _______ _____ _____    ______ ____
ROOT
ATOM      1  C   UNL     1       2.845   7.083  18.611  0.00  0.00    +0.000 C 
ENDROOT
BRANCH   1   2
ATOM      2  N   UNL     1       2.011   8.090  19.256  0.00  0.00    +0.000 N 
ATOM      3  C   UNL     1       1.580   9.192  18.544  0.00  0.00    +0.000 C 
ATOM      4  O   UNL     1       1.986   9.486  17.426  0.00  0.00    +0.000 OA
ATOM      5  H   UNL     1       1.653   7.903  20.186  0.00  0.00    +0.000 HD
BRANCH   3   6
ATOM      6  C   UNL     1       0.583  10.056  19.196  0.00  0.00    +0.000 A 
ATOM      7  C   UNL     1      -0.659  10.357  18.641  0.00  0.00    +0.000 A 
ATOM      8  C   UNL     1      -1.502  11.241  19.317  0.00  0.00    +0.000 A 
ATOM      9  C   UNL     1      -1.075  11.799  20.523  0.00  0.00    +0.000 A 
ATOM     10  N   UNL     1       0.137  11.518  21.067  0.00  0.00    +0.000 NA
ATOM     11  C   UNL     1       0.936  10.661  20.392  0.00  0.00    +0.000 A 
BRANCH   9  12
ATOM     12  C   UNL     1      -1.949  12.774  21.267  0.00  0.00    +0.000 C 
BRANCH  12  13
ATOM     13  O   UNL     1      -2.556  12.109  22.373  0.00  0.00    +0.000 OA
BRANCH  13  14
ATOM     14  C   UNL     1      -3.901  12.554  22.588  0.00  0.00    +0.000 C 
BRANCH  14  15
ATOM     15  C   UNL     1      -4.148  12.979  24.039  0.00  0.00    +0.000 C 
ATOM     16  F   UNL     1      -4.314  11.931  24.875  0.00  0.00    +0.000 F 
ATOM     17  F   UNL     1      -3.111  13.713  24.506  0.00  0.00    +0.000 F 
ATOM     18  F   UNL     1      -5.257  13.748  24.129  0.00  0.00    +0.000 F 
ENDBRANCH  14  15
ENDBRANCH  13  14
ENDBRANCH  12  13
ENDBRANCH   9  12
ENDBRANCH   3   6
ENDBRANCH   1   2
BRANCH   1  19
ATOM     19  C   UNL     1       2.146   5.733  18.403  0.00  0.00    +0.000 C 
BRANCH  19  27
ATOM     20  C   UNL     1       3.590   3.799  19.403  0.00  0.00    +0.000 A 
ATOM     21  C   UNL     1       3.663   2.731  20.366  0.00  0.00    +0.000 A 
ATOM     22  C   UNL     1       4.783   1.719  20.481  0.00  0.00    +0.000 C 
ATOM     23  C   UNL     1       2.637   2.533  21.311  0.00  0.00    +0.000 A 
ATOM     24  C   UNL     1       1.521   3.339  21.324  0.00  0.00    +0.000 A 
ATOM     25  C   UNL     1       1.409   4.353  20.391  0.00  0.00    +0.000 A 
ATOM     26  F   UNL     1       0.289   5.083  20.468  0.00  0.00    +0.000 F 
ATOM     27  C   UNL     1       2.400   4.615  19.418  0.00  0.00    +0.000 A 
BRANCH  20  31
ATOM     28  C   UNL     1       6.618   4.595  16.556  0.00  0.00    +0.000 A 
ATOM     29  C   UNL     1       5.469   3.896  16.242  0.00  0.00    +0.000 A 
ATOM     30  N   UNL     1       4.539   3.549  17.175  0.00  0.00    +0.000 NA
ATOM     31  C   UNL     1       4.731   4.005  18.446  0.00  0.00    +0.000 A 
ATOM     32  C   UNL     1       5.902   4.711  18.727  0.00  0.00    +0.000 A 
ATOM     33  N   UNL     1       6.872   4.995  17.815  0.00  0.00    +0.000 NA
BRANCH  28  35
ATOM     34  C   UNL     1       6.908   4.756  14.249  0.00  0.00    +0.000 C 
ATOM     35  O   UNL     1       7.495   4.911  15.541  0.00  0.00    +0.000 OA
ENDBRANCH  28  35
ENDBRANCH  20  31
ENDBRANCH  19  27
ENDBRANCH   1  19
TORSDOF 10
ENDMDL
MODEL 3
REMARK VINA RESULT:      -8.1      0.906      1.160
REMARK  Name = 
REMARK  12 active torsions:
REMARK  status: ('A' for Active; 'I' for Inactive)
REMARK    1  A    between atoms: C_1  and  O_2
REMARK    2  A    between atoms: O_2  and  C_3
REMARK    3  A    between atoms: C_6  and  C_7
REMARK    4  A    between atoms: C_8  and  C_9
REMARK    5  A    between atoms: C_14  and  C_15
REMARK    6  A    between atoms: C_15  and  C_16
REMARK    7  A    between atoms: C_16  and  N_17
REMARK    8  A    between atoms: C_18  and  C_20
REMARK    9  A    between atoms: C_23  and  C_24
REMARK   10  A    between atoms: C_24  and  O_25
REMARK   11  A    between atoms: O_25  and  C_26
REMARK   12  A    between atoms: C_26  and  C_27
REMARK                            x       y       z     vdW  Elec       q    Type
REMARK                         _______ _______ _______ _____ _____    ______ ____
ROOT
ATOM      1  C   UNL     1       2.745   7.190  18.606  0.00  0.00    +0.000 C 
ENDROOT
BRANCH   1   2
ATOM      2  N   UNL     1       1.985   8.232  19.286  0.00  0.00    +0.000 N 
ATOM      3  C   UNL     1       1.580   9.357  18.594  0.00  0.00    +0.000 C 
ATOM      4  O   UNL     1       1.956   9.635  17.461  0.00  0.00    +0.000 OA
ATOM      5  H   UNL     1       1.655   8.059  20.229  0.00  0.00    +0.000 HD
BRANCH   3   6
ATOM      6  C   UNL     1       0.652  10.264  19.286  0.00  0.00    +0.000 A 
ATOM      7  C   UNL     1       0.213  10.072  20.594  0.00  0.00    +0.000 A 
ATOM      8  C   UNL     1      -0.720  10.961  21.130  0.00  0.00    +0.000 A 
ATOM      9  C   UNL     1      -1.186  12.013  20.340  0.00  0.00    +0.000 A 
ATOM     10  N   UNL     1      -0.771  12.205  19.062  0.00  0.00    +0.000 NA
ATOM     11  C   UNL     1       0.131  11.329  18.565  0.00  0.00    +0.000 A 
BRANCH   9  12
ATOM     12  C   UNL     1      -2.210  12.978  20.878  0.00  0.00    +0.000 C 
BRANCH  12  13
ATOM     13  O   UNL     1      -3.359  12.250  21.307  0.00  0.00    +0.000 OA
BRANCH  13  14
ATOM     14  C   UNL     1      -4.033  12.908  22.387  0.00  0.00    +0.000 C 
BRANCH  14  15
ATOM     15  C   UNL     1      -3.435  12.547  23.750  0.00  0.00    +0.000 C 
ATOM     16  F   UNL     1      -2.625  13.508  24.243  0.00  0.00    +0.000 F 
ATOM     17  F   UNL     1      -4.413  12.331  24.661  0.00  0.00    +0.000 F 
ATOM     18  F   UNL     1      -2.707  11.409  23.666  0.00  0.00    +0.000 F 
ENDBRANCH  14  15
ENDBRANCH  13  14
ENDBRANCH  12  13
ENDBRANCH   9  12
ENDBRANCH   3   6
ENDBRANCH   1   2
BRANCH   1  19
ATOM     19  C   UNL     1       1.982   5.868  18.444  0.00  0.00    +0.000 C 
BRANCH  19  27
ATOM     20  C   UNL     1       3.523   3.944  19.310  0.00  0.00    +0.000 A 
ATOM     21  C   UNL     1       3.662   2.837  20.220  0.00  0.00    +0.000 A 
ATOM     22  C   UNL     1       4.821   1.862  20.256  0.00  0.00    +0.000 C 
ATOM     23  C   UNL     1       2.674   2.560  21.185  0.00  0.00    +0.000 A 
ATOM     24  C   UNL     1       1.532   3.324  21.267  0.00  0.00    +0.000 A 
ATOM     25  C   UNL     1       1.356   4.374  20.386  0.00  0.00    +0.000 A 
ATOM     26  F   UNL     1       0.214   5.059  20.529  0.00  0.00    +0.000 F 
ATOM     27  C   UNL     1       2.306   4.716  19.398  0.00  0.00    +0.000 A 
BRANCH  20  31
ATOM     28  C   UNL     1       6.439   4.989  16.427  0.00  0.00    +0.000 A 
ATOM     29  C   UNL     1       5.278   4.316  16.099  0.00  0.00    +0.000 A 
ATOM     30  N   UNL     1       4.385   3.889  17.034  0.00  0.00    +0.000 NA
ATOM     31  C   UNL     1       4.626   4.234  18.331  0.00  0.00    +0.000 A 
ATOM     32  C   UNL     1       5.808   4.916  18.626  0.00  0.00    +0.000 A 
ATOM     33  N   UNL     1       6.742   5.280  17.705  0.00  0.00    +0.000 NA
BRANCH  28  35
ATOM     34  C   UNL     1       7.045   4.674  14.199  0.00  0.00    +0.000 C 
ATOM     35  O   UNL     1       7.276   5.393  15.409  0.00  0.00    +0.000 OA
ENDBRANCH  28  35
ENDBRANCH  20  31
ENDBRANCH  19  27
ENDBRANCH   1  19
TORSDOF 10
ENDMDL
MODEL 4
REMARK VINA RESULT:      -8.0      1.572      1.983
REMARK  Name = 
REMARK  12 active torsions:
REMARK  status: ('A' for Active; 'I' for Inactive)
REMARK    1  A    between atoms: C_1  and  O_2
REMARK    2  A    between atoms: O_2  and  C_3
REMARK    3  A    between atoms: C_6  and  C_7
REMARK    4  A    between atoms: C_8  and  C_9
REMARK    5  A    between atoms: C_14  and  C_15
REMARK    6  A    between atoms: C_15  and  C_16
REMARK    7  A    between atoms: C_16  and  N_17
REMARK    8  A    between atoms: C_18  and  C_20
REMARK    9  A    between atoms: C_23  and  C_24
REMARK   10  A    between atoms: C_24  and  O_25
REMARK   11  A    between atoms: O_25  and  C_26
REMARK   12  A    between atoms: C_26  and  C_27
REMARK                            x       y       z     vdW  Elec       q    Type
REMARK                         _______ _______ _______ _____ _____    ______ ____
ROOT
ATOM      1  C   UNL     1       2.557   7.092  18.676  0.00  0.00    +0.000 C 
ENDROOT
BRANCH   1   2
ATOM      2  N   UNL     1       1.911   8.017  19.600  0.00  0.00    +0.000 N 
ATOM      3  C   UNL     1       1.393   9.210  19.136  0.00  0.00    +0.000 C 
ATOM      4  O   UNL     1       1.579   9.643  18.005  0.00  0.00    +0.000 OA
ATOM      5  H   UNL     1       1.739   7.714  20.552  0.00  0.00    +0.000 HD
BRANCH   3   6
ATOM      6  C   UNL     1       0.583   9.995  20.081  0.00  0.00    +0.000 A 
ATOM      7  C   UNL     1      -0.388  10.914  19.689  0.00  0.00    +0.000 A 
ATOM      8  C   UNL     1      -1.052  11.652  20.671  0.00  0.00    +0.000 A 
ATOM      9  C   UNL     1      -0.722  11.449  22.011  0.00  0.00    +0.000 A 
ATOM     10  N   UNL     1       0.227  10.562  22.403  0.00  0.00    +0.000 NA
ATOM     11  C   UNL     1       0.858   9.861  21.434  0.00  0.00    +0.000 A 
BRANCH   9  12
ATOM     12  C   UNL     1      -1.403  12.245  23.095  0.00  0.00    +0.000 C 
BRANCH  12  13
ATOM     13  O   UNL     1      -2.816  12.140  22.935  0.00  0.00    +0.000 OA
BRANCH  13  14
ATOM     14  C   UNL     1      -3.499  13.272  23.487  0.00  0.00    +0.000 C 
BRANCH  14  15
ATOM     15  C   UNL     1      -4.966  12.967  23.807  0.00  0.00    +0.000 C 
ATOM     16  F   UNL     1      -5.632  12.424  22.765  0.00  0.00    +0.000 F 
ATOM     17  F   UNL     1      -5.060  12.104  24.846  0.00  0.00    +0.000 F 
ATOM     18  F   UNL     1      -5.622  14.096  24.161  0.00  0.00    +0.000 F 
ENDBRANCH  14  15
ENDBRANCH  13  14
ENDBRANCH  12  13
ENDBRANCH   9  12
ENDBRANCH   3   6
ENDBRANCH   1   2
BRANCH   1  19
ATOM     19  C   UNL     1       1.836   5.744  18.536  0.00  0.00    +0.000 C 
BRANCH  19  27
ATOM     20  C   UNL     1       3.431   3.842  19.350  0.00  0.00    +0.000 A 
ATOM     21  C   UNL     1       3.625   2.751  20.270  0.00  0.00    +0.000 A 
ATOM     22  C   UNL     1       4.788   1.782  20.260  0.00  0.00    +0.000 C 
ATOM     23  C   UNL     1       2.691   2.487  21.291  0.00  0.00    +0.000 A 
ATOM     24  C   UNL     1       1.551   3.247  21.422  0.00  0.00    +0.000 A 
ATOM     25  C   UNL     1       1.323   4.282  20.534  0.00  0.00    +0.000 A 
ATOM     26  F   UNL     1       0.187   4.964  20.727  0.00  0.00    +0.000 F 
ATOM     27  C   UNL     1       2.217   4.610  19.491  0.00  0.00    +0.000 A 
BRANCH  20  31
ATOM     28  C   UNL     1       6.566   4.410  16.565  0.00  0.00    +0.000 A 
ATOM     29  C   UNL     1       6.634   4.874  17.865  0.00  0.00    +0.000 A 
ATOM     30  N   UNL     1       5.590   4.783  18.734  0.00  0.00    +0.000 NA
ATOM     31  C   UNL     1       4.478   4.120  18.308  0.00  0.00    +0.000 A 
ATOM     32  C   UNL     1       4.445   3.662  16.990  0.00  0.00    +0.000 A 
ATOM     33  N   UNL     1       5.456   3.816  16.091  0.00  0.00    +0.000 NA
BRANCH  28  35
ATOM     34  C   UNL     1       7.351   4.964  14.442  0.00  0.00    +0.000 C 
ATOM     35  O   UNL     1       7.679   4.534  15.762  0.00  0.00    +0.000 OA
ENDBRANCH  28  35
ENDBRANCH  20  31
ENDBRANCH  19  27
ENDBRANCH   1  19
TORSDOF 10
ENDMDL
MODEL 5
REMARK VINA RESULT:      -8.0      2.228      2.607
REMARK  Name = 
REMARK  12 active torsions:
REMARK  status: ('A' for Active; 'I' for Inactive)
REMARK    1  A    between atoms: C_1  and  O_2
REMARK    2  A    between atoms: O_2  and  C_3
REMARK    3  A    between atoms: C_6  and  C_7
REMARK    4  A    between atoms: C_8  and  C_9
REMARK    5  A    between atoms: C_14  and  C_15
REMARK    6  A    between atoms: C_15  and  C_16
REMARK    7  A    between atoms: C_16  and  N_17
REMARK    8  A    between atoms: C_18  and  C_20
REMARK    9  A    between atoms: C_23  and  C_24
REMARK   10  A    between atoms: C_24  and  O_25
REMARK   11  A    between atoms: O_25  and  C_26
REMARK   12  A    between atoms: C_26  and  C_27
REMARK                            x       y       z     vdW  Elec       q    Type
REMARK                         _______ _______ _______ _____ _____    ______ ____
ROOT
ATOM      1  C   UNL     1       2.552   7.406  18.831  0.00  0.00    +0.000 C 
ENDROOT
BRANCH   1   2
ATOM      2  N   UNL     1       1.498   8.337  19.214  0.00  0.00    +0.000 N 
ATOM      3  C   UNL     1       1.155   9.378  18.373  0.00  0.00    +0.000 C 
ATOM      4  O   UNL     1       1.792   9.689  17.373  0.00  0.00    +0.000 OA
ATOM      5  H   UNL     1       0.943   8.135  20.037  0.00  0.00    +0.000 HD
BRANCH   3   6
ATOM      6  C   UNL     1      -0.045  10.152  18.728  0.00  0.00    +0.000 A 
ATOM      7  C   UNL     1      -1.156  10.280  17.898  0.00  0.00    +0.000 A 
ATOM      8  C   UNL     1      -2.214  11.094  18.309  0.00  0.00    +0.000 A 
ATOM      9  C   UNL     1      -2.125  11.754  19.535  0.00  0.00    +0.000 A 
ATOM     10  N   UNL     1      -1.044  11.643  20.347  0.00  0.00    +0.000 NA
ATOM     11  C   UNL     1      -0.031  10.852  19.926  0.00  0.00    +0.000 A 
BRANCH   9  12
ATOM     12  C   UNL     1      -3.238  12.658  19.999  0.00  0.00    +0.000 C 
BRANCH  12  13
ATOM     13  O   UNL     1      -4.438  12.316  19.307  0.00  0.00    +0.000 OA
BRANCH  13  14
ATOM     14  C   UNL     1      -5.536  12.131  20.208  0.00  0.00    +0.000 C 
BRANCH  14  15
ATOM     15  C   UNL     1      -6.664  11.301  19.587  0.00  0.00    +0.000 C 
ATOM     16  F   UNL     1      -7.790  12.015  19.374  0.00  0.00    +0.000 F 
ATOM     17  F   UNL     1      -6.278  10.782  18.397  0.00  0.00    +0.000 F 
ATOM     18  F   UNL     1      -6.990  10.262  20.391  0.00  0.00    +0.000 F 
ENDBRANCH  14  15
ENDBRANCH  13  14
ENDBRANCH  12  13
ENDBRANCH   9  12
ENDBRANCH   3   6
ENDBRANCH   1   2
BRANCH   1  19
ATOM     19  C   UNL     1       2.041   6.013  18.437  0.00  0.00    +0.000 C 
BRANCH  19  27
ATOM     20  C   UNL     1       3.524   3.994  19.179  0.00  0.00    +0.000 A 
ATOM     21  C   UNL     1       3.658   2.868  20.066  0.00  0.00    +0.000 A 
ATOM     22  C   UNL     1       4.760   1.829  20.014  0.00  0.00    +0.000 C 
ATOM     23  C   UNL     1       2.721   2.632  21.090  0.00  0.00    +0.000 A 
ATOM     24  C   UNL     1       1.631   3.457  21.256  0.00  0.00    +0.000 A 
ATOM     25  C   UNL     1       1.458   4.529  20.400  0.00  0.00    +0.000 A 
ATOM     26  F   UNL     1       0.369   5.273  20.625  0.00  0.00    +0.000 F 
ATOM     27  C   UNL     1       2.360   4.831  19.355  0.00  0.00    +0.000 A 
BRANCH  20  31
ATOM     28  C   UNL     1       6.670   4.466  16.388  0.00  0.00    +0.000 A 
ATOM     29  C   UNL     1       6.736   4.968  17.674  0.00  0.00    +0.000 A 
ATOM     30  N   UNL     1       5.689   4.907  18.543  0.00  0.00    +0.000 NA
ATOM     31  C   UNL     1       4.575   4.237  18.132  0.00  0.00    +0.000 A 
ATOM     32  C   UNL     1       4.544   3.740  16.828  0.00  0.00    +0.000 A 
ATOM     33  N   UNL     1       5.559   3.863  15.929  0.00  0.00    +0.000 NA
BRANCH  28  35
ATOM     34  C   UNL     1       7.455   4.855  14.229  0.00  0.00    +0.000 C 
ATOM     35  O   UNL     1       7.786   4.562  15.586  0.00  0.00    +0.000 OA
ENDBRANCH  28  35
ENDBRANCH  20  31
ENDBRANCH  19  27
ENDBRANCH   1  19
TORSDOF 10
ENDMDL
MODEL 6
REMARK VINA RESULT:      -8.0      1.046      1.280
REMARK  Name = 
REMARK  12 active torsions:
REMARK  status: ('A' for Active; 'I' for Inactive)
REMARK    1  A    between atoms: C_1  and  O_2
REMARK    2  A    between atoms: O_2  and  C_3
REMARK    3  A    between atoms: C_6  and  C_7
REMARK    4  A    between atoms: C_8  and  C_9
REMARK    5  A    between atoms: C_14  and  C_15
REMARK    6  A    between atoms: C_15  and  C_16
REMARK    7  A    between atoms: C_16  and  N_17
REMARK    8  A    between atoms: C_18  and  C_20
REMARK    9  A    between atoms: C_23  and  C_24
REMARK   10  A    between atoms: C_24  and  O_25
REMARK   11  A    between atoms: O_25  and  C_26
REMARK   12  A    between atoms: C_26  and  C_27
REMARK                            x       y       z     vdW  Elec       q    Type
REMARK                         _______ _______ _______ _____ _____    ______ ____
ROOT
ATOM      1  C   UNL     1       1.989   7.548  18.451  0.00  0.00    +0.000 C 
ENDROOT
BRANCH   1   2
ATOM      2  N   UNL     1       1.691   8.791  19.151  0.00  0.00    +0.000 N 
ATOM      3  C   UNL     1       0.758   9.669  18.636  0.00  0.00    +0.000 C 
ATOM      4  O   UNL     1       0.260   9.563  17.521  0.00  0.00    +0.000 OA
ATOM      5  H   UNL     1       2.083   8.937  20.074  0.00  0.00    +0.000 HD
BRANCH   3   6
ATOM      6  C   UNL     1       0.364  10.799  19.493  0.00  0.00    +0.000 A 
ATOM      7  C   UNL     1       0.903  11.035  20.756  0.00  0.00    +0.000 A 
ATOM      8  C   UNL     1       0.408  12.101  21.511  0.00  0.00    +0.000 A 
ATOM      9  C   UNL     1      -0.610  12.893  20.980  0.00  0.00    +0.000 A 
ATOM     10  N   UNL     1      -1.147  12.667  19.754  0.00  0.00    +0.000 NA
ATOM     11  C   UNL     1      -0.653  11.627  19.044  0.00  0.00    +0.000 A 
BRANCH   9  12
ATOM     12  C   UNL     1      -1.183  14.037  21.776  0.00  0.00    +0.000 C 
BRANCH  12  13
ATOM     13  O   UNL     1      -1.216  13.677  23.155  0.00  0.00    +0.000 OA
BRANCH  13  14
ATOM     14  C   UNL     1      -2.552  13.665  23.671  0.00  0.00    +0.000 C 
BRANCH  14  15
ATOM     15  C   UNL     1      -3.233  12.305  23.490  0.00  0.00    +0.000 C 
ATOM     16  F   UNL     1      -2.358  11.278  23.446  0.00  0.00    +0.000 F 
ATOM     17  F   UNL     1      -4.097  12.062  24.504  0.00  0.00    +0.000 F 
ATOM     18  F   UNL     1      -3.947  12.277  22.340  0.00  0.00    +0.000 F 
ENDBRANCH  14  15
ENDBRANCH  13  14
ENDBRANCH  12  13
ENDBRANCH   9  12
ENDBRANCH   3   6
ENDBRANCH   1   2
BRANCH   1  19
ATOM     19  C   UNL     1       3.052   6.682  19.140  0.00  0.00    +0.000 C 
BRANCH  19  27
ATOM     20  C   UNL     1       3.425   4.115  18.832  0.00  0.00    +0.000 A 
ATOM     21  C   UNL     1       2.956   2.790  19.142  0.00  0.00    +0.000 A 
ATOM     22  C   UNL     1       3.503   1.500  18.565  0.00  0.00    +0.000 C 
ATOM     23  C   UNL     1       1.891   2.587  20.042  0.00  0.00    +0.000 A 
ATOM     24  C   UNL     1       1.249   3.653  20.630  0.00  0.00    +0.000 A 
ATOM     25  C   UNL     1       1.657   4.939  20.327  0.00  0.00    +0.000 A 
ATOM     26  F   UNL     1       0.974   5.916  20.935  0.00  0.00    +0.000 F 
ATOM     27  C   UNL     1       2.721   5.218  19.440  0.00  0.00    +0.000 A 
BRANCH  20  31
ATOM     28  C   UNL     1       6.616   4.882  16.160  0.00  0.00    +0.000 A 
ATOM     29  C   UNL     1       5.319   4.675  15.729  0.00  0.00    +0.000 A 
ATOM     30  N   UNL     1       4.309   4.329  16.573  0.00  0.00    +0.000 NA
ATOM     31  C   UNL     1       4.597   4.282  17.905  0.00  0.00    +0.000 A 
ATOM     32  C   UNL     1       5.916   4.499  18.306  0.00  0.00    +0.000 A 
ATOM     33  N   UNL     1       6.947   4.772  17.459  0.00  0.00    +0.000 NA
BRANCH  28  35
ATOM     34  C   UNL     1       7.158   4.960  13.895  0.00  0.00    +0.000 C 
ATOM     35  O   UNL     1       7.569   5.242  15.232  0.00  0.00    +0.000 OA
ENDBRANCH  28  35
ENDBRANCH  20  31
ENDBRANCH  19  27
ENDBRANCH   1  19
TORSDOF 10
ENDMDL
MODEL 7
REMARK VINA RESULT:      -7.9      2.224      2.484
REMARK  Name = 
REMARK  12 active torsions:
REMARK  status: ('A' for Active; 'I' for Inactive)
REMARK    1  A    between atoms: C_1  and  O_2
REMARK    2  A    between atoms: O_2  and  C_3
REMARK    3  A    between atoms: C_6  and  C_7
REMARK    4  A    between atoms: C_8  and  C_9
REMARK    5  A    between atoms: C_14  and  C_15
REMARK    6  A    between atoms: C_15  and  C_16
REMARK    7  A    between atoms: C_16  and  N_17
REMARK    8  A    between atoms: C_18  and  C_20
REMARK    9  A    between atoms: C_23  and  C_24
REMARK   10  A    between atoms: C_24  and  O_25
REMARK   11  A    between atoms: O_25  and  C_26
REMARK   12  A    between atoms: C_26  and  C_27
REMARK                            x       y       z     vdW  Elec       q    Type
REMARK                         _______ _______ _______ _____ _____    ______ ____
ROOT
ATOM      1  C   UNL     1       2.864   6.969  18.418  0.00  0.00    +0.000 C 
ENDROOT
BRANCH   1   2
ATOM      2  N   UNL     1       2.063   8.026  19.025  0.00  0.00    +0.000 N 
ATOM      3  C   UNL     1       1.801   9.185  18.322  0.00  0.00    +0.000 C 
ATOM      4  O   UNL     1       2.336   9.477  17.259  0.00  0.00    +0.000 OA
ATOM      5  H   UNL     1       1.603   7.843  19.909  0.00  0.00    +0.000 HD
BRANCH   3   6
ATOM      6  C   UNL     1       0.826  10.115  18.913  0.00  0.00    +0.000 A 
ATOM      7  C   UNL     1       0.653  11.430  18.486  0.00  0.00    +0.000 A 
ATOM      8  C   UNL     1      -0.256  12.245  19.162  0.00  0.00    +0.000 A 
ATOM      9  C   UNL     1      -0.962  11.720  20.246  0.00  0.00    +0.000 A 
ATOM     10  N   UNL     1      -0.796  10.443  20.675  0.00  0.00    +0.000 NA
ATOM     11  C   UNL     1       0.093   9.675  20.005  0.00  0.00    +0.000 A 
BRANCH   9  12
ATOM     12  C   UNL     1      -1.934  12.577  21.013  0.00  0.00    +0.000 C 
BRANCH  12  13
ATOM     13  O   UNL     1      -2.887  13.130  20.106  0.00  0.00    +0.000 OA
BRANCH  13  14
ATOM     14  C   UNL     1      -4.071  12.327  20.024  0.00  0.00    +0.000 C 
BRANCH  14  15
ATOM     15  C   UNL     1      -4.357  11.857  18.595  0.00  0.00    +0.000 C 
ATOM     16  F   UNL     1      -4.809  10.586  18.537  0.00  0.00    +0.000 F 
ATOM     17  F   UNL     1      -5.286  12.648  18.007  0.00  0.00    +0.000 F 
ATOM     18  F   UNL     1      -3.237  11.923  17.837  0.00  0.00    +0.000 F 
ENDBRANCH  14  15
ENDBRANCH  13  14
ENDBRANCH  12  13
ENDBRANCH   9  12
ENDBRANCH   3   6
ENDBRANCH   1   2
BRANCH   1  19
ATOM     19  C   UNL     1       2.134   5.624  18.299  0.00  0.00    +0.000 C 
BRANCH  19  27
ATOM     20  C   UNL     1       3.634   3.756  19.342  0.00  0.00    +0.000 A 
ATOM     21  C   UNL     1       3.738   2.717  20.333  0.00  0.00    +0.000 A 
ATOM     22  C   UNL     1       4.886   1.737  20.469  0.00  0.00    +0.000 C 
ATOM     23  C   UNL     1       2.724   2.518  21.290  0.00  0.00    +0.000 A 
ATOM     24  C   UNL     1       1.587   3.296  21.287  0.00  0.00    +0.000 A 
ATOM     25  C   UNL     1       1.444   4.281  20.328  0.00  0.00    +0.000 A 
ATOM     26  F   UNL     1       0.306   4.983  20.391  0.00  0.00    +0.000 F 
ATOM     27  C   UNL     1       2.423   4.542  19.342  0.00  0.00    +0.000 A 
BRANCH  20  31
ATOM     28  C   UNL     1       6.626   4.554  16.458  0.00  0.00    +0.000 A 
ATOM     29  C   UNL     1       5.489   3.826  16.167  0.00  0.00    +0.000 A 
ATOM     30  N   UNL     1       4.573   3.480  17.113  0.00  0.00    +0.000 NA
ATOM     31  C   UNL     1       4.764   3.965  18.373  0.00  0.00    +0.000 A 
ATOM     32  C   UNL     1       5.922   4.700  18.632  0.00  0.00    +0.000 A 
ATOM     33  N   UNL     1       6.880   4.984  17.707  0.00  0.00    +0.000 NA
BRANCH  28  35
ATOM     34  C   UNL     1       6.888   4.703  14.148  0.00  0.00    +0.000 C 
ATOM     35  O   UNL     1       7.490   4.867  15.431  0.00  0.00    +0.000 OA
ENDBRANCH  28  35
ENDBRANCH  20  31
ENDBRANCH  19  27
ENDBRANCH   1  19
TORSDOF 10
ENDMDL
MODEL 8
REMARK VINA RESULT:      -7.9      0.993      1.108
REMARK  Name = 
REMARK  12 active torsions:
REMARK  status: ('A' for Active; 'I' for Inactive)
REMARK    1  A    between atoms: C_1  and  O_2
REMARK    2  A    between atoms: O_2  and  C_3
REMARK    3  A    between atoms: C_6  and  C_7
REMARK    4  A    between atoms: C_8  and  C_9
REMARK    5  A    between atoms: C_14  and  C_15
REMARK    6  A    between atoms: C_15  and  C_16
REMARK    7  A    between atoms: C_16  and  N_17
REMARK    8  A    between atoms: C_18  and  C_20
REMARK    9  A    between atoms: C_23  and  C_24
REMARK   10  A    between atoms: C_24  and  O_25
REMARK   11  A    between atoms: O_25  and  C_26
REMARK   12  A    between atoms: C_26  and  C_27
REMARK                            x       y       z     vdW  Elec       q    Type
REMARK                         _______ _______ _______ _____ _____    ______ ____
ROOT
ATOM      1  C   UNL     1       2.394   7.596  18.398  0.00  0.00    +0.000 C 
ENDROOT
BRANCH   1   2
ATOM      2  N   UNL     1       1.684   8.573  19.213  0.00  0.00    +0.000 N 
ATOM      3  C   UNL     1       1.473   9.852  18.735  0.00  0.00    +0.000 C 
ATOM      4  O   UNL     1       1.990  10.295  17.716  0.00  0.00    +0.000 OA
ATOM      5  H   UNL     1       1.243   8.264  20.072  0.00  0.00    +0.000 HD
BRANCH   3   6
ATOM      6  C   UNL     1       0.580  10.717  19.521  0.00  0.00    +0.000 A 
ATOM      7  C   UNL     1       0.382  10.580  20.894  0.00  0.00    +0.000 A 
ATOM      8  C   UNL     1      -0.538  11.416  21.529  0.00  0.00    +0.000 A 
ATOM      9  C   UNL     1      -1.234  12.359  20.771  0.00  0.00    +0.000 A 
ATOM     10  N   UNL     1      -1.054  12.496  19.433  0.00  0.00    +0.000 NA
ATOM     11  C   UNL     1      -0.159  11.673  18.840  0.00  0.00    +0.000 A 
BRANCH   9  12
ATOM     12  C   UNL     1      -2.251  13.261  21.419  0.00  0.00    +0.000 C 
BRANCH  12  13
ATOM     13  O   UNL     1      -3.269  12.463  22.019  0.00  0.00    +0.000 OA
BRANCH  13  14
ATOM     14  C   UNL     1      -3.456  12.790  23.401  0.00  0.00    +0.000 C 
BRANCH  14  15
ATOM     15  C   UNL     1      -4.934  12.973  23.761  0.00  0.00    +0.000 C 
ATOM     16  F   UNL     1      -5.770  12.584  22.774  0.00  0.00    +0.000 F 
ATOM     17  F   UNL     1      -5.250  12.260  24.868  0.00  0.00    +0.000 F 
ATOM     18  F   UNL     1      -5.203  14.271  24.030  0.00  0.00    +0.000 F 
ENDBRANCH  14  15
ENDBRANCH  13  14
ENDBRANCH  12  13
ENDBRANCH   9  12
ENDBRANCH   3   6
ENDBRANCH   1   2
BRANCH   1  19
ATOM     19  C   UNL     1       3.301   6.654  19.201  0.00  0.00    +0.000 C 
BRANCH  19  27
ATOM     20  C   UNL     1       3.444   4.078  18.790  0.00  0.00    +0.000 A 
ATOM     21  C   UNL     1       2.853   2.790  19.042  0.00  0.00    +0.000 A 
ATOM     22  C   UNL     1       3.288   1.480  18.416  0.00  0.00    +0.000 C 
ATOM     23  C   UNL     1       1.764   2.648  19.924  0.00  0.00    +0.000 A 
ATOM     24  C   UNL     1       1.215   3.744  20.551  0.00  0.00    +0.000 A 
ATOM     25  C   UNL     1       1.740   4.998  20.304  0.00  0.00    +0.000 A 
ATOM     26  F   UNL     1       1.141   6.009  20.946  0.00  0.00    +0.000 F 
ATOM     27  C   UNL     1       2.835   5.216  19.438  0.00  0.00    +0.000 A 
BRANCH  20  31
ATOM     28  C   UNL     1       6.699   4.646  16.146  0.00  0.00    +0.000 A 
ATOM     29  C   UNL     1       5.409   4.428  15.700  0.00  0.00    +0.000 A 
ATOM     30  N   UNL     1       4.377   4.145  16.542  0.00  0.00    +0.000 NA
ATOM     31  C   UNL     1       4.637   4.176  17.880  0.00  0.00    +0.000 A 
ATOM     32  C   UNL     1       5.950   4.401  18.295  0.00  0.00    +0.000 A 
ATOM     33  N   UNL     1       7.002   4.610  17.456  0.00  0.00    +0.000 NA
BRANCH  28  35
ATOM     34  C   UNL     1       7.170   4.955  13.885  0.00  0.00    +0.000 C 
ATOM     35  O   UNL     1       7.675   4.938  15.219  0.00  0.00    +0.000 OA
ENDBRANCH  28  35
ENDBRANCH  20  31
ENDBRANCH  19  27
ENDBRANCH   1  19
TORSDOF 10
ENDMDL
MODEL 9
REMARK VINA RESULT:      -7.9      1.410      1.679
REMARK  Name = 
REMARK  12 active torsions:
REMARK  status: ('A' for Active; 'I' for Inactive)
REMARK    1  A    between atoms: C_1  and  O_2
REMARK    2  A    between atoms: O_2  and  C_3
REMARK    3  A    between atoms: C_6  and  C_7
REMARK    4  A    between atoms: C_8  and  C_9
REMARK    5  A    between atoms: C_14  and  C_15
REMARK    6  A    between atoms: C_15  and  C_16
REMARK    7  A    between atoms: C_16  and  N_17
REMARK    8  A    between atoms: C_18  and  C_20
REMARK    9  A    between atoms: C_23  and  C_24
REMARK   10  A    between atoms: C_24  and  O_25
REMARK   11  A    between atoms: O_25  and  C_26
REMARK   12  A    between atoms: C_26  and  C_27
REMARK                            x       y       z     vdW  Elec       q    Type
REMARK                         _______ _______ _______ _____ _____    ______ ____
ROOT
ATOM      1  C   UNL     1       2.159   7.752  18.740  0.00  0.00    +0.000 C 
ENDROOT
BRANCH   1   2
ATOM      2  N   UNL     1       1.584   8.655  19.729  0.00  0.00    +0.000 N 
ATOM      3  C   UNL     1       0.616   9.567  19.355  0.00  0.00    +0.000 C 
ATOM      4  O   UNL     1       0.306   9.797  18.192  0.00  0.00    +0.000 OA
ATOM      5  H   UNL     1       1.812   8.517  20.707  0.00  0.00    +0.000 HD
BRANCH   3   6
ATOM      6  C   UNL     1      -0.059  10.301  20.437  0.00  0.00    +0.000 A 
ATOM      7  C   UNL     1       0.018   9.941  21.781  0.00  0.00    +0.000 A 
ATOM      8  C   UNL     1      -0.717  10.672  22.717  0.00  0.00    +0.000 A 
ATOM      9  C   UNL     1      -1.506  11.736  22.279  0.00  0.00    +0.000 A 
ATOM     10  N   UNL     1      -1.594  12.090  20.972  0.00  0.00    +0.000 NA
ATOM     11  C   UNL     1      -0.875  11.365  20.084  0.00  0.00    +0.000 A 
BRANCH   9  12
ATOM     12  C   UNL     1      -2.329  12.531  23.259  0.00  0.00    +0.000 C 
BRANCH  12  13
ATOM     13  O   UNL     1      -3.688  12.542  22.827  0.00  0.00    +0.000 OA
BRANCH  13  14
ATOM     14  C   UNL     1      -4.573  12.975  23.866  0.00  0.00    +0.000 C 
BRANCH  14  15
ATOM     15  C   UNL     1      -4.850  14.481  23.805  0.00  0.00    +0.000 C 
ATOM     16  F   UNL     1      -6.134  14.794  24.083  0.00  0.00    +0.000 F 
ATOM     17  F   UNL     1      -4.067  15.149  24.685  0.00  0.00    +0.000 F 
ATOM     18  F   UNL     1      -4.574  14.967  22.573  0.00  0.00    +0.000 F 
ENDBRANCH  14  15
ENDBRANCH  13  14
ENDBRANCH  12  13
ENDBRANCH   9  12
ENDBRANCH   3   6
ENDBRANCH   1   2
BRANCH   1  19
ATOM     19  C   UNL     1       3.177   6.760  19.317  0.00  0.00    +0.000 C 
BRANCH  19  27
ATOM     20  C   UNL     1       3.380   4.201  18.830  0.00  0.00    +0.000 A 
ATOM     21  C   UNL     1       2.823   2.892  19.046  0.00  0.00    +0.000 A 
ATOM     22  C   UNL     1       3.286   1.613  18.381  0.00  0.00    +0.000 C 
ATOM     23  C   UNL     1       1.742   2.698  19.929  0.00  0.00    +0.000 A 
ATOM     24  C   UNL     1       1.169   3.761  20.590  0.00  0.00    +0.000 A 
ATOM     25  C   UNL     1       1.663   5.035  20.378  0.00  0.00    +0.000 A 
ATOM     26  F   UNL     1       1.042   6.010  21.052  0.00  0.00    +0.000 F 
ATOM     27  C   UNL     1       2.748   5.304  19.514  0.00  0.00    +0.000 A 
BRANCH  20  31
ATOM     28  C   UNL     1       6.621   4.935  16.209  0.00  0.00    +0.000 A 
ATOM     29  C   UNL     1       5.322   4.789  15.761  0.00  0.00    +0.000 A 
ATOM     30  N   UNL     1       4.292   4.453  16.587  0.00  0.00    +0.000 NA
ATOM     31  C   UNL     1       4.566   4.355  17.918  0.00  0.00    +0.000 A 
ATOM     32  C   UNL     1       5.889   4.511  18.336  0.00  0.00    +0.000 A 
ATOM     33  N   UNL     1       6.936   4.772  17.506  0.00  0.00    +0.000 NA
BRANCH  28  35
ATOM     34  C   UNL     1       7.236   4.950  13.961  0.00  0.00    +0.000 C 
ATOM     35  O   UNL     1       7.595   5.289  15.300  0.00  0.00    +0.000 OA
ENDBRANCH  28  35
ENDBRANCH  20  31
ENDBRANCH  19  27
ENDBRANCH   1  19
TORSDOF 10
ENDMDL
