MODEL 1
REMARK VINA RESULT:      -7.6      0.000      0.000
REMARK  Name = 
REMARK  10 active torsions:
REMARK  status: ('A' for Active; 'I' for Inactive)
REMARK    1  A    between atoms: C_2  and  O_3
REMARK    2  A    between atoms: C_2  and  C_4
REMARK    3  A    between atoms: C_4  and  C_5
REMARK    4  A    between atoms: C_5  and  C_6
REMARK    5  A    between atoms: C_7  and  C_8
REMARK    6  A    between atoms: C_8  and  C_9
REMARK    7  A    between atoms: N_11  and  S_12
REMARK    8  A    between atoms: S_12  and  C_15
REMARK    9  A    between atoms: C_26  and  C_27
REMARK   10  A    between atoms: C_32  and  O_33
REMARK                            x       y       z     vdW  Elec       q    Type
REMARK                         _______ _______ _______ _____ _____    ______ ____
ROOT
ATOM      1  C   UNL     1       2.645   7.085  19.501  0.00  0.00    +0.000 C 
ATOM      2  C   UNL     1       1.271   7.323  18.870  0.00  0.00    +0.000 C 
ATOM      3  N   UNL     1       1.472   8.564  18.068  0.00  0.00    +0.000 NA
ATOM      4  C   UNL     1       2.897   8.513  17.571  0.00  0.00    +0.000 C 
ATOM      5  C   UNL     1       3.638   7.432  18.379  0.00  0.00    +0.000 C 
ENDROOT
BRANCH   5   6
ATOM      6  C   UNL     1       4.183   6.264  17.560  0.00  0.00    +0.000 A 
ATOM      7  C   UNL     1       3.396   5.101  17.448  0.00  0.00    +0.000 A 
ATOM      8  C   UNL     1       3.772   4.053  16.605  0.00  0.00    +0.000 A 
ATOM      9  C   UNL     1       4.927   4.152  15.836  0.00  0.00    +0.000 A 
ATOM     10  C   UNL     1       5.729   5.277  15.944  0.00  0.00    +0.000 A 
ATOM     11  C   UNL     1       5.376   6.298  16.827  0.00  0.00    +0.000 A 
BRANCH  11  12
ATOM     12  O   UNL     1       6.238   7.339  16.962  0.00  0.00    +0.000 OA
ATOM     13  H   UNL     1       5.814   8.158  16.658  0.00  0.00    +0.000 HD
ENDBRANCH  11  12
ENDBRANCH   5   6
BRANCH   3  14
ATOM     14  S   UNL     1       1.032  10.010  18.890  0.00  0.00    +0.000 S 
ATOM     15  O   UNL     1       0.996   9.716  20.305  0.00  0.00    +0.000 OA
ATOM     16  O   UNL     1       1.855  11.100  18.394  0.00  0.00    +0.000 OA
BRANCH  14  17
ATOM     17  C   UNL     1      -0.634  10.353  18.342  0.00  0.00    +0.000 A 
ATOM     18  C   UNL     1      -1.088   9.622  17.229  0.00  0.00    +0.000 A 
ATOM     19  C   UNL     1      -2.361   9.842  16.719  0.00  0.00    +0.000 A 
ATOM     20  C   UNL     1      -3.211  10.736  17.354  0.00  0.00    +0.000 A 
ATOM     21  C   UNL     1      -2.823  11.392  18.534  0.00  0.00    +0.000 A 
ATOM     22  C   UNL     1      -3.765  12.185  19.208  0.00  0.00    +0.000 A 
ATOM     23  C   UNL     1      -3.446  12.814  20.406  0.00  0.00    +0.000 A 
ATOM     24  C   UNL     1      -2.167  12.685  20.926  0.00  0.00    +0.000 A 
ATOM     25  C   UNL     1      -1.210  11.915  20.257  0.00  0.00    +0.000 A 
ATOM     26  C   UNL     1      -1.510  11.223  19.052  0.00  0.00    +0.000 A 
ENDBRANCH  14  17
ENDBRANCH   3  14
BRANCH   1  27
ATOM     27  C   UNL     1       2.795   5.727  20.170  0.00  0.00    +0.000 C 
BRANCH  27  29
ATOM     28  C   UNL     1       1.341   3.793  20.866  0.00  0.00    +0.000 C 
ATOM     29  C   UNL     1       1.466   5.065  20.447  0.00  0.00    +0.000 C 
BRANCH  28  30
ATOM     30  C   UNL     1       2.546   2.927  21.114  0.00  0.00    +0.000 C 
BRANCH  30  31
ATOM     31  C   UNL     1       3.111   2.270  19.864  0.00  0.00    +0.000 C 
BRANCH  31  33
ATOM     32  O   UNL     1       5.263   3.377  19.635  0.00  0.00    +0.000 OA
ATOM     33  C   UNL     1       4.621   2.364  19.863  0.00  0.00    +0.000 C 
BRANCH  33  34
ATOM     34  O   UNL     1       5.224   1.188  20.152  0.00  0.00    +0.000 OA
ATOM     35  H   UNL     1       4.768   0.649  20.824  0.00  0.00    +0.000 HD
ENDBRANCH  33  34
ENDBRANCH  31  33
ENDBRANCH  30  31
ENDBRANCH  28  30
ENDBRANCH  27  29
ENDBRANCH   1  27
TORSDOF 10
ENDMDL
MODEL 2
REMARK VINA RESULT:      -7.5      2.030      3.979
REMARK  Name = 
REMARK  10 active torsions:
REMARK  status: ('A' for Active; 'I' for Inactive)
REMARK    1  A    between atoms: C_2  and  O_3
REMARK    2  A    between atoms: C_2  and  C_4
REMARK    3  A    between atoms: C_4  and  C_5
REMARK    4  A    between atoms: C_5  and  C_6
REMARK    5  A    between atoms: C_7  and  C_8
REMARK    6  A    between atoms: C_8  and  C_9
REMARK    7  A    between atoms: N_11  and  S_12
REMARK    8  A    between atoms: S_12  and  C_15
REMARK    9  A    between atoms: C_26  and  C_27
REMARK   10  A    between atoms: C_32  and  O_33
REMARK                            x       y       z     vdW  Elec       q    Type
REMARK                         _______ _______ _______ _____ _____    ______ ____
ROOT
ATOM      1  C   UNL     1       3.317   6.291  17.218  0.00  0.00    +0.000 C 
ATOM      2  C   UNL     1       3.739   7.263  18.323  0.00  0.00    +0.000 C 
ATOM      3  N   UNL     1       2.458   7.559  19.026  0.00  0.00    +0.000 NA
ATOM      4  C   UNL     1       1.639   6.291  18.953  0.00  0.00    +0.000 C 
ATOM      5  C   UNL     1       2.284   5.376  17.897  0.00  0.00    +0.000 C 
ENDROOT
BRANCH   5   6
ATOM      6  C   UNL     1       2.794   4.035  18.420  0.00  0.00    +0.000 A 
ATOM      7  C   UNL     1       2.746   2.919  17.560  0.00  0.00    +0.000 A 
ATOM      8  C   UNL     1       3.320   1.701  17.926  0.00  0.00    +0.000 A 
ATOM      9  C   UNL     1       3.976   1.573  19.146  0.00  0.00    +0.000 A 
ATOM     10  C   UNL     1       4.019   2.649  20.018  0.00  0.00    +0.000 A 
ATOM     11  C   UNL     1       3.398   3.850  19.669  0.00  0.00    +0.000 A 
BRANCH  11  12
ATOM     12  O   UNL     1       3.391   4.845  20.593  0.00  0.00    +0.000 OA
ATOM     13  H   UNL     1       4.207   4.812  21.117  0.00  0.00    +0.000 HD
ENDBRANCH  11  12
ENDBRANCH   5   6
BRANCH   3  14
ATOM     14  S   UNL     1       1.663   8.979  18.469  0.00  0.00    +0.000 S 
ATOM     15  O   UNL     1       2.682   9.938  18.106  0.00  0.00    +0.000 OA
ATOM     16  O   UNL     1       0.645   8.600  17.505  0.00  0.00    +0.000 OA
BRANCH  14  17
ATOM     17  C   UNL     1       0.790   9.599  19.900  0.00  0.00    +0.000 A 
ATOM     18  C   UNL     1       1.097   8.991  21.130  0.00  0.00    +0.000 A 
ATOM     19  C   UNL     1       0.448   9.393  22.291  0.00  0.00    +0.000 A 
ATOM     20  C   UNL     1      -0.454  10.445  22.245  0.00  0.00    +0.000 A 
ATOM     21  C   UNL     1      -0.692  11.145  21.051  0.00  0.00    +0.000 A 
ATOM     22  C   UNL     1      -1.513  12.283  21.086  0.00  0.00    +0.000 A 
ATOM     23  C   UNL     1      -1.739  13.039  19.941  0.00  0.00    +0.000 A 
ATOM     24  C   UNL     1      -1.171  12.644  18.738  0.00  0.00    +0.000 A 
ATOM     25  C   UNL     1      -0.365  11.502  18.682  0.00  0.00    +0.000 A 
ATOM     26  C   UNL     1      -0.079  10.727  19.839  0.00  0.00    +0.000 A 
ENDBRANCH  14  17
ENDBRANCH   3  14
BRANCH   1  27
ATOM     27  C   UNL     1       4.481   5.620  16.504  0.00  0.00    +0.000 C 
BRANCH  27  29
ATOM     28  C   UNL     1       6.919   6.229  16.660  0.00  0.00    +0.000 C 
ATOM     29  C   UNL     1       5.658   6.546  16.313  0.00  0.00    +0.000 C 
BRANCH  28  30
ATOM     30  C   UNL     1       7.254   4.890  17.258  0.00  0.00    +0.000 C 
BRANCH  30  31
ATOM     31  C   UNL     1       8.183   4.957  18.460  0.00  0.00    +0.000 C 
BRANCH  31  33
ATOM     32  O   UNL     1       6.188   5.463  19.755  0.00  0.00    +0.000 OA
ATOM     33  C   UNL     1       7.399   5.309  19.705  0.00  0.00    +0.000 C 
BRANCH  33  34
ATOM     34  O   UNL     1       8.180   5.440  20.802  0.00  0.00    +0.000 OA
ATOM     35  H   UNL     1       9.124   5.247  20.657  0.00  0.00    +0.000 HD
ENDBRANCH  33  34
ENDBRANCH  31  33
ENDBRANCH  30  31
ENDBRANCH  28  30
ENDBRANCH  27  29
ENDBRANCH   1  27
TORSDOF 10
ENDMDL
MODEL 3
REMARK VINA RESULT:      -7.4      2.159      4.251
REMARK  Name = 
REMARK  10 active torsions:
REMARK  status: ('A' for Active; 'I' for Inactive)
REMARK    1  A    between atoms: C_2  and  O_3
REMARK    2  A    between atoms: C_2  and  C_4
REMARK    3  A    between atoms: C_4  and  C_5
REMARK    4  A    between atoms: C_5  and  C_6
REMARK    5  A    between atoms: C_7  and  C_8
REMARK    6  A    between atoms: C_8  and  C_9
REMARK    7  A    between atoms: N_11  and  S_12
REMARK    8  A    between atoms: S_12  and  C_15
REMARK    9  A    between atoms: C_26  and  C_27
REMARK   10  A    between atoms: C_32  and  O_33
REMARK                            x       y       z     vdW  Elec       q    Type
REMARK                         _______ _______ _______ _____ _____    ______ ____
ROOT
ATOM      1  C   UNL     1       3.461   6.806  17.200  0.00  0.00    +0.000 C 
ATOM      2  C   UNL     1       3.779   7.741  18.369  0.00  0.00    +0.000 C 
ATOM      3  N   UNL     1       2.481   7.837  19.095  0.00  0.00    +0.000 NA
ATOM      4  C   UNL     1       1.812   6.492  18.935  0.00  0.00    +0.000 C 
ATOM      5  C   UNL     1       2.547   5.733  17.815  0.00  0.00    +0.000 C 
ENDROOT
BRANCH   5   6
ATOM      6  C   UNL     1       3.213   4.427  18.242  0.00  0.00    +0.000 A 
ATOM      7  C   UNL     1       4.067   4.446  19.363  0.00  0.00    +0.000 A 
ATOM      8  C   UNL     1       4.597   3.266  19.887  0.00  0.00    +0.000 A 
ATOM      9  C   UNL     1       4.270   2.038  19.321  0.00  0.00    +0.000 A 
ATOM     10  C   UNL     1       3.450   1.994  18.205  0.00  0.00    +0.000 A 
ATOM     11  C   UNL     1       2.964   3.181  17.654  0.00  0.00    +0.000 A 
BRANCH  11  12
ATOM     12  O   UNL     1       2.237   3.092  16.510  0.00  0.00    +0.000 OA
ATOM     13  H   UNL     1       1.978   2.168  16.357  0.00  0.00    +0.000 HD
ENDBRANCH  11  12
ENDBRANCH   5   6
BRANCH   3  14
ATOM     14  S   UNL     1       1.522   9.192  18.640  0.00  0.00    +0.000 S 
ATOM     15  O   UNL     1       2.421  10.251  18.242  0.00  0.00    +0.000 OA
ATOM     16  O   UNL     1       0.478   8.746  17.734  0.00  0.00    +0.000 OA
BRANCH  14  17
ATOM     17  C   UNL     1       0.698   9.688  20.146  0.00  0.00    +0.000 A 
ATOM     18  C   UNL     1       1.114   9.047  21.326  0.00  0.00    +0.000 A 
ATOM     19  C   UNL     1       0.511   9.352  22.539  0.00  0.00    +0.000 A 
ATOM     20  C   UNL     1      -0.457  10.344  22.595  0.00  0.00    +0.000 A 
ATOM     21  C   UNL     1      -0.808  11.080  21.452  0.00  0.00    +0.000 A 
ATOM     22  C   UNL     1      -1.696  12.158  21.588  0.00  0.00    +0.000 A 
ATOM     23  C   UNL     1      -2.036  12.949  20.496  0.00  0.00    +0.000 A 
ATOM     24  C   UNL     1      -1.517  12.647  19.246  0.00  0.00    +0.000 A 
ATOM     25  C   UNL     1      -0.645  11.564  19.089  0.00  0.00    +0.000 A 
ATOM     26  C   UNL     1      -0.243  10.758  20.188  0.00  0.00    +0.000 A 
ENDBRANCH  14  17
ENDBRANCH   3  14
BRANCH   1  27
ATOM     27  C   UNL     1       4.687   6.325  16.438  0.00  0.00    +0.000 C 
BRANCH  27  29
ATOM     28  C   UNL     1       7.050   5.956  17.223  0.00  0.00    +0.000 C 
ATOM     29  C   UNL     1       5.981   6.760  17.082  0.00  0.00    +0.000 C 
BRANCH  28  30
ATOM     30  C   UNL     1       7.038   4.539  16.718  0.00  0.00    +0.000 C 
BRANCH  30  31
ATOM     31  C   UNL     1       6.016   4.274  15.623  0.00  0.00    +0.000 C 
BRANCH  31  33
ATOM     32  O   UNL     1       7.371   5.271  13.868  0.00  0.00    +0.000 OA
ATOM     33  C   UNL     1       6.677   4.348  14.265  0.00  0.00    +0.000 C 
BRANCH  33  34
ATOM     34  O   UNL     1       6.429   3.262  13.497  0.00  0.00    +0.000 OA
ATOM     35  H   UNL     1       5.489   3.118  13.284  0.00  0.00    +0.000 HD
ENDBRANCH  33  34
ENDBRANCH  31  33
ENDBRANCH  30  31
ENDBRANCH  28  30
ENDBRANCH  27  29
ENDBRANCH   1  27
TORSDOF 10
ENDMDL
MODEL 4
REMARK VINA RESULT:      -7.4      4.103      7.620
REMARK  Name = 
REMARK  10 active torsions:
REMARK  status: ('A' for Active; 'I' for Inactive)
REMARK    1  A    between atoms: C_2  and  O_3
REMARK    2  A    between atoms: C_2  and  C_4
REMARK    3  A    between atoms: C_4  and  C_5
REMARK    4  A    between atoms: C_5  and  C_6
REMARK    5  A    between atoms: C_7  and  C_8
REMARK    6  A    between atoms: C_8  and  C_9
REMARK    7  A    between atoms: N_11  and  S_12
REMARK    8  A    between atoms: S_12  and  C_15
REMARK    9  A    between atoms: C_26  and  C_27
REMARK   10  A    between atoms: C_32  and  O_33
REMARK                            x       y       z     vdW  Elec       q    Type
REMARK                         _______ _______ _______ _____ _____    ______ ____
ROOT
ATOM      1  C   UNL     1      -0.844  10.932  19.476  0.00  0.00    +0.000 C 
ATOM      2  C   UNL     1      -0.509  12.159  18.625  0.00  0.00    +0.000 C 
ATOM      3  N   UNL     1       0.388  12.956  19.510  0.00  0.00    +0.000 NA
ATOM      4  C   UNL     1       1.175  11.952  20.319  0.00  0.00    +0.000 C 
ATOM      5  C   UNL     1       0.483  10.585  20.172  0.00  0.00    +0.000 C 
ENDROOT
BRANCH   5   6
ATOM      6  C   UNL     1       1.330   9.491  19.527  0.00  0.00    +0.000 A 
ATOM      7  C   UNL     1       1.494   8.275  20.220  0.00  0.00    +0.000 A 
ATOM      8  C   UNL     1       2.140   7.188  19.628  0.00  0.00    +0.000 A 
ATOM      9  C   UNL     1       2.615   7.279  18.324  0.00  0.00    +0.000 A 
ATOM     10  C   UNL     1       2.485   8.471  17.628  0.00  0.00    +0.000 A 
ATOM     11  C   UNL     1       1.885   9.571  18.244  0.00  0.00    +0.000 A 
BRANCH  11  12
ATOM     12  O   UNL     1       1.860  10.741  17.554  0.00  0.00    +0.000 OA
ATOM     13  H   UNL     1       1.236  10.671  16.813  0.00  0.00    +0.000 HD
ENDBRANCH  11  12
ENDBRANCH   5   6
BRANCH   3  14
ATOM     14  S   UNL     1      -0.423  14.164  20.428  0.00  0.00    +0.000 S 
ATOM     15  O   UNL     1      -1.811  13.775  20.533  0.00  0.00    +0.000 OA
ATOM     16  O   UNL     1       0.348  14.439  21.628  0.00  0.00    +0.000 OA
BRANCH  14  17
ATOM     17  C   UNL     1      -0.325  15.638  19.422  0.00  0.00    +0.000 A 
ATOM     18  C   UNL     1      -1.408  16.530  19.514  0.00  0.00    +0.000 A 
ATOM     19  C   UNL     1      -1.427  17.689  18.749  0.00  0.00    +0.000 A 
ATOM     20  C   UNL     1      -0.341  18.000  17.945  0.00  0.00    +0.000 A 
ATOM     21  C   UNL     1       0.802  17.185  17.924  0.00  0.00    +0.000 A 
ATOM     22  C   UNL     1       1.923  17.611  17.194  0.00  0.00    +0.000 A 
ATOM     23  C   UNL     1       3.096  16.865  17.182  0.00  0.00    +0.000 A 
ATOM     24  C   UNL     1       3.149  15.663  17.874  0.00  0.00    +0.000 A 
ATOM     25  C   UNL     1       2.034  15.214  18.589  0.00  0.00    +0.000 A 
ATOM     26  C   UNL     1       0.832  15.969  18.658  0.00  0.00    +0.000 A 
ENDBRANCH  14  17
ENDBRANCH   3  14
BRANCH   1  27
ATOM     27  C   UNL     1      -1.543   9.818  18.711  0.00  0.00    +0.000 C 
BRANCH  27  29
ATOM     28  C   UNL     1      -2.818  10.362  16.609  0.00  0.00    +0.000 C 
ATOM     29  C   UNL     1      -1.654  10.107  17.233  0.00  0.00    +0.000 C 
BRANCH  28  30
ATOM     30  C   UNL     1      -4.120  10.398  17.362  0.00  0.00    +0.000 C 
BRANCH  30  31
ATOM     31  C   UNL     1      -4.888  11.703  17.220  0.00  0.00    +0.000 C 
BRANCH  31  33
ATOM     32  O   UNL     1      -6.311  12.412  19.059  0.00  0.00    +0.000 OA
ATOM     33  C   UNL     1      -5.193  12.279  18.585  0.00  0.00    +0.000 C 
BRANCH  33  34
ATOM     34  O   UNL     1      -4.083  12.646  19.265  0.00  0.00    +0.000 OA
ATOM     35  H   UNL     1      -4.238  13.279  19.989  0.00  0.00    +0.000 HD
ENDBRANCH  33  34
ENDBRANCH  31  33
ENDBRANCH  30  31
ENDBRANCH  28  30
ENDBRANCH  27  29
ENDBRANCH   1  27
TORSDOF 10
ENDMDL
MODEL 5
REMARK VINA RESULT:      -7.3      2.461      4.410
REMARK  Name = 
REMARK  10 active torsions:
REMARK  status: ('A' for Active; 'I' for Inactive)
REMARK    1  A    between atoms: C_2  and  O_3
REMARK    2  A    between atoms: C_2  and  C_4
REMARK    3  A    between atoms: C_4  and  C_5
REMARK    4  A    between atoms: C_5  and  C_6
REMARK    5  A    between atoms: C_7  and  C_8
REMARK    6  A    between atoms: C_8  and  C_9
REMARK    7  A    between atoms: N_11  and  S_12
REMARK    8  A    between atoms: S_12  and  C_15
REMARK    9  A    between atoms: C_26  and  C_27
REMARK   10  A    between atoms: C_32  and  O_33
REMARK                            x       y       z     vdW  Elec       q    Type
REMARK                         _______ _______ _______ _____ _____    ______ ____
ROOT
ATOM      1  C   UNL     1       2.908   6.477  17.801  0.00  0.00    +0.000 C 
ATOM      2  C   UNL     1       3.325   7.632  18.715  0.00  0.00    +0.000 C 
ATOM      3  N   UNL     1       2.022   8.219  19.141  0.00  0.00    +0.000 NA
ATOM      4  C   UNL     1       1.052   7.065  19.229  0.00  0.00    +0.000 C 
ATOM      5  C   UNL     1       1.686   5.863  18.505  0.00  0.00    +0.000 C 
ENDROOT
BRANCH   5   6
ATOM      6  C   UNL     1       1.942   4.637  19.379  0.00  0.00    +0.000 A 
ATOM      7  C   UNL     1       2.237   4.836  20.742  0.00  0.00    +0.000 A 
ATOM      8  C   UNL     1       2.346   3.758  21.622  0.00  0.00    +0.000 A 
ATOM      9  C   UNL     1       2.140   2.460  21.169  0.00  0.00    +0.000 A 
ATOM     10  C   UNL     1       1.869   2.235  19.829  0.00  0.00    +0.000 A 
ATOM     11  C   UNL     1       1.813   3.313  18.943  0.00  0.00    +0.000 A 
BRANCH  11  12
ATOM     12  O   UNL     1       1.632   3.035  17.626  0.00  0.00    +0.000 OA
ATOM     13  H   UNL     1       0.764   2.620  17.494  0.00  0.00    +0.000 HD
ENDBRANCH  11  12
ENDBRANCH   5   6
BRANCH   3  14
ATOM     14  S   UNL     1       1.501   9.545  18.176  0.00  0.00    +0.000 S 
ATOM     15  O   UNL     1       2.636   9.996  17.402  0.00  0.00    +0.000 OA
ATOM     16  O   UNL     1       0.264   9.181  17.508  0.00  0.00    +0.000 OA
BRANCH  14  17
ATOM     17  C   UNL     1       1.077  10.822  19.352  0.00  0.00    +0.000 A 
ATOM     18  C   UNL     1       1.277  12.149  18.932  0.00  0.00    +0.000 A 
ATOM     19  C   UNL     1       0.997  13.204  19.791  0.00  0.00    +0.000 A 
ATOM     20  C   UNL     1       0.453  12.948  21.041  0.00  0.00    +0.000 A 
ATOM     21  C   UNL     1       0.137  11.639  21.439  0.00  0.00    +0.000 A 
ATOM     22  C   UNL     1      -0.530  11.447  22.659  0.00  0.00    +0.000 A 
ATOM     23  C   UNL     1      -0.910  10.175  23.075  0.00  0.00    +0.000 A 
ATOM     24  C   UNL     1      -0.596   9.076  22.289  0.00  0.00    +0.000 A 
ATOM     25  C   UNL     1       0.086   9.249  21.079  0.00  0.00    +0.000 A 
ATOM     26  C   UNL     1       0.455  10.536  20.602  0.00  0.00    +0.000 A 
ENDBRANCH  14  17
ENDBRANCH   3  14
BRANCH   1  27
ATOM     27  C   UNL     1       4.045   5.537  17.430  0.00  0.00    +0.000 C 
BRANCH  27  29
ATOM     28  C   UNL     1       6.260   5.677  16.242  0.00  0.00    +0.000 C 
ATOM     29  C   UNL     1       5.026   6.162  16.467  0.00  0.00    +0.000 C 
BRANCH  28  30
ATOM     30  C   UNL     1       6.754   4.436  16.935  0.00  0.00    +0.000 C 
BRANCH  30  31
ATOM     31  C   UNL     1       7.951   4.662  17.845  0.00  0.00    +0.000 C 
BRANCH  31  33
ATOM     32  O   UNL     1       6.754   5.346  19.849  0.00  0.00    +0.000 OA
ATOM     33  C   UNL     1       7.576   5.592  18.978  0.00  0.00    +0.000 C 
BRANCH  33  34
ATOM     34  O   UNL     1       8.255   6.761  18.949  0.00  0.00    +0.000 OA
ATOM     35  H   UNL     1       9.223   6.673  19.013  0.00  0.00    +0.000 HD
ENDBRANCH  33  34
ENDBRANCH  31  33
ENDBRANCH  30  31
ENDBRANCH  28  30
ENDBRANCH  27  29
ENDBRANCH   1  27
TORSDOF 10
ENDMDL
MODEL 6
REMARK VINA RESULT:      -7.3      2.049      3.894
REMARK  Name = 
REMARK  10 active torsions:
REMARK  status: ('A' for Active; 'I' for Inactive)
REMARK    1  A    between atoms: C_2  and  O_3
REMARK    2  A    between atoms: C_2  and  C_4
REMARK    3  A    between atoms: C_4  and  C_5
REMARK    4  A    between atoms: C_5  and  C_6
REMARK    5  A    between atoms: C_7  and  C_8
REMARK    6  A    between atoms: C_8  and  C_9
REMARK    7  A    between atoms: N_11  and  S_12
REMARK    8  A    between atoms: S_12  and  C_15
REMARK    9  A    between atoms: C_26  and  C_27
REMARK   10  A    between atoms: C_32  and  O_33
REMARK                            x       y       z     vdW  Elec       q    Type
REMARK                         _______ _______ _______ _____ _____    ______ ____
ROOT
ATOM      1  C   UNL     1       3.190   6.911  17.405  0.00  0.00    +0.000 C 
ATOM      2  C   UNL     1       3.487   7.755  18.647  0.00  0.00    +0.000 C 
ATOM      3  N   UNL     1       2.152   7.896  19.295  0.00  0.00    +0.000 NA
ATOM      4  C   UNL     1       1.413   6.609  19.011  0.00  0.00    +0.000 C 
ATOM      5  C   UNL     1       2.172   5.867  17.896  0.00  0.00    +0.000 C 
ENDROOT
BRANCH   5   6
ATOM      6  C   UNL     1       2.725   4.498  18.283  0.00  0.00    +0.000 A 
ATOM      7  C   UNL     1       2.529   3.421  17.396  0.00  0.00    +0.000 A 
ATOM      8  C   UNL     1       3.125   2.180  17.623  0.00  0.00    +0.000 A 
ATOM      9  C   UNL     1       3.951   1.990  18.726  0.00  0.00    +0.000 A 
ATOM     10  C   UNL     1       4.143   3.027  19.625  0.00  0.00    +0.000 A 
ATOM     11  C   UNL     1       3.503   4.250  19.421  0.00  0.00    +0.000 A 
BRANCH  11  12
ATOM     12  O   UNL     1       3.652   5.205  20.375  0.00  0.00    +0.000 OA
ATOM     13  H   UNL     1       2.984   5.899  20.253  0.00  0.00    +0.000 HD
ENDBRANCH  11  12
ENDBRANCH   5   6
BRANCH   3  14
ATOM     14  S   UNL     1       1.312   9.335  18.865  0.00  0.00    +0.000 S 
ATOM     15  O   UNL     1       2.300  10.334  18.527  0.00  0.00    +0.000 OA
ATOM     16  O   UNL     1       0.262   9.000  17.918  0.00  0.00    +0.000 OA
BRANCH  14  17
ATOM     17  C   UNL     1       0.486   9.842  20.366  0.00  0.00    +0.000 A 
ATOM     18  C   UNL     1       0.843   9.152  21.538  0.00  0.00    +0.000 A 
ATOM     19  C   UNL     1       0.233   9.463  22.747  0.00  0.00    +0.000 A 
ATOM     20  C   UNL     1      -0.679  10.506  22.808  0.00  0.00    +0.000 A 
ATOM     21  C   UNL     1      -0.966  11.286  21.676  0.00  0.00    +0.000 A 
ATOM     22  C   UNL     1      -1.795  12.409  21.821  0.00  0.00    +0.000 A 
ATOM     23  C   UNL     1      -2.069  13.242  20.742  0.00  0.00    +0.000 A 
ATOM     24  C   UNL     1      -1.542  12.939  19.494  0.00  0.00    +0.000 A 
ATOM     25  C   UNL     1      -0.729  11.813  19.329  0.00  0.00    +0.000 A 
ATOM     26  C   UNL     1      -0.394  10.961  20.416  0.00  0.00    +0.000 A 
ENDBRANCH  14  17
ENDBRANCH   3  14
BRANCH   1  27
ATOM     27  C   UNL     1       4.431   6.394  16.694  0.00  0.00    +0.000 C 
BRANCH  27  29
ATOM     28  C   UNL     1       6.710   6.807  17.682  0.00  0.00    +0.000 C 
ATOM     29  C   UNL     1       5.653   7.237  16.968  0.00  0.00    +0.000 C 
BRANCH  28  30
ATOM     30  C   UNL     1       6.757   5.416  18.252  0.00  0.00    +0.000 C 
BRANCH  30  31
ATOM     31  C   UNL     1       7.655   4.457  17.486  0.00  0.00    +0.000 C 
BRANCH  31  33
ATOM     32  O   UNL     1       7.551   4.763  15.077  0.00  0.00    +0.000 OA
ATOM     33  C   UNL     1       7.115   4.239  16.090  0.00  0.00    +0.000 C 
BRANCH  33  34
ATOM     34  O   UNL     1       6.071   3.380  16.055  0.00  0.00    +0.000 OA
ATOM     35  H   UNL     1       6.257   2.529  15.618  0.00  0.00    +0.000 HD
ENDBRANCH  33  34
ENDBRANCH  31  33
ENDBRANCH  30  31
ENDBRANCH  28  30
ENDBRANCH  27  29
ENDBRANCH   1  27
TORSDOF 10
ENDMDL
MODEL 7
REMARK VINA RESULT:      -7.3      2.589      3.353
REMARK  Name = 
REMARK  10 active torsions:
REMARK  status: ('A' for Active; 'I' for Inactive)
REMARK    1  A    between atoms: C_2  and  O_3
REMARK    2  A    between atoms: C_2  and  C_4
REMARK    3  A    between atoms: C_4  and  C_5
REMARK    4  A    between atoms: C_5  and  C_6
REMARK    5  A    between atoms: C_7  and  C_8
REMARK    6  A    between atoms: C_8  and  C_9
REMARK    7  A    between atoms: N_11  and  S_12
REMARK    8  A    between atoms: S_12  and  C_15
REMARK    9  A    between atoms: C_26  and  C_27
REMARK   10  A    between atoms: C_32  and  O_33
REMARK                            x       y       z     vdW  Elec       q    Type
REMARK                         _______ _______ _______ _____ _____    ______ ____
ROOT
ATOM      1  C   UNL     1       3.338   4.446  18.385  0.00  0.00    +0.000 C 
ATOM      2  C   UNL     1       2.234   5.377  17.878  0.00  0.00    +0.000 C 
ATOM      3  N   UNL     1       2.615   6.702  18.444  0.00  0.00    +0.000 NA
ATOM      4  C   UNL     1       4.125   6.727  18.469  0.00  0.00    +0.000 C 
ATOM      5  C   UNL     1       4.622   5.285  18.261  0.00  0.00    +0.000 C 
ENDROOT
BRANCH   5   6
ATOM      6  C   UNL     1       5.469   5.061  17.011  0.00  0.00    +0.000 A 
ATOM      7  C   UNL     1       4.927   5.423  15.761  0.00  0.00    +0.000 A 
ATOM      8  C   UNL     1       5.697   5.372  14.598  0.00  0.00    +0.000 A 
ATOM      9  C   UNL     1       7.032   4.984  14.657  0.00  0.00    +0.000 A 
ATOM     10  C   UNL     1       7.582   4.603  15.871  0.00  0.00    +0.000 A 
ATOM     11  C   UNL     1       6.793   4.605  17.022  0.00  0.00    +0.000 A 
BRANCH  11  12
ATOM     12  O   UNL     1       7.353   4.141  18.169  0.00  0.00    +0.000 OA
ATOM     13  H   UNL     1       7.201   4.775  18.888  0.00  0.00    +0.000 HD
ENDBRANCH  11  12
ENDBRANCH   5   6
BRANCH   3  14
ATOM     14  S   UNL     1       1.850   7.072  19.941  0.00  0.00    +0.000 S 
ATOM     15  O   UNL     1       0.665   6.251  20.042  0.00  0.00    +0.000 OA
ATOM     16  O   UNL     1       2.847   7.043  20.997  0.00  0.00    +0.000 OA
BRANCH  14  17
ATOM     17  C   UNL     1       1.342   8.778  19.779  0.00  0.00    +0.000 A 
ATOM     18  C   UNL     1       1.519   9.365  18.513  0.00  0.00    +0.000 A 
ATOM     19  C   UNL     1       1.175  10.694  18.304  0.00  0.00    +0.000 A 
ATOM     20  C   UNL     1       0.591  11.423  19.329  0.00  0.00    +0.000 A 
ATOM     21  C   UNL     1       0.299  10.827  20.567  0.00  0.00    +0.000 A 
ATOM     22  C   UNL     1      -0.409  11.571  21.524  0.00  0.00    +0.000 A 
ATOM     23  C   UNL     1      -0.767  11.010  22.745  0.00  0.00    +0.000 A 
ATOM     24  C   UNL     1      -0.389   9.707  23.036  0.00  0.00    +0.000 A 
ATOM     25  C   UNL     1       0.333   8.959  22.100  0.00  0.00    +0.000 A 
ATOM     26  C   UNL     1       0.682   9.484  20.826  0.00  0.00    +0.000 A 
ENDBRANCH  14  17
ENDBRANCH   3  14
BRANCH   1  27
ATOM     27  C   UNL     1       3.338   3.071  17.737  0.00  0.00    +0.000 C 
BRANCH  27  29
ATOM     28  C   UNL     1       2.348   1.506  19.443  0.00  0.00    +0.000 C 
ATOM     29  C   UNL     1       3.410   1.950  18.746  0.00  0.00    +0.000 C 
BRANCH  28  30
ATOM     30  C   UNL     1       0.978   2.095  19.245  0.00  0.00    +0.000 C 
BRANCH  30  31
ATOM     31  C   UNL     1       0.608   3.170  20.256  0.00  0.00    +0.000 C 
BRANCH  31  33
ATOM     32  O   UNL     1       1.468   2.131  22.279  0.00  0.00    +0.000 OA
ATOM     33  C   UNL     1       1.486   3.057  21.482  0.00  0.00    +0.000 C 
BRANCH  33  34
ATOM     34  O   UNL     1       2.329   4.105  21.627  0.00  0.00    +0.000 OA
ATOM     35  H   UNL     1       2.061   4.755  22.302  0.00  0.00    +0.000 HD
ENDBRANCH  33  34
ENDBRANCH  31  33
ENDBRANCH  30  31
ENDBRANCH  28  30
ENDBRANCH  27  29
ENDBRANCH   1  27
TORSDOF 10
ENDMDL
MODEL 8
REMARK VINA RESULT:      -7.3      5.829      9.103
REMARK  Name = 
REMARK  10 active torsions:
REMARK  status: ('A' for Active; 'I' for Inactive)
REMARK    1  A    between atoms: C_2  and  O_3
REMARK    2  A    between atoms: C_2  and  C_4
REMARK    3  A    between atoms: C_4  and  C_5
REMARK    4  A    between atoms: C_5  and  C_6
REMARK    5  A    between atoms: C_7  and  C_8
REMARK    6  A    between atoms: C_8  and  C_9
REMARK    7  A    between atoms: N_11  and  S_12
REMARK    8  A    between atoms: S_12  and  C_15
REMARK    9  A    between atoms: C_26  and  C_27
REMARK   10  A    between atoms: C_32  and  O_33
REMARK                            x       y       z     vdW  Elec       q    Type
REMARK                         _______ _______ _______ _____ _____    ______ ____
ROOT
ATOM      1  C   UNL     1      -0.646  14.031  20.602  0.00  0.00    +0.000 C 
ATOM      2  C   UNL     1       0.539  13.085  20.810  0.00  0.00    +0.000 C 
ATOM      3  N   UNL     1       0.518  12.233  19.587  0.00  0.00    +0.000 NA
ATOM      4  C   UNL     1       0.024  13.121  18.469  0.00  0.00    +0.000 C 
ATOM      5  C   UNL     1      -0.588  14.382  19.105  0.00  0.00    +0.000 C 
ENDROOT
BRANCH   5   6
ATOM      6  C   UNL     1       0.094  15.696  18.735  0.00  0.00    +0.000 A 
ATOM      7  C   UNL     1       1.486  15.689  18.517  0.00  0.00    +0.000 A 
ATOM      8  C   UNL     1       2.149  16.823  18.044  0.00  0.00    +0.000 A 
ATOM      9  C   UNL     1       1.436  17.982  17.754  0.00  0.00    +0.000 A 
ATOM     10  C   UNL     1       0.069  18.021  17.980  0.00  0.00    +0.000 A 
ATOM     11  C   UNL     1      -0.580  16.901  18.502  0.00  0.00    +0.000 A 
BRANCH  11  12
ATOM     12  O   UNL     1      -1.902  17.018  18.788  0.00  0.00    +0.000 OA
ATOM     13  H   UNL     1      -2.366  16.204  18.532  0.00  0.00    +0.000 HD
ENDBRANCH  11  12
ENDBRANCH   5   6
BRANCH   3  14
ATOM     14  S   UNL     1      -0.335  10.751  19.779  0.00  0.00    +0.000 S 
ATOM     15  O   UNL     1       0.573   9.677  19.443  0.00  0.00    +0.000 OA
ATOM     16  O   UNL     1      -1.006  10.759  21.067  0.00  0.00    +0.000 OA
BRANCH  14  17
ATOM     17  C   UNL     1      -1.624  10.807  18.543  0.00  0.00    +0.000 A 
ATOM     18  C   UNL     1      -1.408  10.045  17.381  0.00  0.00    +0.000 A 
ATOM     19  C   UNL     1      -2.347  10.050  16.357  0.00  0.00    +0.000 A 
ATOM     20  C   UNL     1      -3.531  10.754  16.512  0.00  0.00    +0.000 A 
ATOM     21  C   UNL     1      -3.821  11.429  17.709  0.00  0.00    +0.000 A 
ATOM     22  C   UNL     1      -5.086  12.017  17.865  0.00  0.00    +0.000 A 
ATOM     23  C   UNL     1      -5.440  12.653  19.049  0.00  0.00    +0.000 A 
ATOM     24  C   UNL     1      -4.517  12.738  20.082  0.00  0.00    +0.000 A 
ATOM     25  C   UNL     1      -3.245  12.175  19.935  0.00  0.00    +0.000 A 
ATOM     26  C   UNL     1      -2.861  11.482  18.756  0.00  0.00    +0.000 A 
ENDBRANCH  14  17
ENDBRANCH   3  14
BRANCH   1  27
ATOM     27  C   UNL     1      -0.699  15.187  21.588  0.00  0.00    +0.000 C 
BRANCH  27  29
ATOM     28  C   UNL     1      -1.512  14.233  23.772  0.00  0.00    +0.000 C 
ATOM     29  C   UNL     1      -0.519  14.741  23.019  0.00  0.00    +0.000 C 
BRANCH  28  30
ATOM     30  C   UNL     1      -2.899  14.052  23.221  0.00  0.00    +0.000 C 
BRANCH  30  31
ATOM     31  C   UNL     1      -3.991  14.008  24.278  0.00  0.00    +0.000 C 
BRANCH  31  33
ATOM     32  O   UNL     1      -5.666  12.607  23.209  0.00  0.00    +0.000 OA
ATOM     33  C   UNL     1      -4.843  12.771  24.097  0.00  0.00    +0.000 C 
BRANCH  33  34
ATOM     34  O   UNL     1      -4.607  11.824  25.034  0.00  0.00    +0.000 OA
ATOM     35  H   UNL     1      -5.183  11.874  25.819  0.00  0.00    +0.000 HD
ENDBRANCH  33  34
ENDBRANCH  31  33
ENDBRANCH  30  31
ENDBRANCH  28  30
ENDBRANCH  27  29
ENDBRANCH   1  27
TORSDOF 10
ENDMDL
MODEL 9
REMARK VINA RESULT:      -7.2      1.998      2.758
REMARK  Name = 
REMARK  10 active torsions:
REMARK  status: ('A' for Active; 'I' for Inactive)
REMARK    1  A    between atoms: C_2  and  O_3
REMARK    2  A    between atoms: C_2  and  C_4
REMARK    3  A    between atoms: C_4  and  C_5
REMARK    4  A    between atoms: C_5  and  C_6
REMARK    5  A    between atoms: C_7  and  C_8
REMARK    6  A    between atoms: C_8  and  C_9
REMARK    7  A    between atoms: N_11  and  S_12
REMARK    8  A    between atoms: S_12  and  C_15
REMARK    9  A    between atoms: C_26  and  C_27
REMARK   10  A    between atoms: C_32  and  O_33
REMARK                            x       y       z     vdW  Elec       q    Type
REMARK                         _______ _______ _______ _____ _____    ______ ____
ROOT
ATOM      1  C   UNL     1       2.357   5.302  18.569  0.00  0.00    +0.000 C 
ATOM      2  C   UNL     1       1.664   6.594  18.128  0.00  0.00    +0.000 C 
ATOM      3  N   UNL     1       2.310   7.636  18.976  0.00  0.00    +0.000 NA
ATOM      4  C   UNL     1       3.738   7.187  19.173  0.00  0.00    +0.000 C 
ATOM      5  C   UNL     1       3.829   5.709  18.751  0.00  0.00    +0.000 C 
ENDROOT
BRANCH   5   6
ATOM      6  C   UNL     1       4.770   5.421  17.583  0.00  0.00    +0.000 A 
ATOM      7  C   UNL     1       4.640   6.195  16.413  0.00  0.00    +0.000 A 
ATOM      8  C   UNL     1       5.554   6.077  15.364  0.00  0.00    +0.000 A 
ATOM      9  C   UNL     1       6.631   5.203  15.468  0.00  0.00    +0.000 A 
ATOM     10  C   UNL     1       6.769   4.416  16.600  0.00  0.00    +0.000 A 
ATOM     11  C   UNL     1       5.823   4.500  17.623  0.00  0.00    +0.000 A 
BRANCH  11  12
ATOM     12  O   UNL     1       5.953   3.646  18.671  0.00  0.00    +0.000 OA
ATOM     13  H   UNL     1       5.875   4.136  19.506  0.00  0.00    +0.000 HD
ENDBRANCH  11  12
ENDBRANCH   5   6
BRANCH   3  14
ATOM     14  S   UNL     1       1.448   7.999  20.421  0.00  0.00    +0.000 S 
ATOM     15  O   UNL     1       0.519   6.918  20.660  0.00  0.00    +0.000 OA
ATOM     16  O   UNL     1       2.399   8.382  21.450  0.00  0.00    +0.000 OA
BRANCH  14  17
ATOM     17  C   UNL     1       0.513   9.471  20.031  0.00  0.00    +0.000 A 
ATOM     18  C   UNL     1       0.418   9.809  18.670  0.00  0.00    +0.000 A 
ATOM     19  C   UNL     1      -0.268  10.951  18.277  0.00  0.00    +0.000 A 
ATOM     20  C   UNL     1      -0.922  11.721  19.228  0.00  0.00    +0.000 A 
ATOM     21  C   UNL     1      -0.939  11.342  20.580  0.00  0.00    +0.000 A 
ATOM     22  C   UNL     1      -1.722  12.083  21.480  0.00  0.00    +0.000 A 
ATOM     23  C   UNL     1      -1.813  11.719  22.819  0.00  0.00    +0.000 A 
ATOM     24  C   UNL     1      -1.093  10.626  23.280  0.00  0.00    +0.000 A 
ATOM     25  C   UNL     1      -0.293   9.889  22.401  0.00  0.00    +0.000 A 
ATOM     26  C   UNL     1      -0.206  10.206  21.018  0.00  0.00    +0.000 A 
ENDBRANCH  14  17
ENDBRANCH   3  14
BRANCH   1  27
ATOM     27  C   UNL     1       2.069   4.107  17.673  0.00  0.00    +0.000 C 
BRANCH  27  29
ATOM     28  C   UNL     1       1.463   2.107  19.078  0.00  0.00    +0.000 C 
ATOM     29  C   UNL     1       1.093   3.136  18.294  0.00  0.00    +0.000 C 
BRANCH  28  30
ATOM     30  C   UNL     1       2.907   1.859  19.417  0.00  0.00    +0.000 C 
BRANCH  30  31
ATOM     31  C   UNL     1       3.402   2.614  20.640  0.00  0.00    +0.000 C 
BRANCH  31  33
ATOM     32  O   UNL     1       1.575   2.181  22.186  0.00  0.00    +0.000 OA
ATOM     33  C   UNL     1       2.237   2.976  21.535  0.00  0.00    +0.000 C 
BRANCH  33  34
ATOM     34  O   UNL     1       1.983   4.304  21.561  0.00  0.00    +0.000 OA
ATOM     35  H   UNL     1       1.068   4.540  21.800  0.00  0.00    +0.000 HD
ENDBRANCH  33  34
ENDBRANCH  31  33
ENDBRANCH  30  31
ENDBRANCH  28  30
ENDBRANCH  27  29
ENDBRANCH   1  27
TORSDOF 10
ENDMDL
