MODEL 1
REMARK VINA RESULT:      -8.0      0.000      0.000
REMARK  Name = 
REMARK  6 active torsions:
REMARK  status: ('A' for Active; 'I' for Inactive)
REMARK    1  A    between atoms: C_1  and  N_2
REMARK    2  A    between atoms: N_2  and  C_3
REMARK    3  A    between atoms: N_2  and  C_10
REMARK    4  A    between atoms: C_3  and  C_4
REMARK    5  A    between atoms: C_14  and  C_15
REMARK    6  A    between atoms: N_22  and  C_23
REMARK                            x       y       z     vdW  Elec       q    Type
REMARK                         _______ _______ _______ _____ _____    ______ ____
ROOT
ATOM      1  C   UNL     1       2.231   8.124  18.773  0.00  0.00    +0.000 A 
ATOM      2  C   UNL     1       2.399   9.263  18.089  0.00  0.00    +0.000 A 
ATOM      3  C   UNL     1       1.662  10.477  18.483  0.00  0.00    +0.000 A 
ATOM      4  N   UNL     1       2.063  11.624  18.054  0.00  0.00    +0.000 NA
ATOM      5  C   UNL     1       1.274  12.684  18.407  0.00  0.00    +0.000 A 
ATOM      6  N   UNL     1       0.035  12.609  18.762  0.00  0.00    +0.000 NA
ATOM      7  N   UNL     1      -0.374  11.445  19.370  0.00  0.00    +0.000 N 
ATOM      8  C   UNL     1       0.432  10.310  19.314  0.00  0.00    +0.000 A 
ATOM      9  C   UNL     1       0.279   9.146  19.953  0.00  0.00    +0.000 A 
ATOM     10  C   UNL     1       1.452   8.284  20.044  0.00  0.00    +0.000 A 
ATOM     11  O   UNL     1       1.730   7.725  21.096  0.00  0.00    +0.000 OA
ENDROOT
BRANCH   5  12
ATOM     12  C   UNL     1       1.949  13.978  18.507  0.00  0.00    +0.000 A 
ATOM     13  C   UNL     1       3.320  14.007  18.231  0.00  0.00    +0.000 A 
ATOM     14  C   UNL     1       3.992  15.218  18.236  0.00  0.00    +0.000 A 
ATOM     15  C   UNL     1       3.290  16.380  18.550  0.00  0.00    +0.000 A 
ATOM     16  C   UNL     1       1.956  16.325  18.951  0.00  0.00    +0.000 A 
ATOM     17  C   UNL     1       1.277  15.110  18.960  0.00  0.00    +0.000 A 
ENDBRANCH   5  12
BRANCH   7  18
ATOM     18  C   UNL     1      -1.046  11.846  20.584  0.00  0.00    +0.000 A 
ATOM     19  C   UNL     1      -0.491  11.464  21.824  0.00  0.00    +0.000 A 
ATOM     20  C   UNL     1      -1.183  11.650  23.018  0.00  0.00    +0.000 A 
ATOM     21  C   UNL     1      -2.426  12.267  23.007  0.00  0.00    +0.000 A 
ATOM     22  C   UNL     1      -2.998  12.657  21.799  0.00  0.00    +0.000 A 
ATOM     23  C   UNL     1      -2.325  12.425  20.601  0.00  0.00    +0.000 A 
ENDBRANCH   7  18
BRANCH   1  25
ATOM     24  C   UNL     1       4.010   6.607  17.887  0.00  0.00    +0.000 C 
ATOM     25  N   UNL     1       2.675   6.845  18.440  0.00  0.00    +0.000 N 
BRANCH  25  26
ATOM     26  C   UNL     1       1.659   5.861  17.998  0.00  0.00    +0.000 C 
BRANCH  26  27
ATOM     27  C   UNL     1       1.666   4.581  18.789  0.00  0.00    +0.000 A 
ATOM     28  C   UNL     1       1.307   4.516  20.143  0.00  0.00    +0.000 A 
ATOM     29  C   UNL     1       1.351   3.301  20.825  0.00  0.00    +0.000 A 
ATOM     30  C   UNL     1       1.726   2.138  20.156  0.00  0.00    +0.000 A 
ATOM     31  C   UNL     1       2.015   2.181  18.795  0.00  0.00    +0.000 A 
ATOM     32  C   UNL     1       1.973   3.393  18.112  0.00  0.00    +0.000 A 
ENDBRANCH  26  27
ENDBRANCH  25  26
ENDBRANCH   1  25
TORSDOF 5
ENDMDL
MODEL 2
REMARK VINA RESULT:      -7.9      4.488      9.219
REMARK  Name = 
REMARK  6 active torsions:
REMARK  status: ('A' for Active; 'I' for Inactive)
REMARK    1  A    between atoms: C_1  and  N_2
REMARK    2  A    between atoms: N_2  and  C_3
REMARK    3  A    between atoms: N_2  and  C_10
REMARK    4  A    between atoms: C_3  and  C_4
REMARK    5  A    between atoms: C_14  and  C_15
REMARK    6  A    between atoms: N_22  and  C_23
REMARK                            x       y       z     vdW  Elec       q    Type
REMARK                         _______ _______ _______ _____ _____    ______ ____
ROOT
ATOM      1  C   UNL     1      -4.831  13.741  23.036  0.00  0.00    +0.000 A 
ATOM      2  C   UNL     1      -4.678  13.803  21.708  0.00  0.00    +0.000 A 
ATOM      3  C   UNL     1      -3.585  13.059  21.055  0.00  0.00    +0.000 A 
ATOM      4  N   UNL     1      -3.637  12.850  19.785  0.00  0.00    +0.000 NA
ATOM      5  C   UNL     1      -2.544  12.221  19.254  0.00  0.00    +0.000 A 
ATOM      6  N   UNL     1      -1.372  12.179  19.791  0.00  0.00    +0.000 NA
ATOM      7  N   UNL     1      -1.308  12.240  21.164  0.00  0.00    +0.000 N 
ATOM      8  C   UNL     1      -2.424  12.639  21.896  0.00  0.00    +0.000 A 
ATOM      9  C   UNL     1      -2.602  12.625  23.220  0.00  0.00    +0.000 A 
ATOM     10  C   UNL     1      -3.976  12.705  23.702  0.00  0.00    +0.000 A 
ATOM     11  O   UNL     1      -4.358  11.978  24.610  0.00  0.00    +0.000 OA
ENDROOT
BRANCH   5  12
ATOM     12  C   UNL     1      -2.785  11.431  18.046  0.00  0.00    +0.000 A 
ATOM     13  C   UNL     1      -1.774  10.552  17.644  0.00  0.00    +0.000 A 
ATOM     14  C   UNL     1      -1.982   9.726  16.553  0.00  0.00    +0.000 A 
ATOM     15  C   UNL     1      -3.186   9.814  15.857  0.00  0.00    +0.000 A 
ATOM     16  C   UNL     1      -4.133  10.783  16.184  0.00  0.00    +0.000 A 
ATOM     17  C   UNL     1      -3.926  11.625  17.273  0.00  0.00    +0.000 A 
ENDBRANCH   5  12
BRANCH   7  18
ATOM     18  C   UNL     1      -0.484  11.127  21.573  0.00  0.00    +0.000 A 
ATOM     19  C   UNL     1       0.337  10.501  20.611  0.00  0.00    +0.000 A 
ATOM     20  C   UNL     1       1.006   9.312  20.889  0.00  0.00    +0.000 A 
ATOM     21  C   UNL     1       0.910   8.745  22.153  0.00  0.00    +0.000 A 
ATOM     22  C   UNL     1       0.110   9.341  23.123  0.00  0.00    +0.000 A 
ATOM     23  C   UNL     1      -0.598  10.504  22.826  0.00  0.00    +0.000 A 
ENDBRANCH   7  18
BRANCH   1  25
ATOM     24  C   UNL     1      -7.113  14.327  23.871  0.00  0.00    +0.000 C 
ATOM     25  N   UNL     1      -5.662  14.515  23.846  0.00  0.00    +0.000 N 
BRANCH  25  26
ATOM     26  C   UNL     1      -5.231  15.902  24.139  0.00  0.00    +0.000 C 
BRANCH  26  27
ATOM     27  C   UNL     1      -3.741  16.063  24.272  0.00  0.00    +0.000 A 
ATOM     28  C   UNL     1      -2.950  16.692  23.301  0.00  0.00    +0.000 A 
ATOM     29  C   UNL     1      -1.570  16.794  23.474  0.00  0.00    +0.000 A 
ATOM     30  C   UNL     1      -0.974  16.294  24.631  0.00  0.00    +0.000 A 
ATOM     31  C   UNL     1      -1.761  15.733  25.632  0.00  0.00    +0.000 A 
ATOM     32  C   UNL     1      -3.138  15.630  25.460  0.00  0.00    +0.000 A 
ENDBRANCH  26  27
ENDBRANCH  25  26
ENDBRANCH   1  25
TORSDOF 5
ENDMDL
MODEL 3
REMARK VINA RESULT:      -7.9      0.250      1.229
REMARK  Name = 
REMARK  6 active torsions:
REMARK  status: ('A' for Active; 'I' for Inactive)
REMARK    1  A    between atoms: C_1  and  N_2
REMARK    2  A    between atoms: N_2  and  C_3
REMARK    3  A    between atoms: N_2  and  C_10
REMARK    4  A    between atoms: C_3  and  C_4
REMARK    5  A    between atoms: C_14  and  C_15
REMARK    6  A    between atoms: N_22  and  C_23
REMARK                            x       y       z     vdW  Elec       q    Type
REMARK                         _______ _______ _______ _____ _____    ______ ____
ROOT
ATOM      1  C   UNL     1       2.221   8.154  18.779  0.00  0.00    +0.000 A 
ATOM      2  C   UNL     1       2.381   9.301  18.107  0.00  0.00    +0.000 A 
ATOM      3  C   UNL     1       1.621  10.500  18.503  0.00  0.00    +0.000 A 
ATOM      4  N   UNL     1       2.010  11.657  18.089  0.00  0.00    +0.000 NA
ATOM      5  C   UNL     1       1.201  12.702  18.441  0.00  0.00    +0.000 A 
ATOM      6  N   UNL     1      -0.041  12.606  18.780  0.00  0.00    +0.000 NA
ATOM      7  N   UNL     1      -0.439  11.431  19.373  0.00  0.00    +0.000 N 
ATOM      8  C   UNL     1       0.384  10.308  19.317  0.00  0.00    +0.000 A 
ATOM      9  C   UNL     1       0.240   9.137  19.944  0.00  0.00    +0.000 A 
ATOM     10  C   UNL     1       1.425   8.291  20.041  0.00  0.00    +0.000 A 
ATOM     11  O   UNL     1       1.699   7.727  21.092  0.00  0.00    +0.000 OA
ENDROOT
BRANCH   5  12
ATOM     12  C   UNL     1       1.856  14.005  18.560  0.00  0.00    +0.000 A 
ATOM     13  C   UNL     1       1.056  15.092  18.930  0.00  0.00    +0.000 A 
ATOM     14  C   UNL     1       1.639  16.331  19.132  0.00  0.00    +0.000 A 
ATOM     15  C   UNL     1       3.011  16.475  18.928  0.00  0.00    +0.000 A 
ATOM     16  C   UNL     1       3.776  15.421  18.433  0.00  0.00    +0.000 A 
ATOM     17  C   UNL     1       3.194  14.174  18.216  0.00  0.00    +0.000 A 
ENDBRANCH   5  12
BRANCH   7  18
ATOM     18  C   UNL     1      -1.131  11.811  20.582  0.00  0.00    +0.000 A 
ATOM     19  C   UNL     1      -2.414  12.390  20.475  0.00  0.00    +0.000 A 
ATOM     20  C   UNL     1      -3.053  12.952  21.578  0.00  0.00    +0.000 A 
ATOM     21  C   UNL     1      -2.445  12.904  22.826  0.00  0.00    +0.000 A 
ATOM     22  C   UNL     1      -1.181  12.337  22.962  0.00  0.00    +0.000 A 
ATOM     23  C   UNL     1      -0.524  11.821  21.848  0.00  0.00    +0.000 A 
ENDBRANCH   7  18
BRANCH   1  25
ATOM     24  C   UNL     1       4.050   6.665  17.951  0.00  0.00    +0.000 C 
ATOM     25  N   UNL     1       2.688   6.884  18.441  0.00  0.00    +0.000 N 
BRANCH  25  26
ATOM     26  C   UNL     1       1.701   5.906  17.926  0.00  0.00    +0.000 C 
BRANCH  26  27
ATOM     27  C   UNL     1       1.683   4.604  18.680  0.00  0.00    +0.000 A 
ATOM     28  C   UNL     1       1.332   4.508  20.034  0.00  0.00    +0.000 A 
ATOM     29  C   UNL     1       1.352   3.274  20.681  0.00  0.00    +0.000 A 
ATOM     30  C   UNL     1       1.697   2.122  19.975  0.00  0.00    +0.000 A 
ATOM     31  C   UNL     1       1.978   2.198  18.615  0.00  0.00    +0.000 A 
ATOM     32  C   UNL     1       1.959   3.430  17.967  0.00  0.00    +0.000 A 
ENDBRANCH  26  27
ENDBRANCH  25  26
ENDBRANCH   1  25
TORSDOF 5
ENDMDL
MODEL 4
REMARK VINA RESULT:      -7.8      3.163      6.908
REMARK  Name = 
REMARK  6 active torsions:
REMARK  status: ('A' for Active; 'I' for Inactive)
REMARK    1  A    between atoms: C_1  and  N_2
REMARK    2  A    between atoms: N_2  and  C_3
REMARK    3  A    between atoms: N_2  and  C_10
REMARK    4  A    between atoms: C_3  and  C_4
REMARK    5  A    between atoms: C_14  and  C_15
REMARK    6  A    between atoms: N_22  and  C_23
REMARK                            x       y       z     vdW  Elec       q    Type
REMARK                         _______ _______ _______ _____ _____    ______ ____
ROOT
ATOM      1  C   UNL     1      -3.118  11.555  18.113  0.00  0.00    +0.000 A 
ATOM      2  C   UNL     1      -2.324  12.408  18.773  0.00  0.00    +0.000 A 
ATOM      3  C   UNL     1      -0.966  11.995  19.170  0.00  0.00    +0.000 A 
ATOM      4  N   UNL     1      -0.104  12.896  19.495  0.00  0.00    +0.000 NA
ATOM      5  C   UNL     1       1.104  12.417  19.924  0.00  0.00    +0.000 A 
ATOM      6  N   UNL     1       1.316  11.231  20.387  0.00  0.00    +0.000 NA
ATOM      7  N   UNL     1       0.502  10.223  19.926  0.00  0.00    +0.000 N 
ATOM      8  C   UNL     1      -0.672  10.532  19.244  0.00  0.00    +0.000 A 
ATOM      9  C   UNL     1      -1.507   9.708  18.604  0.00  0.00    +0.000 A 
ATOM     10  C   UNL     1      -2.424  10.313  17.643  0.00  0.00    +0.000 A 
ATOM     11  O   UNL     1      -2.607   9.793  16.550  0.00  0.00    +0.000 OA
ENDROOT
BRANCH   5  12
ATOM     12  C   UNL     1       2.253  13.296  19.707  0.00  0.00    +0.000 A 
ATOM     13  C   UNL     1       2.913  13.778  20.843  0.00  0.00    +0.000 A 
ATOM     14  C   UNL     1       4.052  14.550  20.694  0.00  0.00    +0.000 A 
ATOM     15  C   UNL     1       4.498  14.859  19.410  0.00  0.00    +0.000 A 
ATOM     16  C   UNL     1       3.761  14.485  18.288  0.00  0.00    +0.000 A 
ATOM     17  C   UNL     1       2.607  13.718  18.430  0.00  0.00    +0.000 A 
ENDBRANCH   5  12
BRANCH   7  18
ATOM     18  C   UNL     1       1.386   9.169  19.485  0.00  0.00    +0.000 A 
ATOM     19  C   UNL     1       1.871   9.201  18.160  0.00  0.00    +0.000 A 
ATOM     20  C   UNL     1       2.567   8.125  17.614  0.00  0.00    +0.000 A 
ATOM     21  C   UNL     1       2.838   7.010  18.397  0.00  0.00    +0.000 A 
ATOM     22  C   UNL     1       2.374   6.951  19.708  0.00  0.00    +0.000 A 
ATOM     23  C   UNL     1       1.636   8.009  20.235  0.00  0.00    +0.000 A 
ENDBRANCH   7  18
BRANCH   1  25
ATOM     24  C   UNL     1      -4.975  11.846  16.465  0.00  0.00    +0.000 C 
ATOM     25  N   UNL     1      -4.478  11.685  17.833  0.00  0.00    +0.000 N 
BRANCH  25  26
ATOM     26  C   UNL     1      -5.330  12.327  18.860  0.00  0.00    +0.000 C 
BRANCH  26  27
ATOM     27  C   UNL     1      -6.250  11.372  19.573  0.00  0.00    +0.000 A 
ATOM     28  C   UNL     1      -7.043  11.747  20.667  0.00  0.00    +0.000 A 
ATOM     29  C   UNL     1      -7.862  10.810  21.296  0.00  0.00    +0.000 A 
ATOM     30  C   UNL     1      -7.917   9.501  20.821  0.00  0.00    +0.000 A 
ATOM     31  C   UNL     1      -7.187   9.139  19.693  0.00  0.00    +0.000 A 
ATOM     32  C   UNL     1      -6.368  10.073  19.064  0.00  0.00    +0.000 A 
ENDBRANCH  26  27
ENDBRANCH  25  26
ENDBRANCH   1  25
TORSDOF 5
ENDMDL
MODEL 5
REMARK VINA RESULT:      -7.7      1.396      2.663
REMARK  Name = 
REMARK  6 active torsions:
REMARK  status: ('A' for Active; 'I' for Inactive)
REMARK    1  A    between atoms: C_1  and  N_2
REMARK    2  A    between atoms: N_2  and  C_3
REMARK    3  A    between atoms: N_2  and  C_10
REMARK    4  A    between atoms: C_3  and  C_4
REMARK    5  A    between atoms: C_14  and  C_15
REMARK    6  A    between atoms: N_22  and  C_23
REMARK                            x       y       z     vdW  Elec       q    Type
REMARK                         _______ _______ _______ _____ _____    ______ ____
ROOT
ATOM      1  C   UNL     1       2.380   7.727  18.677  0.00  0.00    +0.000 A 
ATOM      2  C   UNL     1       2.494   8.867  17.984  0.00  0.00    +0.000 A 
ATOM      3  C   UNL     1       1.767  10.073  18.422  0.00  0.00    +0.000 A 
ATOM      4  N   UNL     1       2.128  11.224  17.971  0.00  0.00    +0.000 NA
ATOM      5  C   UNL     1       1.349  12.275  18.370  0.00  0.00    +0.000 A 
ATOM      6  N   UNL     1       0.134  12.185  18.798  0.00  0.00    +0.000 NA
ATOM      7  N   UNL     1      -0.224  11.017  19.429  0.00  0.00    +0.000 N 
ATOM      8  C   UNL     1       0.590   9.891  19.325  0.00  0.00    +0.000 A 
ATOM      9  C   UNL     1       0.490   8.726  19.972  0.00  0.00    +0.000 A 
ATOM     10  C   UNL     1       1.676   7.878  19.992  0.00  0.00    +0.000 A 
ATOM     11  O   UNL     1       2.023   7.323  21.026  0.00  0.00    +0.000 OA
ENDROOT
BRANCH   5  12
ATOM     12  C   UNL     1       2.013  13.577  18.429  0.00  0.00    +0.000 A 
ATOM     13  C   UNL     1       3.381  13.611  18.136  0.00  0.00    +0.000 A 
ATOM     14  C   UNL     1       4.041  14.827  18.103  0.00  0.00    +0.000 A 
ATOM     15  C   UNL     1       3.333  15.991  18.397  0.00  0.00    +0.000 A 
ATOM     16  C   UNL     1       2.005  15.934  18.816  0.00  0.00    +0.000 A 
ATOM     17  C   UNL     1       1.337  14.713  18.864  0.00  0.00    +0.000 A 
ENDBRANCH   5  12
BRANCH   7  18
ATOM     18  C   UNL     1      -0.827  11.411  20.680  0.00  0.00    +0.000 A 
ATOM     19  C   UNL     1      -0.418  10.760  21.864  0.00  0.00    +0.000 A 
ATOM     20  C   UNL     1      -1.089  10.953  23.069  0.00  0.00    +0.000 A 
ATOM     21  C   UNL     1      -2.156  11.839  23.131  0.00  0.00    +0.000 A 
ATOM     22  C   UNL     1      -2.580  12.497  21.980  0.00  0.00    +0.000 A 
ATOM     23  C   UNL     1      -1.938  12.265  20.766  0.00  0.00    +0.000 A 
ENDBRANCH   7  18
BRANCH   1  25
ATOM     24  C   UNL     1       1.888   5.342  18.112  0.00  0.00    +0.000 C 
ATOM     25  N   UNL     1       2.819   6.453  18.318  0.00  0.00    +0.000 N 
BRANCH  25  26
ATOM     26  C   UNL     1       4.159   6.033  18.790  0.00  0.00    +0.000 C 
BRANCH  26  27
ATOM     27  C   UNL     1       5.099   5.639  17.682  0.00  0.00    +0.000 A 
ATOM     28  C   UNL     1       4.895   5.996  16.342  0.00  0.00    +0.000 A 
ATOM     29  C   UNL     1       5.794   5.585  15.359  0.00  0.00    +0.000 A 
ATOM     30  C   UNL     1       6.918   4.839  15.710  0.00  0.00    +0.000 A 
ATOM     31  C   UNL     1       7.166   4.542  17.046  0.00  0.00    +0.000 A 
ATOM     32  C   UNL     1       6.269   4.950  18.029  0.00  0.00    +0.000 A 
ENDBRANCH  26  27
ENDBRANCH  25  26
ENDBRANCH   1  25
TORSDOF 5
ENDMDL
MODEL 6
REMARK VINA RESULT:      -7.6      2.914      8.063
REMARK  Name = 
REMARK  6 active torsions:
REMARK  status: ('A' for Active; 'I' for Inactive)
REMARK    1  A    between atoms: C_1  and  N_2
REMARK    2  A    between atoms: N_2  and  C_3
REMARK    3  A    between atoms: N_2  and  C_10
REMARK    4  A    between atoms: C_3  and  C_4
REMARK    5  A    between atoms: C_14  and  C_15
REMARK    6  A    between atoms: N_22  and  C_23
REMARK                            x       y       z     vdW  Elec       q    Type
REMARK                         _______ _______ _______ _____ _____    ______ ____
ROOT
ATOM      1  C   UNL     1       0.752  14.892  20.436  0.00  0.00    +0.000 A 
ATOM      2  C   UNL     1       1.224  13.690  20.790  0.00  0.00    +0.000 A 
ATOM      3  C   UNL     1       0.585  12.465  20.275  0.00  0.00    +0.000 A 
ATOM      4  N   UNL     1       1.223  11.348  20.338  0.00  0.00    +0.000 NA
ATOM      5  C   UNL     1       0.523  10.253  19.910  0.00  0.00    +0.000 A 
ATOM      6  N   UNL     1      -0.763  10.172  19.832  0.00  0.00    +0.000 NA
ATOM      7  N   UNL     1      -1.452  11.340  19.604  0.00  0.00    +0.000 N 
ATOM      8  C   UNL     1      -0.815  12.568  19.764  0.00  0.00    +0.000 A 
ATOM      9  C   UNL     1      -1.265  13.788  19.456  0.00  0.00    +0.000 A 
ATOM     10  C   UNL     1      -0.271  14.849  19.341  0.00  0.00    +0.000 A 
ATOM     11  O   UNL     1      -0.320  15.647  18.414  0.00  0.00    +0.000 OA
ENDROOT
BRANCH   5  12
ATOM     12  C   UNL     1       1.324   9.149  19.381  0.00  0.00    +0.000 A 
ATOM     13  C   UNL     1       1.615   8.095  20.253  0.00  0.00    +0.000 A 
ATOM     14  C   UNL     1       2.303   6.990  19.782  0.00  0.00    +0.000 A 
ATOM     15  C   UNL     1       2.721   6.968  18.453  0.00  0.00    +0.000 A 
ATOM     16  C   UNL     1       2.542   8.078  17.628  0.00  0.00    +0.000 A 
ATOM     17  C   UNL     1       1.861   9.198  18.098  0.00  0.00    +0.000 A 
ENDBRANCH   5  12
BRANCH   7  18
ATOM     18  C   UNL     1      -2.327  11.073  18.486  0.00  0.00    +0.000 A 
ATOM     19  C   UNL     1      -1.788  10.456  17.336  0.00  0.00    +0.000 A 
ATOM     20  C   UNL     1      -2.524  10.345  16.159  0.00  0.00    +0.000 A 
ATOM     21  C   UNL     1      -3.834  10.804  16.117  0.00  0.00    +0.000 A 
ATOM     22  C   UNL     1      -4.392  11.414  17.236  0.00  0.00    +0.000 A 
ATOM     23  C   UNL     1      -3.638  11.568  18.397  0.00  0.00    +0.000 A 
ENDBRANCH   7  18
BRANCH   1  25
ATOM     24  C   UNL     1       0.182  16.872  21.851  0.00  0.00    +0.000 C 
ATOM     25  N   UNL     1       1.086  16.138  20.964  0.00  0.00    +0.000 N 
BRANCH  25  26
ATOM     26  C   UNL     1       1.970  17.009  20.155  0.00  0.00    +0.000 C 
BRANCH  26  27
ATOM     27  C   UNL     1       3.174  16.302  19.593  0.00  0.00    +0.000 A 
ATOM     28  C   UNL     1       4.238  15.853  20.387  0.00  0.00    +0.000 A 
ATOM     29  C   UNL     1       5.334  15.220  19.803  0.00  0.00    +0.000 A 
ATOM     30  C   UNL     1       5.364  15.006  18.427  0.00  0.00    +0.000 A 
ATOM     31  C   UNL     1       4.280  15.384  17.640  0.00  0.00    +0.000 A 
ATOM     32  C   UNL     1       3.185  16.017  18.221  0.00  0.00    +0.000 A 
ENDBRANCH  26  27
ENDBRANCH  25  26
ENDBRANCH   1  25
TORSDOF 5
ENDMDL
MODEL 7
REMARK VINA RESULT:      -7.6      3.041      8.219
REMARK  Name = 
REMARK  6 active torsions:
REMARK  status: ('A' for Active; 'I' for Inactive)
REMARK    1  A    between atoms: C_1  and  N_2
REMARK    2  A    between atoms: N_2  and  C_3
REMARK    3  A    between atoms: N_2  and  C_10
REMARK    4  A    between atoms: C_3  and  C_4
REMARK    5  A    between atoms: C_14  and  C_15
REMARK    6  A    between atoms: N_22  and  C_23
REMARK                            x       y       z     vdW  Elec       q    Type
REMARK                         _______ _______ _______ _____ _____    ______ ____
ROOT
ATOM      1  C   UNL     1       0.773  14.706  20.756  0.00  0.00    +0.000 A 
ATOM      2  C   UNL     1       1.182  13.474  21.085  0.00  0.00    +0.000 A 
ATOM      3  C   UNL     1       0.565  12.297  20.445  0.00  0.00    +0.000 A 
ATOM      4  N   UNL     1       1.169  11.161  20.505  0.00  0.00    +0.000 NA
ATOM      5  C   UNL     1       0.487  10.111  19.952  0.00  0.00    +0.000 A 
ATOM      6  N   UNL     1      -0.787  10.070  19.750  0.00  0.00    +0.000 NA
ATOM      7  N   UNL     1      -1.425  11.268  19.525  0.00  0.00    +0.000 N 
ATOM      8  C   UNL     1      -0.777  12.467  19.812  0.00  0.00    +0.000 A 
ATOM      9  C   UNL     1      -1.168  13.714  19.532  0.00  0.00    +0.000 A 
ATOM     10  C   UNL     1      -0.142  14.751  19.570  0.00  0.00    +0.000 A 
ATOM     11  O   UNL     1      -0.085  15.598  18.689  0.00  0.00    +0.000 OA
ENDROOT
BRANCH   5  12
ATOM     12  C   UNL     1       1.309   9.014  19.439  0.00  0.00    +0.000 A 
ATOM     13  C   UNL     1       1.711   9.088  18.101  0.00  0.00    +0.000 A 
ATOM     14  C   UNL     1       2.553   8.116  17.588  0.00  0.00    +0.000 A 
ATOM     15  C   UNL     1       2.953   7.064  18.409  0.00  0.00    +0.000 A 
ATOM     16  C   UNL     1       2.443   6.929  19.699  0.00  0.00    +0.000 A 
ATOM     17  C   UNL     1       1.587   7.896  20.219  0.00  0.00    +0.000 A 
ENDBRANCH   5  12
BRANCH   7  18
ATOM     18  C   UNL     1      -2.195  11.086  18.317  0.00  0.00    +0.000 A 
ATOM     19  C   UNL     1      -3.531  11.540  18.290  0.00  0.00    +0.000 A 
ATOM     20  C   UNL     1      -4.384  11.228  17.235  0.00  0.00    +0.000 A 
ATOM     21  C   UNL     1      -3.908  10.495  16.156  0.00  0.00    +0.000 A 
ATOM     22  C   UNL     1      -2.594  10.035  16.153  0.00  0.00    +0.000 A 
ATOM     23  C   UNL     1      -1.757  10.307  17.233  0.00  0.00    +0.000 A 
ENDBRANCH   7  18
BRANCH   1  25
ATOM     24  C   UNL     1       2.301  16.661  21.062  0.00  0.00    +0.000 C 
ATOM     25  N   UNL     1       1.084  15.913  21.382  0.00  0.00    +0.000 N 
BRANCH  25  26
ATOM     26  C   UNL     1       0.612  16.104  22.774  0.00  0.00    +0.000 C 
BRANCH  26  27
ATOM     27  C   UNL     1      -0.814  15.676  22.998  0.00  0.00    +0.000 A 
ATOM     28  C   UNL     1      -1.165  14.573  23.789  0.00  0.00    +0.000 A 
ATOM     29  C   UNL     1      -2.504  14.216  23.944  0.00  0.00    +0.000 A 
ATOM     30  C   UNL     1      -3.502  14.973  23.333  0.00  0.00    +0.000 A 
ATOM     31  C   UNL     1      -3.167  16.109  22.605  0.00  0.00    +0.000 A 
ATOM     32  C   UNL     1      -1.830  16.467  22.448  0.00  0.00    +0.000 A 
ENDBRANCH  26  27
ENDBRANCH  25  26
ENDBRANCH   1  25
TORSDOF 5
ENDMDL
MODEL 8
REMARK VINA RESULT:      -7.6      1.464      2.940
REMARK  Name = 
REMARK  6 active torsions:
REMARK  status: ('A' for Active; 'I' for Inactive)
REMARK    1  A    between atoms: C_1  and  N_2
REMARK    2  A    between atoms: N_2  and  C_3
REMARK    3  A    between atoms: N_2  and  C_10
REMARK    4  A    between atoms: C_3  and  C_4
REMARK    5  A    between atoms: C_14  and  C_15
REMARK    6  A    between atoms: N_22  and  C_23
REMARK                            x       y       z     vdW  Elec       q    Type
REMARK                         _______ _______ _______ _____ _____    ______ ____
ROOT
ATOM      1  C   UNL     1       2.438   7.566  18.681  0.00  0.00    +0.000 A 
ATOM      2  C   UNL     1       2.551   8.713  17.999  0.00  0.00    +0.000 A 
ATOM      3  C   UNL     1       1.794   9.904  18.428  0.00  0.00    +0.000 A 
ATOM      4  N   UNL     1       2.148  11.064  17.993  0.00  0.00    +0.000 NA
ATOM      5  C   UNL     1       1.343  12.100  18.381  0.00  0.00    +0.000 A 
ATOM      6  N   UNL     1       0.120  11.988  18.779  0.00  0.00    +0.000 NA
ATOM      7  N   UNL     1      -0.234  10.810  19.393  0.00  0.00    +0.000 N 
ATOM      8  C   UNL     1       0.600   9.698  19.301  0.00  0.00    +0.000 A 
ATOM      9  C   UNL     1       0.502   8.526  19.937  0.00  0.00    +0.000 A 
ATOM     10  C   UNL     1       1.701   7.697  19.980  0.00  0.00    +0.000 A 
ATOM     11  O   UNL     1       2.032   7.139  21.018  0.00  0.00    +0.000 OA
ENDROOT
BRANCH   5  12
ATOM     12  C   UNL     1       1.985  13.411  18.465  0.00  0.00    +0.000 A 
ATOM     13  C   UNL     1       1.185  14.491  18.855  0.00  0.00    +0.000 A 
ATOM     14  C   UNL     1       1.760  15.739  19.025  0.00  0.00    +0.000 A 
ATOM     15  C   UNL     1       3.121  15.898  18.771  0.00  0.00    +0.000 A 
ATOM     16  C   UNL     1       3.881  14.849  18.257  0.00  0.00    +0.000 A 
ATOM     17  C   UNL     1       3.308  13.594  18.072  0.00  0.00    +0.000 A 
ENDBRANCH   5  12
BRANCH   7  18
ATOM     18  C   UNL     1      -0.873  11.184  20.633  0.00  0.00    +0.000 A 
ATOM     19  C   UNL     1      -1.763  12.280  20.632  0.00  0.00    +0.000 A 
ATOM     20  C   UNL     1      -2.262  12.811  21.819  0.00  0.00    +0.000 A 
ATOM     21  C   UNL     1      -1.922  12.229  23.033  0.00  0.00    +0.000 A 
ATOM     22  C   UNL     1      -1.048  11.146  23.064  0.00  0.00    +0.000 A 
ATOM     23  C   UNL     1      -0.511  10.648  21.879  0.00  0.00    +0.000 A 
ENDBRANCH   7  18
BRANCH   1  25
ATOM     24  C   UNL     1       1.999   5.175  18.099  0.00  0.00    +0.000 C 
ATOM     25  N   UNL     1       2.906   6.302  18.324  0.00  0.00    +0.000 N 
BRANCH  25  26
ATOM     26  C   UNL     1       4.246   5.904  18.814  0.00  0.00    +0.000 C 
BRANCH  26  27
ATOM     27  C   UNL     1       5.216   5.552  17.719  0.00  0.00    +0.000 A 
ATOM     28  C   UNL     1       6.373   4.790  17.937  0.00  0.00    +0.000 A 
ATOM     29  C   UNL     1       7.242   4.512  16.883  0.00  0.00    +0.000 A 
ATOM     30  C   UNL     1       6.950   4.969  15.599  0.00  0.00    +0.000 A 
ATOM     31  C   UNL     1       5.769   5.664  15.360  0.00  0.00    +0.000 A 
ATOM     32  C   UNL     1       4.900   5.944  16.412  0.00  0.00    +0.000 A 
ENDBRANCH  26  27
ENDBRANCH  25  26
ENDBRANCH   1  25
TORSDOF 5
ENDMDL
MODEL 9
REMARK VINA RESULT:      -7.6      3.079      8.287
REMARK  Name = 
REMARK  6 active torsions:
REMARK  status: ('A' for Active; 'I' for Inactive)
REMARK    1  A    between atoms: C_1  and  N_2
REMARK    2  A    between atoms: N_2  and  C_3
REMARK    3  A    between atoms: N_2  and  C_10
REMARK    4  A    between atoms: C_3  and  C_4
REMARK    5  A    between atoms: C_14  and  C_15
REMARK    6  A    between atoms: N_22  and  C_23
REMARK                            x       y       z     vdW  Elec       q    Type
REMARK                         _______ _______ _______ _____ _____    ______ ____
ROOT
ATOM      1  C   UNL     1       0.803  14.717  20.720  0.00  0.00    +0.000 A 
ATOM      2  C   UNL     1       1.220  13.487  21.046  0.00  0.00    +0.000 A 
ATOM      3  C   UNL     1       0.605  12.307  20.411  0.00  0.00    +0.000 A 
ATOM      4  N   UNL     1       1.215  11.174  20.466  0.00  0.00    +0.000 NA
ATOM      5  C   UNL     1       0.535  10.120  19.919  0.00  0.00    +0.000 A 
ATOM      6  N   UNL     1      -0.741  10.074  19.726  0.00  0.00    +0.000 NA
ATOM      7  N   UNL     1      -1.386  11.267  19.504  0.00  0.00    +0.000 N 
ATOM      8  C   UNL     1      -0.742  12.470  19.787  0.00  0.00    +0.000 A 
ATOM      9  C   UNL     1      -1.141  13.715  19.510  0.00  0.00    +0.000 A 
ATOM     10  C   UNL     1      -0.121  14.757  19.540  0.00  0.00    +0.000 A 
ATOM     11  O   UNL     1      -0.074  15.605  18.659  0.00  0.00    +0.000 OA
ENDROOT
BRANCH   5  12
ATOM     12  C   UNL     1       1.358   9.028  19.401  0.00  0.00    +0.000 A 
ATOM     13  C   UNL     1       1.646   7.974  20.274  0.00  0.00    +0.000 A 
ATOM     14  C   UNL     1       2.355   6.879  19.812  0.00  0.00    +0.000 A 
ATOM     15  C   UNL     1       2.798   6.868  18.490  0.00  0.00    +0.000 A 
ATOM     16  C   UNL     1       2.621   7.978  17.667  0.00  0.00    +0.000 A 
ATOM     17  C   UNL     1       1.918   9.088  18.128  0.00  0.00    +0.000 A 
ENDBRANCH   5  12
BRANCH   7  18
ATOM     18  C   UNL     1      -2.164  11.082  18.302  0.00  0.00    +0.000 A 
ATOM     19  C   UNL     1      -3.482  11.583  18.264  0.00  0.00    +0.000 A 
ATOM     20  C   UNL     1      -4.348  11.274  17.217  0.00  0.00    +0.000 A 
ATOM     21  C   UNL     1      -3.900  10.495  16.158  0.00  0.00    +0.000 A 
ATOM     22  C   UNL     1      -2.603   9.989  16.167  0.00  0.00    +0.000 A 
ATOM     23  C   UNL     1      -1.756  10.259  17.240  0.00  0.00    +0.000 A 
ENDBRANCH   7  18
BRANCH   1  25
ATOM     24  C   UNL     1       2.288  16.713  20.967  0.00  0.00    +0.000 C 
ATOM     25  N   UNL     1       1.113  15.925  21.344  0.00  0.00    +0.000 N 
BRANCH  25  26
ATOM     26  C   UNL     1       0.712  16.087  22.761  0.00  0.00    +0.000 C 
BRANCH  26  27
ATOM     27  C   UNL     1      -0.749  15.827  23.016  0.00  0.00    +0.000 A 
ATOM     28  C   UNL     1      -1.774  16.570  22.414  0.00  0.00    +0.000 A 
ATOM     29  C   UNL     1      -3.109  16.292  22.705  0.00  0.00    +0.000 A 
ATOM     30  C   UNL     1      -3.431  15.252  23.575  0.00  0.00    +0.000 A 
ATOM     31  C   UNL     1      -2.422  14.463  24.120  0.00  0.00    +0.000 A 
ATOM     32  C   UNL     1      -1.089  14.741  23.832  0.00  0.00    +0.000 A 
ENDBRANCH  26  27
ENDBRANCH  25  26
ENDBRANCH   1  25
TORSDOF 5
ENDMDL
