MODEL 1
REMARK VINA RESULT:      -7.6      0.000      0.000
REMARK  Name = 
REMARK  7 active torsions:
REMARK  status: ('A' for Active; 'I' for Inactive)
REMARK    1  A    between atoms: C_2  and  O_3
REMARK    2  A    between atoms: C_2  and  C_4
REMARK    3  A    between atoms: C_4  and  O_5
REMARK    4  A    between atoms: O_5  and  C_6
REMARK    5  A    between atoms: C_9  and  C_10
REMARK    6  A    between atoms: C_11  and  C_12
REMARK    7  A    between atoms: C_12  and  C_14
REMARK                            x       y       z     vdW  Elec       q    Type
REMARK                         _______ _______ _______ _____ _____    ______ ____
ROOT
ATOM      1  C   UNL     1       4.342   5.231  17.289  0.00  0.00    +0.000 A 
ATOM      2  C   UNL     1       4.526   6.580  16.995  0.00  0.00    +0.000 A 
ATOM      3  C   UNL     1       3.708   7.543  17.584  0.00  0.00    +0.000 A 
ATOM      4  C   UNL     1       2.655   7.179  18.432  0.00  0.00    +0.000 A 
ATOM      5  C   UNL     1       2.454   5.820  18.700  0.00  0.00    +0.000 A 
ATOM      6  C   UNL     1       3.286   4.850  18.121  0.00  0.00    +0.000 A 
ENDROOT
BRANCH   4   7
ATOM      7  C   UNL     1       1.818   8.201  19.082  0.00  0.00    +0.000 C 
ATOM      8  C   UNL     1       1.268   9.219  18.399  0.00  0.00    +0.000 C 
BRANCH   8   9
ATOM      9  C   UNL     1       0.503  10.287  19.088  0.00  0.00    +0.000 C 
ATOM     10  O   UNL     1       0.938  10.876  20.072  0.00  0.00    +0.000 OA
BRANCH   9  11
ATOM     11  C   UNL     1      -0.850  10.601  18.549  0.00  0.00    +0.000 A 
ATOM     12  C   UNL     1      -1.660  11.496  19.257  0.00  0.00    +0.000 A 
ATOM     13  C   UNL     1      -2.933  11.821  18.780  0.00  0.00    +0.000 A 
ATOM     14  C   UNL     1      -3.402  11.264  17.587  0.00  0.00    +0.000 A 
ATOM     15 CL   UNL     1      -4.983  11.708  17.055  0.00  0.00    +0.000 Cl
ATOM     16  C   UNL     1      -2.588  10.382  16.867  0.00  0.00    +0.000 A 
ATOM     17 CL   UNL     1      -3.092   9.660  15.379  0.00  0.00    +0.000 Cl
ATOM     18  C   UNL     1      -1.313  10.055  17.345  0.00  0.00    +0.000 A 
ENDBRANCH   9  11
ENDBRANCH   8   9
ENDBRANCH   4   7
BRANCH   1  19
ATOM     19  O   UNL     1       5.150   4.227  16.823  0.00  0.00    +0.000 OA
BRANCH  19  20
ATOM     20  C   UNL     1       5.635   4.442  15.489  0.00  0.00    +0.000 C 
BRANCH  20  22
ATOM     21  O   UNL     1       7.722   5.354  14.677  0.00  0.00    +0.000 OA
ATOM     22  C   UNL     1       7.131   4.684  15.511  0.00  0.00    +0.000 C 
BRANCH  22  23
ATOM     23  O   UNL     1       7.757   4.079  16.548  0.00  0.00    +0.000 OA
ATOM     24  H   UNL     1       8.383   4.711  16.966  0.00  0.00    +0.000 HD
ENDBRANCH  22  23
ENDBRANCH  20  22
ENDBRANCH  19  20
ENDBRANCH   1  19
TORSDOF 7
ENDMDL
MODEL 2
REMARK VINA RESULT:      -7.1      7.121      8.870
REMARK  Name = 
REMARK  7 active torsions:
REMARK  status: ('A' for Active; 'I' for Inactive)
REMARK    1  A    between atoms: C_2  and  O_3
REMARK    2  A    between atoms: C_2  and  C_4
REMARK    3  A    between atoms: C_4  and  O_5
REMARK    4  A    between atoms: O_5  and  C_6
REMARK    5  A    between atoms: C_9  and  C_10
REMARK    6  A    between atoms: C_11  and  C_12
REMARK    7  A    between atoms: C_12  and  C_14
REMARK                            x       y       z     vdW  Elec       q    Type
REMARK                         _______ _______ _______ _____ _____    ______ ____
ROOT
ATOM      1  C   UNL     1       6.100   5.301  18.268  0.00  0.00    +0.000 A 
ATOM      2  C   UNL     1       7.316   5.452  18.932  0.00  0.00    +0.000 A 
ATOM      3  C   UNL     1       8.053   6.625  18.783  0.00  0.00    +0.000 A 
ATOM      4  C   UNL     1       7.625   7.648  17.927  0.00  0.00    +0.000 A 
ATOM      5  C   UNL     1       6.418   7.478  17.238  0.00  0.00    +0.000 A 
ATOM      6  C   UNL     1       5.665   6.304  17.399  0.00  0.00    +0.000 A 
ENDROOT
BRANCH   4   7
ATOM      7  C   UNL     1       8.387   8.901  17.802  0.00  0.00    +0.000 C 
ATOM      8  C   UNL     1       8.886   9.546  18.869  0.00  0.00    +0.000 C 
BRANCH   8   9
ATOM      9  C   UNL     1       9.573  10.854  18.729  0.00  0.00    +0.000 C 
ATOM     10  O   UNL     1      10.209  11.157  17.724  0.00  0.00    +0.000 OA
BRANCH   9  11
ATOM     11  C   UNL     1       9.485  11.788  19.885  0.00  0.00    +0.000 A 
ATOM     12  C   UNL     1       9.876  13.120  19.700  0.00  0.00    +0.000 A 
ATOM     13  C   UNL     1       9.803  14.028  20.760  0.00  0.00    +0.000 A 
ATOM     14  C   UNL     1       9.327  13.617  22.009  0.00  0.00    +0.000 A 
ATOM     15 CL   UNL     1       9.262  14.790  23.274  0.00  0.00    +0.000 Cl
ATOM     16  C   UNL     1       8.919  12.292  22.193  0.00  0.00    +0.000 A 
ATOM     17 CL   UNL     1       8.309  11.710  23.703  0.00  0.00    +0.000 Cl
ATOM     18  C   UNL     1       8.993  11.380  21.132  0.00  0.00    +0.000 A 
ENDBRANCH   9  11
ENDBRANCH   8   9
ENDBRANCH   4   7
BRANCH   1  19
ATOM     19  O   UNL     1       5.271   4.221  18.421  0.00  0.00    +0.000 OA
BRANCH  19  20
ATOM     20  C   UNL     1       4.136   4.231  17.542  0.00  0.00    +0.000 C 
BRANCH  20  22
ATOM     21  O   UNL     1       2.247   2.746  17.259  0.00  0.00    +0.000 OA
ATOM     22  C   UNL     1       3.404   2.905  17.621  0.00  0.00    +0.000 C 
BRANCH  22  23
ATOM     23  O   UNL     1       4.157   1.906  18.138  0.00  0.00    +0.000 OA
ATOM     24  H   UNL     1       4.802   1.599  17.464  0.00  0.00    +0.000 HD
ENDBRANCH  22  23
ENDBRANCH  20  22
ENDBRANCH  19  20
ENDBRANCH   1  19
TORSDOF 7
ENDMDL
MODEL 3
REMARK VINA RESULT:      -7.1      1.153      1.942
REMARK  Name = 
REMARK  7 active torsions:
REMARK  status: ('A' for Active; 'I' for Inactive)
REMARK    1  A    between atoms: C_2  and  O_3
REMARK    2  A    between atoms: C_2  and  C_4
REMARK    3  A    between atoms: C_4  and  O_5
REMARK    4  A    between atoms: O_5  and  C_6
REMARK    5  A    between atoms: C_9  and  C_10
REMARK    6  A    between atoms: C_11  and  C_12
REMARK    7  A    between atoms: C_12  and  C_14
REMARK                            x       y       z     vdW  Elec       q    Type
REMARK                         _______ _______ _______ _____ _____    ______ ____
ROOT
ATOM      1  C   UNL     1       4.058   5.143  18.405  0.00  0.00    +0.000 A 
ATOM      2  C   UNL     1       3.801   6.182  17.513  0.00  0.00    +0.000 A 
ATOM      3  C   UNL     1       2.999   7.254  17.899  0.00  0.00    +0.000 A 
ATOM      4  C   UNL     1       2.391   7.288  19.161  0.00  0.00    +0.000 A 
ATOM      5  C   UNL     1       2.628   6.227  20.043  0.00  0.00    +0.000 A 
ATOM      6  C   UNL     1       3.447   5.154  19.662  0.00  0.00    +0.000 A 
ENDROOT
BRANCH   4   7
ATOM      7  C   UNL     1       1.577   8.441  19.579  0.00  0.00    +0.000 C 
ATOM      8  C   UNL     1       1.396   9.515  18.793  0.00  0.00    +0.000 C 
BRANCH   8   9
ATOM      9  C   UNL     1       0.647  10.703  19.269  0.00  0.00    +0.000 C 
ATOM     10  O   UNL     1       1.142  11.531  20.028  0.00  0.00    +0.000 OA
BRANCH   9  11
ATOM     11  C   UNL     1      -0.763  10.840  18.808  0.00  0.00    +0.000 A 
ATOM     12  C   UNL     1      -1.176  10.102  17.693  0.00  0.00    +0.000 A 
ATOM     13  C   UNL     1      -2.493  10.199  17.234  0.00  0.00    +0.000 A 
ATOM     14  C   UNL     1      -3.410  11.024  17.893  0.00  0.00    +0.000 A 
ATOM     15 CL   UNL     1      -5.020  11.097  17.273  0.00  0.00    +0.000 Cl
ATOM     16  C   UNL     1      -3.005  11.750  19.018  0.00  0.00    +0.000 A 
ATOM     17 CL   UNL     1      -4.081  12.784  19.891  0.00  0.00    +0.000 Cl
ATOM     18  C   UNL     1      -1.685  11.654  19.478  0.00  0.00    +0.000 A 
ENDBRANCH   9  11
ENDBRANCH   8   9
ENDBRANCH   4   7
BRANCH   1  19
ATOM     19  O   UNL     1       4.899   4.094  18.140  0.00  0.00    +0.000 OA
BRANCH  19  20
ATOM     20  C   UNL     1       5.653   4.245  16.928  0.00  0.00    +0.000 C 
BRANCH  20  22
ATOM     21  O   UNL     1       7.557   4.566  18.384  0.00  0.00    +0.000 OA
ATOM     22  C   UNL     1       7.120   4.451  17.248  0.00  0.00    +0.000 C 
BRANCH  22  23
ATOM     23  O   UNL     1       7.908   4.501  16.148  0.00  0.00    +0.000 OA
ATOM     24  H   UNL     1       8.016   5.435  15.865  0.00  0.00    +0.000 HD
ENDBRANCH  22  23
ENDBRANCH  20  22
ENDBRANCH  19  20
ENDBRANCH   1  19
TORSDOF 7
ENDMDL
MODEL 4
REMARK VINA RESULT:      -7.1      7.265      8.894
REMARK  Name = 
REMARK  7 active torsions:
REMARK  status: ('A' for Active; 'I' for Inactive)
REMARK    1  A    between atoms: C_2  and  O_3
REMARK    2  A    between atoms: C_2  and  C_4
REMARK    3  A    between atoms: C_4  and  O_5
REMARK    4  A    between atoms: O_5  and  C_6
REMARK    5  A    between atoms: C_9  and  C_10
REMARK    6  A    between atoms: C_11  and  C_12
REMARK    7  A    between atoms: C_12  and  C_14
REMARK                            x       y       z     vdW  Elec       q    Type
REMARK                         _______ _______ _______ _____ _____    ______ ____
ROOT
ATOM      1  C   UNL     1       6.602   5.288  18.316  0.00  0.00    +0.000 A 
ATOM      2  C   UNL     1       6.016   6.209  17.450  0.00  0.00    +0.000 A 
ATOM      3  C   UNL     1       6.577   7.475  17.290  0.00  0.00    +0.000 A 
ATOM      4  C   UNL     1       7.698   7.870  18.031  0.00  0.00    +0.000 A 
ATOM      5  C   UNL     1       8.264   6.952  18.923  0.00  0.00    +0.000 A 
ATOM      6  C   UNL     1       7.711   5.671  19.074  0.00  0.00    +0.000 A 
ENDROOT
BRANCH   4   7
ATOM      7  C   UNL     1       8.309   9.194  17.831  0.00  0.00    +0.000 C 
ATOM      8  C   UNL     1       9.107   9.762  18.751  0.00  0.00    +0.000 C 
BRANCH   8   9
ATOM      9  C   UNL     1       9.639  11.135  18.568  0.00  0.00    +0.000 C 
ATOM     10  O   UNL     1      10.243  11.476  17.556  0.00  0.00    +0.000 OA
BRANCH   9  11
ATOM     11  C   UNL     1       9.436  12.092  19.692  0.00  0.00    +0.000 A 
ATOM     12  C   UNL     1       9.467  11.601  21.002  0.00  0.00    +0.000 A 
ATOM     13  C   UNL     1       9.286  12.468  22.083  0.00  0.00    +0.000 A 
ATOM     14  C   UNL     1       9.085  13.834  21.864  0.00  0.00    +0.000 A 
ATOM     15 CL   UNL     1       8.868  14.850  23.244  0.00  0.00    +0.000 Cl
ATOM     16  C   UNL     1       9.070  14.332  20.556  0.00  0.00    +0.000 A 
ATOM     17 CL   UNL     1       8.837  16.009  20.205  0.00  0.00    +0.000 Cl
ATOM     18  C   UNL     1       9.250  13.463  19.473  0.00  0.00    +0.000 A 
ENDBRANCH   9  11
ENDBRANCH   8   9
ENDBRANCH   4   7
BRANCH   1  19
ATOM     19  O   UNL     1       6.169   3.997  18.472  0.00  0.00    +0.000 OA
BRANCH  19  20
ATOM     20  C   UNL     1       4.742   3.851  18.409  0.00  0.00    +0.000 C 
BRANCH  20  22
ATOM     21  O   UNL     1       3.220   3.352  20.221  0.00  0.00    +0.000 OA
ATOM     22  C   UNL     1       4.244   3.076  19.613  0.00  0.00    +0.000 C 
BRANCH  22  23
ATOM     23  O   UNL     1       5.049   2.043  19.957  0.00  0.00    +0.000 OA
ATOM     24  H   UNL     1       5.696   2.344  20.632  0.00  0.00    +0.000 HD
ENDBRANCH  22  23
ENDBRANCH  20  22
ENDBRANCH  19  20
ENDBRANCH   1  19
TORSDOF 7
ENDMDL
MODEL 5
REMARK VINA RESULT:      -7.0      0.671      1.265
REMARK  Name = 
REMARK  7 active torsions:
REMARK  status: ('A' for Active; 'I' for Inactive)
REMARK    1  A    between atoms: C_2  and  O_3
REMARK    2  A    between atoms: C_2  and  C_4
REMARK    3  A    between atoms: C_4  and  O_5
REMARK    4  A    between atoms: O_5  and  C_6
REMARK    5  A    between atoms: C_9  and  C_10
REMARK    6  A    between atoms: C_11  and  C_12
REMARK    7  A    between atoms: C_12  and  C_14
REMARK                            x       y       z     vdW  Elec       q    Type
REMARK                         _______ _______ _______ _____ _____    ______ ____
ROOT
ATOM      1  C   UNL     1       4.319   5.712  17.362  0.00  0.00    +0.000 A 
ATOM      2  C   UNL     1       3.527   5.239  18.407  0.00  0.00    +0.000 A 
ATOM      3  C   UNL     1       2.614   6.087  19.032  0.00  0.00    +0.000 A 
ATOM      4  C   UNL     1       2.511   7.436  18.669  0.00  0.00    +0.000 A 
ATOM      5  C   UNL     1       3.331   7.914  17.640  0.00  0.00    +0.000 A 
ATOM      6  C   UNL     1       4.239   7.058  16.998  0.00  0.00    +0.000 A 
ENDROOT
BRANCH   4   7
ATOM      7  C   UNL     1       1.519   8.318  19.305  0.00  0.00    +0.000 C 
ATOM      8  C   UNL     1       1.286   9.567  18.870  0.00  0.00    +0.000 C 
BRANCH   8   9
ATOM      9  C   UNL     1       0.347  10.469  19.581  0.00  0.00    +0.000 C 
ATOM     10  O   UNL     1       0.600  10.944  20.684  0.00  0.00    +0.000 OA
BRANCH   9  11
ATOM     11  C   UNL     1      -0.950  10.758  18.908  0.00  0.00    +0.000 A 
ATOM     12  C   UNL     1      -1.836  11.654  19.519  0.00  0.00    +0.000 A 
ATOM     13  C   UNL     1      -3.061  11.954  18.915  0.00  0.00    +0.000 A 
ATOM     14  C   UNL     1      -3.404  11.372  17.691  0.00  0.00    +0.000 A 
ATOM     15 CL   UNL     1      -4.931  11.787  17.000  0.00  0.00    +0.000 Cl
ATOM     16  C   UNL     1      -2.514  10.490  17.069  0.00  0.00    +0.000 A 
ATOM     17 CL   UNL     1      -2.862   9.738  15.551  0.00  0.00    +0.000 Cl
ATOM     18  C   UNL     1      -1.287  10.187  17.674  0.00  0.00    +0.000 A 
ENDBRANCH   9  11
ENDBRANCH   8   9
ENDBRANCH   4   7
BRANCH   1  19
ATOM     19  O   UNL     1       5.180   4.931  16.637  0.00  0.00    +0.000 OA
BRANCH  19  20
ATOM     20  C   UNL     1       5.336   5.349  15.273  0.00  0.00    +0.000 C 
BRANCH  20  22
ATOM     21  O   UNL     1       6.598   3.743  13.979  0.00  0.00    +0.000 OA
ATOM     22  C   UNL     1       6.593   4.743  14.682  0.00  0.00    +0.000 C 
BRANCH  22  23
ATOM     23  O   UNL     1       7.720   5.416  15.013  0.00  0.00    +0.000 OA
ATOM     24  H   UNL     1       7.480   6.288  15.397  0.00  0.00    +0.000 HD
ENDBRANCH  22  23
ENDBRANCH  20  22
ENDBRANCH  19  20
ENDBRANCH   1  19
TORSDOF 7
ENDMDL
MODEL 6
REMARK VINA RESULT:      -7.0      4.896      9.073
REMARK  Name = 
REMARK  7 active torsions:
REMARK  status: ('A' for Active; 'I' for Inactive)
REMARK    1  A    between atoms: C_2  and  O_3
REMARK    2  A    between atoms: C_2  and  C_4
REMARK    3  A    between atoms: C_4  and  O_5
REMARK    4  A    between atoms: O_5  and  C_6
REMARK    5  A    between atoms: C_9  and  C_10
REMARK    6  A    between atoms: C_11  and  C_12
REMARK    7  A    between atoms: C_12  and  C_14
REMARK                            x       y       z     vdW  Elec       q    Type
REMARK                         _______ _______ _______ _____ _____    ______ ____
ROOT
ATOM      1  C   UNL     1       0.765  10.786  19.907  0.00  0.00    +0.000 A 
ATOM      2  C   UNL     1       0.745   9.820  20.911  0.00  0.00    +0.000 A 
ATOM      3  C   UNL     1       1.262   8.549  20.669  0.00  0.00    +0.000 A 
ATOM      4  C   UNL     1       1.757   8.195  19.407  0.00  0.00    +0.000 A 
ATOM      5  C   UNL     1       1.746   9.160  18.393  0.00  0.00    +0.000 A 
ATOM      6  C   UNL     1       1.241  10.446  18.639  0.00  0.00    +0.000 A 
ENDROOT
BRANCH   4   7
ATOM      7  C   UNL     1       2.337   6.864  19.167  0.00  0.00    +0.000 C 
ATOM      8  C   UNL     1       2.253   5.871  20.067  0.00  0.00    +0.000 C 
BRANCH   8   9
ATOM      9  C   UNL     1       2.922   4.566  19.843  0.00  0.00    +0.000 C 
ATOM     10  O   UNL     1       2.628   3.559  20.479  0.00  0.00    +0.000 OA
BRANCH   9  11
ATOM     11  C   UNL     1       4.004   4.531  18.819  0.00  0.00    +0.000 A 
ATOM     12  C   UNL     1       3.683   4.117  17.521  0.00  0.00    +0.000 A 
ATOM     13  C   UNL     1       4.670   4.077  16.532  0.00  0.00    +0.000 A 
ATOM     14  C   UNL     1       5.981   4.462  16.828  0.00  0.00    +0.000 A 
ATOM     15 CL   UNL     1       7.150   4.388  15.560  0.00  0.00    +0.000 Cl
ATOM     16  C   UNL     1       6.302   4.892  18.120  0.00  0.00    +0.000 A 
ATOM     17 CL   UNL     1       7.897   5.393  18.562  0.00  0.00    +0.000 Cl
ATOM     18  C   UNL     1       5.314   4.932  19.113  0.00  0.00    +0.000 A 
ENDBRANCH   9  11
ENDBRANCH   8   9
ENDBRANCH   4   7
BRANCH   1  19
ATOM     19  O   UNL     1       0.356  12.083  20.081  0.00  0.00    +0.000 OA
BRANCH  19  20
ATOM     20  C   UNL     1       0.914  13.000  19.128  0.00  0.00    +0.000 C 
BRANCH  20  22
ATOM     21  O   UNL     1      -0.389  14.993  18.701  0.00  0.00    +0.000 OA
ATOM     22  C   UNL     1      -0.191  13.808  18.475  0.00  0.00    +0.000 C 
BRANCH  22  23
ATOM     23  O   UNL     1      -0.947  13.087  17.615  0.00  0.00    +0.000 OA
ATOM     24  H   UNL     1      -1.265  12.272  18.062  0.00  0.00    +0.000 HD
ENDBRANCH  22  23
ENDBRANCH  20  22
ENDBRANCH  19  20
ENDBRANCH   1  19
TORSDOF 7
ENDMDL
MODEL 7
REMARK VINA RESULT:      -6.9      7.149      8.890
REMARK  Name = 
REMARK  7 active torsions:
REMARK  status: ('A' for Active; 'I' for Inactive)
REMARK    1  A    between atoms: C_2  and  O_3
REMARK    2  A    between atoms: C_2  and  C_4
REMARK    3  A    between atoms: C_4  and  O_5
REMARK    4  A    between atoms: O_5  and  C_6
REMARK    5  A    between atoms: C_9  and  C_10
REMARK    6  A    between atoms: C_11  and  C_12
REMARK    7  A    between atoms: C_12  and  C_14
REMARK                            x       y       z     vdW  Elec       q    Type
REMARK                         _______ _______ _______ _____ _____    ______ ____
ROOT
ATOM      1  C   UNL     1       6.100   5.212  18.110  0.00  0.00    +0.000 A 
ATOM      2  C   UNL     1       5.676   6.227  17.255  0.00  0.00    +0.000 A 
ATOM      3  C   UNL     1       6.413   7.405  17.147  0.00  0.00    +0.000 A 
ATOM      4  C   UNL     1       7.555   7.620  17.930  0.00  0.00    +0.000 A 
ATOM      5  C   UNL     1       7.959   6.610  18.811  0.00  0.00    +0.000 A 
ATOM      6  C   UNL     1       7.227   5.417  18.910  0.00  0.00    +0.000 A 
ENDROOT
BRANCH   4   7
ATOM      7  C   UNL     1       8.352   8.850  17.786  0.00  0.00    +0.000 C 
ATOM      8  C   UNL     1       8.848   9.511  18.844  0.00  0.00    +0.000 C 
BRANCH   8   9
ATOM      9  C   UNL     1       9.571  10.796  18.680  0.00  0.00    +0.000 C 
ATOM     10  O   UNL     1      10.215  11.064  17.670  0.00  0.00    +0.000 OA
BRANCH   9  11
ATOM     11  C   UNL     1       9.511  11.753  19.820  0.00  0.00    +0.000 A 
ATOM     12  C   UNL     1       9.946  13.068  19.614  0.00  0.00    +0.000 A 
ATOM     13  C   UNL     1       9.899  13.996  20.658  0.00  0.00    +0.000 A 
ATOM     14  C   UNL     1       9.406  13.622  21.912  0.00  0.00    +0.000 A 
ATOM     15 CL   UNL     1       9.376  14.818  23.157  0.00  0.00    +0.000 Cl
ATOM     16  C   UNL     1       8.955  12.314  22.117  0.00  0.00    +0.000 A 
ATOM     17 CL   UNL     1       8.323  11.778  23.635  0.00  0.00    +0.000 Cl
ATOM     18  C   UNL     1       9.002  11.383  21.072  0.00  0.00    +0.000 A 
ENDBRANCH   9  11
ENDBRANCH   8   9
ENDBRANCH   4   7
BRANCH   1  19
ATOM     19  O   UNL     1       5.486   3.991  18.217  0.00  0.00    +0.000 OA
BRANCH  19  20
ATOM     20  C   UNL     1       4.071   4.071  18.445  0.00  0.00    +0.000 C 
BRANCH  20  22
ATOM     21  O   UNL     1       3.674   1.767  17.826  0.00  0.00    +0.000 OA
ATOM     22  C   UNL     1       3.362   2.944  17.720  0.00  0.00    +0.000 C 
BRANCH  22  23
ATOM     23  O   UNL     1       2.344   3.368  16.934  0.00  0.00    +0.000 OA
ATOM     24  H   UNL     1       1.740   3.936  17.460  0.00  0.00    +0.000 HD
ENDBRANCH  22  23
ENDBRANCH  20  22
ENDBRANCH  19  20
ENDBRANCH   1  19
TORSDOF 7
ENDMDL
MODEL 8
REMARK VINA RESULT:      -6.9      4.036      9.077
REMARK  Name = 
REMARK  7 active torsions:
REMARK  status: ('A' for Active; 'I' for Inactive)
REMARK    1  A    between atoms: C_2  and  O_3
REMARK    2  A    between atoms: C_2  and  C_4
REMARK    3  A    between atoms: C_4  and  O_5
REMARK    4  A    between atoms: O_5  and  C_6
REMARK    5  A    between atoms: C_9  and  C_10
REMARK    6  A    between atoms: C_11  and  C_12
REMARK    7  A    between atoms: C_12  and  C_14
REMARK                            x       y       z     vdW  Elec       q    Type
REMARK                         _______ _______ _______ _____ _____    ______ ____
ROOT
ATOM      1  C   UNL     1       0.938   9.533  19.359  0.00  0.00    +0.000 A 
ATOM      2  C   UNL     1       1.494   9.579  18.083  0.00  0.00    +0.000 A 
ATOM      3  C   UNL     1       2.343   8.560  17.653  0.00  0.00    +0.000 A 
ATOM      4  C   UNL     1       2.702   7.507  18.504  0.00  0.00    +0.000 A 
ATOM      5  C   UNL     1       2.164   7.483  19.796  0.00  0.00    +0.000 A 
ATOM      6  C   UNL     1       1.296   8.498  20.226  0.00  0.00    +0.000 A 
ENDROOT
BRANCH   4   7
ATOM      7  C   UNL     1       3.568   6.414  18.033  0.00  0.00    +0.000 C 
ATOM      8  C   UNL     1       3.420   5.148  18.457  0.00  0.00    +0.000 C 
BRANCH   8   9
ATOM      9  C   UNL     1       4.360   4.079  18.039  0.00  0.00    +0.000 C 
ATOM     10  O   UNL     1       4.467   3.021  18.651  0.00  0.00    +0.000 OA
BRANCH   9  11
ATOM     11  C   UNL     1       5.207   4.357  16.845  0.00  0.00    +0.000 A 
ATOM     12  C   UNL     1       6.436   5.000  17.031  0.00  0.00    +0.000 A 
ATOM     13  C   UNL     1       7.261   5.272  15.936  0.00  0.00    +0.000 A 
ATOM     14  C   UNL     1       6.870   4.892  14.648  0.00  0.00    +0.000 A 
ATOM     15 CL   UNL     1       7.937   5.259  13.341  0.00  0.00    +0.000 Cl
ATOM     16  C   UNL     1       5.651   4.234  14.460  0.00  0.00    +0.000 A 
ATOM     17 CL   UNL     1       5.103   3.724  12.901  0.00  0.00    +0.000 Cl
ATOM     18  C   UNL     1       4.823   3.962  15.557  0.00  0.00    +0.000 A 
ENDBRANCH   9  11
ENDBRANCH   8   9
ENDBRANCH   4   7
BRANCH   1  19
ATOM     19  O   UNL     1       0.030  10.443  19.834  0.00  0.00    +0.000 OA
BRANCH  19  20
ATOM     20  C   UNL     1      -1.184  10.507  19.069  0.00  0.00    +0.000 C 
BRANCH  20  22
ATOM     21  O   UNL     1      -2.391  12.573  19.421  0.00  0.00    +0.000 OA
ATOM     22  C   UNL     1      -1.548  11.952  18.790  0.00  0.00    +0.000 C 
BRANCH  22  23
ATOM     23  O   UNL     1      -0.851  12.493  17.763  0.00  0.00    +0.000 OA
ATOM     24  H   UNL     1      -0.173  11.853  17.455  0.00  0.00    +0.000 HD
ENDBRANCH  22  23
ENDBRANCH  20  22
ENDBRANCH  19  20
ENDBRANCH   1  19
TORSDOF 7
ENDMDL
MODEL 9
REMARK VINA RESULT:      -6.9      2.804      3.582
REMARK  Name = 
REMARK  7 active torsions:
REMARK  status: ('A' for Active; 'I' for Inactive)
REMARK    1  A    between atoms: C_2  and  O_3
REMARK    2  A    between atoms: C_2  and  C_4
REMARK    3  A    between atoms: C_4  and  O_5
REMARK    4  A    between atoms: O_5  and  C_6
REMARK    5  A    between atoms: C_9  and  C_10
REMARK    6  A    between atoms: C_11  and  C_12
REMARK    7  A    between atoms: C_12  and  C_14
REMARK                            x       y       z     vdW  Elec       q    Type
REMARK                         _______ _______ _______ _____ _____    ______ ____
ROOT
ATOM      1  C   UNL     1       3.362   6.088  18.005  0.00  0.00    +0.000 A 
ATOM      2  C   UNL     1       2.918   7.403  17.885  0.00  0.00    +0.000 A 
ATOM      3  C   UNL     1       2.215   8.002  18.929  0.00  0.00    +0.000 A 
ATOM      4  C   UNL     1       1.888   7.288  20.088  0.00  0.00    +0.000 A 
ATOM      5  C   UNL     1       2.310   5.957  20.191  0.00  0.00    +0.000 A 
ATOM      6  C   UNL     1       3.032   5.356  19.148  0.00  0.00    +0.000 A 
ENDROOT
BRANCH   4   7
ATOM      7  C   UNL     1       1.179   7.936  21.203  0.00  0.00    +0.000 C 
ATOM      8  C   UNL     1       0.987   9.264  21.256  0.00  0.00    +0.000 C 
BRANCH   8   9
ATOM      9  C   UNL     1       0.349   9.906  22.432  0.00  0.00    +0.000 C 
ATOM     10  O   UNL     1       0.678   9.640  23.584  0.00  0.00    +0.000 OA
BRANCH   9  11
ATOM     11  C   UNL     1      -0.745  10.879  22.157  0.00  0.00    +0.000 A 
ATOM     12  C   UNL     1      -0.882  11.381  20.858  0.00  0.00    +0.000 A 
ATOM     13  C   UNL     1      -1.900  12.292  20.560  0.00  0.00    +0.000 A 
ATOM     14  C   UNL     1      -2.796  12.697  21.555  0.00  0.00    +0.000 A 
ATOM     15 CL   UNL     1      -4.030  13.824  21.119  0.00  0.00    +0.000 Cl
ATOM     16  C   UNL     1      -2.672  12.184  22.850  0.00  0.00    +0.000 A 
ATOM     17 CL   UNL     1      -3.746  12.629  24.130  0.00  0.00    +0.000 Cl
ATOM     18  C   UNL     1      -1.652  11.273  23.150  0.00  0.00    +0.000 A 
ENDBRANCH   9  11
ENDBRANCH   8   9
ENDBRANCH   4   7
BRANCH   1  19
ATOM     19  O   UNL     1       4.130   5.448  17.068  0.00  0.00    +0.000 OA
BRANCH  19  20
ATOM     20  C   UNL     1       5.091   6.300  16.425  0.00  0.00    +0.000 C 
BRANCH  20  22
ATOM     21  O   UNL     1       5.574   4.644  14.729  0.00  0.00    +0.000 OA
ATOM     22  C   UNL     1       5.989   5.481  15.518  0.00  0.00    +0.000 C 
BRANCH  22  23
ATOM     23  O   UNL     1       7.305   5.761  15.670  0.00  0.00    +0.000 OA
ATOM     24  H   UNL     1       7.685   5.183  16.367  0.00  0.00    +0.000 HD
ENDBRANCH  22  23
ENDBRANCH  20  22
ENDBRANCH  19  20
ENDBRANCH   1  19
TORSDOF 7
ENDMDL
