MODEL 1
REMARK VINA RESULT:      -7.9      0.000      0.000
REMARK  Name = 
REMARK  9 active torsions:
REMARK  status: ('A' for Active; 'I' for Inactive)
REMARK    1  A    between atoms: C_1  and  C_2
REMARK    2  A    between atoms: C_2  and  C_3
REMARK    3  A    between atoms: C_3  and  C_4
REMARK    4  A    between atoms: C_4  and  N_5
REMARK    5  A    between atoms: C_4  and  C_6
REMARK    6  A    between atoms: C_6  and  O_8
REMARK    7  A    between atoms: O_8  and  C_9
REMARK    8  A    between atoms: C_9  and  C_10
REMARK    9  A    between atoms: C_10  and  C_11
REMARK                            x       y       z     vdW  Elec       q    Type
REMARK                         _______ _______ _______ _____ _____    ______ ____
ROOT
ATOM      1  C   UNL     1      -1.564  13.140  20.905  0.00  0.00    +0.000 C 
ATOM      2  C   UNL     1      -0.884  14.581  21.112  0.00  0.00    +0.000 C 
ATOM      3  O   UNL     1      -1.039  15.343  22.061  0.00  0.00    +0.000 OA
ATOM      4  O   UNL     1       0.016  14.881  20.144  0.00  0.00    +0.000 OA
ATOM      5  C   UNL     1       1.151  14.109  20.440  0.00  0.00    +0.000 C 
ATOM      6  C   UNL     1       0.819  12.684  20.214  0.00  0.00    +0.000 A 
ATOM      7  C   UNL     1      -0.313  12.056  20.629  0.00  0.00    +0.000 A 
ATOM      8  C   UNL     1      -0.135  10.490  20.636  0.00  0.00    +0.000 A 
ATOM      9  C   UNL     1       0.837   9.862  19.865  0.00  0.00    +0.000 A 
ATOM     10  N   UNL     1       1.495  10.739  18.995  0.00  0.00    +0.000 N 
ATOM     11  C   UNL     1       1.575  12.080  19.103  0.00  0.00    +0.000 A 
ATOM     12  O   UNL     1       2.209  12.776  18.319  0.00  0.00    +0.000 OA
ATOM     13  C   UNL     1       2.190  10.110  17.916  0.00  0.00    +0.000 C 
ATOM     14  C   UNL     1       2.219   8.707  18.318  0.00  0.00    +0.000 A 
ATOM     15  C   UNL     1       2.967   7.761  17.642  0.00  0.00    +0.000 A 
ATOM     16  C   UNL     1       3.164   6.531  18.221  0.00  0.00    +0.000 A 
ATOM     17  C   UNL     1       3.948   5.603  17.495  0.00  0.00    +0.000 A 
ATOM     18  C   UNL     1       4.290   4.388  18.050  0.00  0.00    +0.000 A 
ATOM     19  C   UNL     1       3.853   4.129  19.336  0.00  0.00    +0.000 A 
ATOM     20  C   UNL     1       3.042   5.069  20.035  0.00  0.00    +0.000 A 
ATOM     21  C   UNL     1       2.600   6.316  19.513  0.00  0.00    +0.000 A 
ATOM     22  N   UNL     1       1.746   7.295  20.145  0.00  0.00    +0.000 NA
ATOM     23  C   UNL     1       1.523   8.482  19.511  0.00  0.00    +0.000 A 
ENDROOT
BRANCH   1  24
ATOM     24  C   UNL     1      -2.503  13.145  22.166  0.00  0.00    +0.000 C 
ATOM     25  C   UNL     1      -2.510  12.019  23.179  0.00  0.00    +0.000 C 
ENDBRANCH   1  24
BRANCH   1  26
ATOM     26  O   UNL     1      -2.362  13.200  19.625  0.00  0.00    +0.000 OA
BRANCH  26  27
ATOM     27  C   UNL     1      -3.111  12.136  19.143  0.00  0.00    +0.000 C 
ATOM     28  O   UNL     1      -4.192  11.776  19.599  0.00  0.00    +0.000 OA
BRANCH  27  29
ATOM     29  C   UNL     1      -2.416  11.351  17.939  0.00  0.00    +0.000 C 
BRANCH  29  30
ATOM     30  N   UNL     1      -1.488  12.247  17.222  0.00  0.00    +0.000 NA
ATOM     31  H   UNL     1      -0.605  11.754  17.089  0.00  0.00    +0.000 HD
ATOM     32  H   UNL     1      -1.283  13.056  17.803  0.00  0.00    +0.000 HD
ENDBRANCH  29  30
BRANCH  29  33
ATOM     33  C   UNL     1      -3.395  10.664  16.923  0.00  0.00    +0.000 C 
BRANCH  33  35
ATOM     34  C   UNL     1      -3.485  10.134  14.373  0.00  0.00    +0.000 C 
ATOM     35  C   UNL     1      -2.699  10.029  15.682  0.00  0.00    +0.000 C 
ENDBRANCH  33  35
ENDBRANCH  29  33
ENDBRANCH  27  29
ENDBRANCH  26  27
ENDBRANCH   1  26
TORSDOF 7
ENDMDL
MODEL 2
REMARK VINA RESULT:      -7.6      4.338      9.252
REMARK  Name = 
REMARK  9 active torsions:
REMARK  status: ('A' for Active; 'I' for Inactive)
REMARK    1  A    between atoms: C_1  and  C_2
REMARK    2  A    between atoms: C_2  and  C_3
REMARK    3  A    between atoms: C_3  and  C_4
REMARK    4  A    between atoms: C_4  and  N_5
REMARK    5  A    between atoms: C_4  and  C_6
REMARK    6  A    between atoms: C_6  and  O_8
REMARK    7  A    between atoms: O_8  and  C_9
REMARK    8  A    between atoms: C_9  and  C_10
REMARK    9  A    between atoms: C_10  and  C_11
REMARK                            x       y       z     vdW  Elec       q    Type
REMARK                         _______ _______ _______ _____ _____    ______ ____
ROOT
ATOM      1  C   UNL     1       4.894   4.876  16.475  0.00  0.00    +0.000 C 
ATOM      2  C   UNL     1       6.094   4.204  17.305  0.00  0.00    +0.000 C 
ATOM      3  O   UNL     1       7.249   4.034  16.931  0.00  0.00    +0.000 OA
ATOM      4  O   UNL     1       5.745   3.903  18.581  0.00  0.00    +0.000 OA
ATOM      5  C   UNL     1       5.728   5.131  19.261  0.00  0.00    +0.000 C 
ATOM      6  C   UNL     1       4.598   5.937  18.743  0.00  0.00    +0.000 A 
ATOM      7  C   UNL     1       4.278   6.107  17.433  0.00  0.00    +0.000 A 
ATOM      8  C   UNL     1       3.345   7.361  17.225  0.00  0.00    +0.000 A 
ATOM      9  C   UNL     1       2.581   7.883  18.264  0.00  0.00    +0.000 A 
ATOM     10  N   UNL     1       2.613   7.091  19.417  0.00  0.00    +0.000 N 
ATOM     11  C   UNL     1       3.548   6.178  19.748  0.00  0.00    +0.000 A 
ATOM     12  O   UNL     1       3.527   5.552  20.802  0.00  0.00    +0.000 OA
ATOM     13  C   UNL     1       1.558   7.339  20.349  0.00  0.00    +0.000 C 
ATOM     14  C   UNL     1       0.992   8.598  19.877  0.00  0.00    +0.000 A 
ATOM     15  C   UNL     1       0.053   9.305  20.605  0.00  0.00    +0.000 A 
ATOM     16  C   UNL     1      -0.236  10.597  20.241  0.00  0.00    +0.000 A 
ATOM     17  C   UNL     1      -1.194  11.281  21.027  0.00  0.00    +0.000 A 
ATOM     18  C   UNL     1      -1.460  12.615  20.803  0.00  0.00    +0.000 A 
ATOM     19  C   UNL     1      -0.748  13.248  19.801  0.00  0.00    +0.000 A 
ATOM     20  C   UNL     1       0.191  12.529  19.006  0.00  0.00    +0.000 A 
ATOM     21  C   UNL     1       0.481  11.143  19.136  0.00  0.00    +0.000 A 
ATOM     22  N   UNL     1       1.385  10.343  18.342  0.00  0.00    +0.000 NA
ATOM     23  C   UNL     1       1.601   9.045  18.698  0.00  0.00    +0.000 A 
ENDROOT
BRANCH   1  24
ATOM     24  C   UNL     1       5.645   5.077  15.107  0.00  0.00    +0.000 C 
ATOM     25  C   UNL     1       5.503   4.109  13.952  0.00  0.00    +0.000 C 
ENDBRANCH   1  24
BRANCH   1  26
ATOM     26  O   UNL     1       3.799   3.845  16.353  0.00  0.00    +0.000 OA
BRANCH  26  27
ATOM     27  C   UNL     1       2.723   3.768  17.226  0.00  0.00    +0.000 C 
ATOM     28  O   UNL     1       1.700   4.443  17.140  0.00  0.00    +0.000 OA
BRANCH  27  29
ATOM     29  C   UNL     1       2.937   2.738  18.426  0.00  0.00    +0.000 C 
BRANCH  29  30
ATOM     30  N   UNL     1       3.797   1.622  17.984  0.00  0.00    +0.000 NA
ATOM     31  H   UNL     1       4.235   1.884  17.101  0.00  0.00    +0.000 HD
ATOM     32  H   UNL     1       3.220   0.807  17.790  0.00  0.00    +0.000 HD
ENDBRANCH  29  30
BRANCH  29  33
ATOM     33  C   UNL     1       1.626   2.180  19.084  0.00  0.00    +0.000 C 
BRANCH  33  35
ATOM     34  C   UNL     1       1.640   2.672  21.643  0.00  0.00    +0.000 C 
ATOM     35  C   UNL     1       1.080   3.036  20.266  0.00  0.00    +0.000 C 
ENDBRANCH  33  35
ENDBRANCH  29  33
ENDBRANCH  27  29
ENDBRANCH  26  27
ENDBRANCH   1  26
TORSDOF 7
ENDMDL
MODEL 3
REMARK VINA RESULT:      -7.6      1.010      1.055
REMARK  Name = 
REMARK  9 active torsions:
REMARK  status: ('A' for Active; 'I' for Inactive)
REMARK    1  A    between atoms: C_1  and  C_2
REMARK    2  A    between atoms: C_2  and  C_3
REMARK    3  A    between atoms: C_3  and  C_4
REMARK    4  A    between atoms: C_4  and  N_5
REMARK    5  A    between atoms: C_4  and  C_6
REMARK    6  A    between atoms: C_6  and  O_8
REMARK    7  A    between atoms: O_8  and  C_9
REMARK    8  A    between atoms: C_9  and  C_10
REMARK    9  A    between atoms: C_10  and  C_11
REMARK                            x       y       z     vdW  Elec       q    Type
REMARK                         _______ _______ _______ _____ _____    ______ ____
ROOT
ATOM      1  C   UNL     1      -0.487  13.687  21.138  0.00  0.00    +0.000 C 
ATOM      2  C   UNL     1       0.414  15.007  20.972  0.00  0.00    +0.000 C 
ATOM      3  O   UNL     1       0.597  15.888  21.805  0.00  0.00    +0.000 OA
ATOM      4  O   UNL     1       1.088  15.038  19.796  0.00  0.00    +0.000 OA
ATOM      5  C   UNL     1       2.144  14.125  19.948  0.00  0.00    +0.000 C 
ATOM      6  C   UNL     1       1.575  12.760  20.019  0.00  0.00    +0.000 A 
ATOM      7  C   UNL     1       0.501  12.383  20.762  0.00  0.00    +0.000 A 
ATOM      8  C   UNL     1       0.459  10.821  20.967  0.00  0.00    +0.000 A 
ATOM      9  C   UNL     1       1.122   9.954  20.105  0.00  0.00    +0.000 A 
ATOM     10  N   UNL     1       1.665  10.602  18.990  0.00  0.00    +0.000 N 
ATOM     11  C   UNL     1       1.953  11.913  18.874  0.00  0.00    +0.000 A 
ATOM     12  O   UNL     1       2.468  12.398  17.874  0.00  0.00    +0.000 OA
ATOM     13  C   UNL     1       1.989   9.744  17.892  0.00  0.00    +0.000 C 
ATOM     14  C   UNL     1       1.921   8.412  18.485  0.00  0.00    +0.000 A 
ATOM     15  C   UNL     1       2.348   7.283  17.812  0.00  0.00    +0.000 A 
ATOM     16  C   UNL     1       2.508   6.112  18.513  0.00  0.00    +0.000 A 
ATOM     17  C   UNL     1       2.960   4.989  17.781  0.00  0.00    +0.000 A 
ATOM     18  C   UNL     1       3.256   3.806  18.424  0.00  0.00    +0.000 A 
ATOM     19  C   UNL     1       3.108   3.773  19.799  0.00  0.00    +0.000 A 
ATOM     20  C   UNL     1       2.626   4.910  20.509  0.00  0.00    +0.000 A 
ATOM     21  C   UNL     1       2.246   6.145  19.914  0.00  0.00    +0.000 A 
ATOM     22  N   UNL     1       1.711   7.321  20.563  0.00  0.00    +0.000 NA
ATOM     23  C   UNL     1       1.508   8.447  19.822  0.00  0.00    +0.000 A 
ENDROOT
BRANCH   1  24
ATOM     24  C   UNL     1      -1.086  13.994  22.560  0.00  0.00    +0.000 C 
ATOM     25  C   UNL     1      -2.420  14.685  22.748  0.00  0.00    +0.000 C 
ENDBRANCH   1  24
BRANCH   1  26
ATOM     26  O   UNL     1      -1.553  13.732  20.071  0.00  0.00    +0.000 OA
BRANCH  26  27
ATOM     27  C   UNL     1      -2.365  12.652  19.757  0.00  0.00    +0.000 C 
ATOM     28  O   UNL     1      -3.353  12.307  20.400  0.00  0.00    +0.000 OA
BRANCH  27  29
ATOM     29  C   UNL     1      -1.875  11.826  18.482  0.00  0.00    +0.000 C 
BRANCH  29  30
ATOM     30  N   UNL     1      -1.184  12.723  17.535  0.00  0.00    +0.000 NA
ATOM     31  H   UNL     1      -1.716  13.590  17.468  0.00  0.00    +0.000 HD
ATOM     32  H   UNL     1      -1.191  12.306  16.608  0.00  0.00    +0.000 HD
ENDBRANCH  29  30
BRANCH  29  33
ATOM     33  C   UNL     1      -2.988  11.009  17.736  0.00  0.00    +0.000 C 
BRANCH  33  35
ATOM     34  C   UNL     1      -2.918  10.404  15.202  0.00  0.00    +0.000 C 
ATOM     35  C   UNL     1      -2.457  10.060  16.620  0.00  0.00    +0.000 C 
ENDBRANCH  33  35
ENDBRANCH  29  33
ENDBRANCH  27  29
ENDBRANCH  26  27
ENDBRANCH   1  26
TORSDOF 7
ENDMDL
MODEL 4
REMARK VINA RESULT:      -7.4      3.877      8.942
REMARK  Name = 
REMARK  9 active torsions:
REMARK  status: ('A' for Active; 'I' for Inactive)
REMARK    1  A    between atoms: C_1  and  C_2
REMARK    2  A    between atoms: C_2  and  C_3
REMARK    3  A    between atoms: C_3  and  C_4
REMARK    4  A    between atoms: C_4  and  N_5
REMARK    5  A    between atoms: C_4  and  C_6
REMARK    6  A    between atoms: C_6  and  O_8
REMARK    7  A    between atoms: O_8  and  C_9
REMARK    8  A    between atoms: C_9  and  C_10
REMARK    9  A    between atoms: C_10  and  C_11
REMARK                            x       y       z     vdW  Elec       q    Type
REMARK                         _______ _______ _______ _____ _____    ______ ____
ROOT
ATOM      1  C   UNL     1       3.445   4.933  19.767  0.00  0.00    +0.000 C 
ATOM      2  C   UNL     1       3.294   4.275  18.309  0.00  0.00    +0.000 C 
ATOM      3  O   UNL     1       3.079   3.096  18.048  0.00  0.00    +0.000 OA
ATOM      4  O   UNL     1       3.324   5.193  17.313  0.00  0.00    +0.000 OA
ATOM      5  C   UNL     1       2.070   5.824  17.349  0.00  0.00    +0.000 C 
ATOM      6  C   UNL     1       1.985   6.623  18.594  0.00  0.00    +0.000 A 
ATOM      7  C   UNL     1       2.351   6.204  19.834  0.00  0.00    +0.000 A 
ATOM      8  C   UNL     1       1.708   7.101  20.960  0.00  0.00    +0.000 A 
ATOM      9  C   UNL     1       1.264   8.393  20.699  0.00  0.00    +0.000 A 
ATOM     10  N   UNL     1       1.600   8.837  19.414  0.00  0.00    +0.000 N 
ATOM     11  C   UNL     1       1.911   8.073  18.349  0.00  0.00    +0.000 A 
ATOM     12  O   UNL     1       2.153   8.539  17.241  0.00  0.00    +0.000 OA
ATOM     13  C   UNL     1       1.543  10.254  19.232  0.00  0.00    +0.000 C 
ATOM     14  C   UNL     1       0.822  10.709  20.416  0.00  0.00    +0.000 A 
ATOM     15  C   UNL     1       0.381  12.012  20.556  0.00  0.00    +0.000 A 
ATOM     16  C   UNL     1      -0.512  12.307  21.557  0.00  0.00    +0.000 A 
ATOM     17  C   UNL     1      -0.943  13.652  21.648  0.00  0.00    +0.000 A 
ATOM     18  C   UNL     1      -1.923  14.014  22.548  0.00  0.00    +0.000 A 
ATOM     19  C   UNL     1      -2.468  13.015  23.333  0.00  0.00    +0.000 A 
ATOM     20  C   UNL     1      -1.998  11.673  23.240  0.00  0.00    +0.000 A 
ATOM     21  C   UNL     1      -0.955  11.231  22.380  0.00  0.00    +0.000 A 
ATOM     22  N   UNL     1      -0.399   9.902  22.263  0.00  0.00    +0.000 NA
ATOM     23  C   UNL     1       0.532   9.661  21.297  0.00  0.00    +0.000 A 
ENDROOT
BRANCH   1  24
ATOM     24  C   UNL     1       3.364   3.617  20.624  0.00  0.00    +0.000 C 
ATOM     25  C   UNL     1       2.129   3.234  21.412  0.00  0.00    +0.000 C 
ENDBRANCH   1  24
BRANCH   1  26
ATOM     26  O   UNL     1       4.819   5.553  19.840  0.00  0.00    +0.000 OA
BRANCH  26  27
ATOM     27  C   UNL     1       5.852   5.224  18.975  0.00  0.00    +0.000 C 
ATOM     28  O   UNL     1       6.456   4.155  18.979  0.00  0.00    +0.000 OA
BRANCH  27  29
ATOM     29  C   UNL     1       6.251   6.398  17.970  0.00  0.00    +0.000 C 
BRANCH  29  30
ATOM     30  N   UNL     1       6.102   5.940  16.575  0.00  0.00    +0.000 NA
ATOM     31  H   UNL     1       5.888   6.750  15.992  0.00  0.00    +0.000 HD
ATOM     32  H   UNL     1       5.301   5.317  16.508  0.00  0.00    +0.000 HD
ENDBRANCH  29  30
BRANCH  29  33
ATOM     33  C   UNL     1       7.677   7.017  18.184  0.00  0.00    +0.000 C 
BRANCH  33  35
ATOM     34  C   UNL     1       8.643   9.423  18.452  0.00  0.00    +0.000 C 
ATOM     35  C   UNL     1       7.864   8.440  17.576  0.00  0.00    +0.000 C 
ENDBRANCH  33  35
ENDBRANCH  29  33
ENDBRANCH  27  29
ENDBRANCH  26  27
ENDBRANCH   1  26
TORSDOF 7
ENDMDL
MODEL 5
REMARK VINA RESULT:      -7.3      1.017      1.391
REMARK  Name = 
REMARK  9 active torsions:
REMARK  status: ('A' for Active; 'I' for Inactive)
REMARK    1  A    between atoms: C_1  and  C_2
REMARK    2  A    between atoms: C_2  and  C_3
REMARK    3  A    between atoms: C_3  and  C_4
REMARK    4  A    between atoms: C_4  and  N_5
REMARK    5  A    between atoms: C_4  and  C_6
REMARK    6  A    between atoms: C_6  and  O_8
REMARK    7  A    between atoms: O_8  and  C_9
REMARK    8  A    between atoms: C_9  and  C_10
REMARK    9  A    between atoms: C_10  and  C_11
REMARK                            x       y       z     vdW  Elec       q    Type
REMARK                         _______ _______ _______ _____ _____    ______ ____
ROOT
ATOM      1  C   UNL     1      -1.561  12.492  20.877  0.00  0.00    +0.000 C 
ATOM      2  C   UNL     1      -0.974  13.974  21.074  0.00  0.00    +0.000 C 
ATOM      3  O   UNL     1      -1.154  14.721  22.031  0.00  0.00    +0.000 OA
ATOM      4  O   UNL     1      -0.121  14.338  20.085  0.00  0.00    +0.000 OA
ATOM      5  C   UNL     1       1.070  13.642  20.346  0.00  0.00    +0.000 C 
ATOM      6  C   UNL     1       0.828  12.199  20.122  0.00  0.00    +0.000 A 
ATOM      7  C   UNL     1      -0.248  11.495  20.564  0.00  0.00    +0.000 A 
ATOM      8  C   UNL     1       0.035   9.944  20.559  0.00  0.00    +0.000 A 
ATOM      9  C   UNL     1       1.026   9.385  19.759  0.00  0.00    +0.000 A 
ATOM     10  N   UNL     1       1.600  10.307  18.876  0.00  0.00    +0.000 N 
ATOM     11  C   UNL     1       1.594  11.650  18.989  0.00  0.00    +0.000 A 
ATOM     12  O   UNL     1       2.158  12.390  18.192  0.00  0.00    +0.000 OA
ATOM     13  C   UNL     1       2.307   9.729  17.777  0.00  0.00    +0.000 C 
ATOM     14  C   UNL     1       2.441   8.330  18.171  0.00  0.00    +0.000 A 
ATOM     15  C   UNL     1       3.232   7.438  17.470  0.00  0.00    +0.000 A 
ATOM     16  C   UNL     1       3.526   6.223  18.038  0.00  0.00    +0.000 A 
ATOM     17  C   UNL     1       4.351   5.352  17.287  0.00  0.00    +0.000 A 
ATOM     18  C   UNL     1       4.788   4.161  17.827  0.00  0.00    +0.000 A 
ATOM     19  C   UNL     1       4.403   3.869  19.122  0.00  0.00    +0.000 A 
ATOM     20  C   UNL     1       3.550   4.750  19.847  0.00  0.00    +0.000 A 
ATOM     21  C   UNL     1       3.012   5.966  19.343  0.00  0.00    +0.000 A 
ATOM     22  N   UNL     1       2.111   6.885  20.003  0.00  0.00    +0.000 NA
ATOM     23  C   UNL     1       1.793   8.055  19.381  0.00  0.00    +0.000 A 
ENDROOT
BRANCH   1  24
ATOM     24  C   UNL     1      -2.464  12.430  22.163  0.00  0.00    +0.000 C 
ATOM     25  C   UNL     1      -2.124  11.559  23.354  0.00  0.00    +0.000 C 
ENDBRANCH   1  24
BRANCH   1  26
ATOM     26  O   UNL     1      -2.395  12.502  19.620  0.00  0.00    +0.000 OA
BRANCH  26  27
ATOM     27  C   UNL     1      -1.927  12.063  18.390  0.00  0.00    +0.000 C 
ATOM     28  O   UNL     1      -1.202  12.713  17.642  0.00  0.00    +0.000 OA
BRANCH  27  29
ATOM     29  C   UNL     1      -2.461  10.617  17.975  0.00  0.00    +0.000 C 
BRANCH  29  30
ATOM     30  N   UNL     1      -1.425   9.897  17.208  0.00  0.00    +0.000 NA
ATOM     31  H   UNL     1      -0.510  10.202  17.542  0.00  0.00    +0.000 HD
ATOM     32  H   UNL     1      -1.480  10.167  16.229  0.00  0.00    +0.000 HD
ENDBRANCH  29  30
BRANCH  29  33
ATOM     33  C   UNL     1      -3.822  10.595  17.193  0.00  0.00    +0.000 C 
BRANCH  33  35
ATOM     34  C   UNL     1      -6.204  11.051  18.145  0.00  0.00    +0.000 C 
ATOM     35  C   UNL     1      -4.868  11.639  17.685  0.00  0.00    +0.000 C 
ENDBRANCH  33  35
ENDBRANCH  29  33
ENDBRANCH  27  29
ENDBRANCH  26  27
ENDBRANCH   1  26
TORSDOF 7
ENDMDL
MODEL 6
REMARK VINA RESULT:      -7.2      1.955      3.018
REMARK  Name = 
REMARK  9 active torsions:
REMARK  status: ('A' for Active; 'I' for Inactive)
REMARK    1  A    between atoms: C_1  and  C_2
REMARK    2  A    between atoms: C_2  and  C_3
REMARK    3  A    between atoms: C_3  and  C_4
REMARK    4  A    between atoms: C_4  and  N_5
REMARK    5  A    between atoms: C_4  and  C_6
REMARK    6  A    between atoms: C_6  and  O_8
REMARK    7  A    between atoms: O_8  and  C_9
REMARK    8  A    between atoms: C_9  and  C_10
REMARK    9  A    between atoms: C_10  and  C_11
REMARK                            x       y       z     vdW  Elec       q    Type
REMARK                         _______ _______ _______ _____ _____    ______ ____
ROOT
ATOM      1  C   UNL     1      -3.892  14.076  22.600  0.00  0.00    +0.000 C 
ATOM      2  C   UNL     1      -3.501  15.608  22.879  0.00  0.00    +0.000 C 
ATOM      3  O   UNL     1      -3.660  16.236  23.921  0.00  0.00    +0.000 OA
ATOM      4  O   UNL     1      -2.842  16.179  21.841  0.00  0.00    +0.000 OA
ATOM      5  C   UNL     1      -1.540  15.654  21.892  0.00  0.00    +0.000 C 
ATOM      6  C   UNL     1      -1.603  14.215  21.551  0.00  0.00    +0.000 A 
ATOM      7  C   UNL     1      -2.503  13.320  22.039  0.00  0.00    +0.000 A 
ATOM      8  C   UNL     1      -2.007  11.837  21.843  0.00  0.00    +0.000 A 
ATOM      9  C   UNL     1      -1.058  11.505  20.883  0.00  0.00    +0.000 A 
ATOM     10  N   UNL     1      -0.738  12.575  20.039  0.00  0.00    +0.000 N 
ATOM     11  C   UNL     1      -0.919  13.887  20.288  0.00  0.00    +0.000 A 
ATOM     12  O   UNL     1      -0.572  14.769  19.511  0.00  0.00    +0.000 OA
ATOM     13  C   UNL     1      -0.102  12.207  18.812  0.00  0.00    +0.000 C 
ATOM     14  C   UNL     1       0.277  10.816  19.043  0.00  0.00    +0.000 A 
ATOM     15  C   UNL     1       1.090  10.118  18.170  0.00  0.00    +0.000 A 
ATOM     16  C   UNL     1       1.623   8.918  18.573  0.00  0.00    +0.000 A 
ATOM     17  C   UNL     1       2.459   8.250  17.647  0.00  0.00    +0.000 A 
ATOM     18  C   UNL     1       3.126   7.098  18.009  0.00  0.00    +0.000 A 
ATOM     19  C   UNL     1       2.955   6.643  19.304  0.00  0.00    +0.000 A 
ATOM     20  C   UNL     1       2.086   7.319  20.208  0.00  0.00    +0.000 A 
ATOM     21  C   UNL     1       1.321   8.477  19.895  0.00  0.00    +0.000 A 
ATOM     22  N   UNL     1       0.392   9.188  20.744  0.00  0.00    +0.000 NA
ATOM     23  C   UNL     1      -0.165  10.345  20.285  0.00  0.00    +0.000 A 
ENDROOT
BRANCH   1  24
ATOM     24  C   UNL     1      -4.606  13.768  23.968  0.00  0.00    +0.000 C 
ATOM     25  C   UNL     1      -4.334  12.507  24.761  0.00  0.00    +0.000 C 
ENDBRANCH   1  24
BRANCH   1  26
ATOM     26  O   UNL     1      -4.874  14.064  21.454  0.00  0.00    +0.000 OA
BRANCH  26  27
ATOM     27  C   UNL     1      -5.296  12.903  20.822  0.00  0.00    +0.000 C 
ATOM     28  O   UNL     1      -5.907  11.989  21.370  0.00  0.00    +0.000 OA
BRANCH  27  29
ATOM     29  C   UNL     1      -4.869  12.811  19.287  0.00  0.00    +0.000 C 
BRANCH  29  30
ATOM     30  N   UNL     1      -5.885  13.468  18.441  0.00  0.00    +0.000 NA
ATOM     31  H   UNL     1      -6.726  12.891  18.443  0.00  0.00    +0.000 HD
ATOM     32  H   UNL     1      -5.557  13.498  17.479  0.00  0.00    +0.000 HD
ENDBRANCH  29  30
BRANCH  29  33
ATOM     33  C   UNL     1      -4.573  11.367  18.750  0.00  0.00    +0.000 C 
BRANCH  33  35
ATOM     34  C   UNL     1      -2.976   9.853  17.356  0.00  0.00    +0.000 C 
ATOM     35  C   UNL     1      -3.361  11.273  17.776  0.00  0.00    +0.000 C 
ENDBRANCH  33  35
ENDBRANCH  29  33
ENDBRANCH  27  29
ENDBRANCH  26  27
ENDBRANCH   1  26
TORSDOF 7
ENDMDL
MODEL 7
REMARK VINA RESULT:      -7.2      1.325      1.791
REMARK  Name = 
REMARK  9 active torsions:
REMARK  status: ('A' for Active; 'I' for Inactive)
REMARK    1  A    between atoms: C_1  and  C_2
REMARK    2  A    between atoms: C_2  and  C_3
REMARK    3  A    between atoms: C_3  and  C_4
REMARK    4  A    between atoms: C_4  and  N_5
REMARK    5  A    between atoms: C_4  and  C_6
REMARK    6  A    between atoms: C_6  and  O_8
REMARK    7  A    between atoms: O_8  and  C_9
REMARK    8  A    between atoms: C_9  and  C_10
REMARK    9  A    between atoms: C_10  and  C_11
REMARK                            x       y       z     vdW  Elec       q    Type
REMARK                         _______ _______ _______ _____ _____    ______ ____
ROOT
ATOM      1  C   UNL     1      -0.741  11.492  21.643  0.00  0.00    +0.000 C 
ATOM      2  C   UNL     1      -0.055  12.935  21.479  0.00  0.00    +0.000 C 
ATOM      3  O   UNL     1       0.072  13.797  22.342  0.00  0.00    +0.000 OA
ATOM      4  O   UNL     1       0.504  13.114  20.257  0.00  0.00    +0.000 OA
ATOM      5  C   UNL     1       1.688  12.360  20.275  0.00  0.00    +0.000 C 
ATOM      6  C   UNL     1       1.327  10.924  20.315  0.00  0.00    +0.000 A 
ATOM      7  C   UNL     1       0.385  10.363  21.119  0.00  0.00    +0.000 A 
ATOM      8  C   UNL     1       0.584   8.804  21.240  0.00  0.00    +0.000 A 
ATOM      9  C   UNL     1       1.287   8.081  20.283  0.00  0.00    +0.000 A 
ATOM     10  N   UNL     1       1.634   8.849  19.165  0.00  0.00    +0.000 N 
ATOM     11  C   UNL     1       1.721  10.192  19.099  0.00  0.00    +0.000 A 
ATOM     12  O   UNL     1       2.075  10.789  18.089  0.00  0.00    +0.000 OA
ATOM     13  C   UNL     1       1.980   8.095  18.000  0.00  0.00    +0.000 C 
ATOM     14  C   UNL     1       2.154   6.743  18.523  0.00  0.00    +0.000 A 
ATOM     15  C   UNL     1       2.677   5.718  17.757  0.00  0.00    +0.000 A 
ATOM     16  C   UNL     1       3.061   4.555  18.378  0.00  0.00    +0.000 A 
ATOM     17  C   UNL     1       3.604   3.541  17.552  0.00  0.00    +0.000 A 
ATOM     18  C   UNL     1       4.119   2.388  18.105  0.00  0.00    +0.000 A 
ATOM     19  C   UNL     1       4.096   2.276  19.483  0.00  0.00    +0.000 A 
ATOM     20  C   UNL     1       3.520   3.299  20.290  0.00  0.00    +0.000 A 
ATOM     21  C   UNL     1       2.919   4.489  19.795  0.00  0.00    +0.000 A 
ATOM     22  N   UNL     1       2.280   5.545  20.548  0.00  0.00    +0.000 NA
ATOM     23  C   UNL     1       1.856   6.660  19.888  0.00  0.00    +0.000 A 
ENDROOT
BRANCH   1  24
ATOM     24  C   UNL     1      -1.253  11.647  23.122  0.00  0.00    +0.000 C 
ATOM     25  C   UNL     1      -2.692  11.982  23.453  0.00  0.00    +0.000 C 
ENDBRANCH   1  24
BRANCH   1  26
ATOM     26  O   UNL     1      -1.891  11.426  20.667  0.00  0.00    +0.000 OA
BRANCH  26  27
ATOM     27  C   UNL     1      -2.105  12.372  19.675  0.00  0.00    +0.000 C 
ATOM     28  O   UNL     1      -2.626  13.470  19.853  0.00  0.00    +0.000 OA
BRANCH  27  29
ATOM     29  C   UNL     1      -1.657  11.893  18.220  0.00  0.00    +0.000 C 
BRANCH  29  30
ATOM     30  N   UNL     1      -0.898  12.966  17.547  0.00  0.00    +0.000 NA
ATOM     31  H   UNL     1      -0.285  13.405  18.234  0.00  0.00    +0.000 HD
ATOM     32  H   UNL     1      -1.541  13.687  17.231  0.00  0.00    +0.000 HD
ENDBRANCH  29  30
BRANCH  29  33
ATOM     33  C   UNL     1      -2.813  11.385  17.288  0.00  0.00    +0.000 C 
BRANCH  33  35
ATOM     34  C   UNL     1      -2.954  10.140  15.003  0.00  0.00    +0.000 C 
ATOM     35  C   UNL     1      -2.461  10.118  16.451  0.00  0.00    +0.000 C 
ENDBRANCH  33  35
ENDBRANCH  29  33
ENDBRANCH  27  29
ENDBRANCH  26  27
ENDBRANCH   1  26
TORSDOF 7
ENDMDL
MODEL 8
REMARK VINA RESULT:      -7.2      1.115      1.447
REMARK  Name = 
REMARK  9 active torsions:
REMARK  status: ('A' for Active; 'I' for Inactive)
REMARK    1  A    between atoms: C_1  and  C_2
REMARK    2  A    between atoms: C_2  and  C_3
REMARK    3  A    between atoms: C_3  and  C_4
REMARK    4  A    between atoms: C_4  and  N_5
REMARK    5  A    between atoms: C_4  and  C_6
REMARK    6  A    between atoms: C_6  and  O_8
REMARK    7  A    between atoms: O_8  and  C_9
REMARK    8  A    between atoms: C_9  and  C_10
REMARK    9  A    between atoms: C_10  and  C_11
REMARK                            x       y       z     vdW  Elec       q    Type
REMARK                         _______ _______ _______ _____ _____    ______ ____
ROOT
ATOM      1  C   UNL     1      -0.830  12.737  19.856  0.00  0.00    +0.000 C 
ATOM      2  C   UNL     1       0.048  14.073  19.703  0.00  0.00    +0.000 C 
ATOM      3  O   UNL     1       0.024  15.062  20.428  0.00  0.00    +0.000 OA
ATOM      4  O   UNL     1       0.958  13.992  18.701  0.00  0.00    +0.000 OA
ATOM      5  C   UNL     1       1.982  13.167  19.194  0.00  0.00    +0.000 C 
ATOM      6  C   UNL     1       1.448  11.792  19.329  0.00  0.00    +0.000 A 
ATOM      7  C   UNL     1       0.251  11.453  19.876  0.00  0.00    +0.000 A 
ATOM      8  C   UNL     1       0.209   9.930  20.279  0.00  0.00    +0.000 A 
ATOM      9  C   UNL     1       1.066   8.998  19.701  0.00  0.00    +0.000 A 
ATOM     10  N   UNL     1       1.817   9.529  18.646  0.00  0.00    +0.000 N 
ATOM     11  C   UNL     1       2.087  10.828  18.415  0.00  0.00    +0.000 A 
ATOM     12  O   UNL     1       2.791  11.210  17.488  0.00  0.00    +0.000 OA
ATOM     13  C   UNL     1       2.392   8.558  17.768  0.00  0.00    +0.000 C 
ATOM     14  C   UNL     1       2.236   7.310  18.510  0.00  0.00    +0.000 A 
ATOM     15  C   UNL     1       2.828   6.130  18.102  0.00  0.00    +0.000 A 
ATOM     16  C   UNL     1       2.866   5.069  18.973  0.00  0.00    +0.000 A 
ATOM     17  C   UNL     1       3.496   3.888  18.512  0.00  0.00    +0.000 A 
ATOM     18  C   UNL     1       3.679   2.815  19.358  0.00  0.00    +0.000 A 
ATOM     19  C   UNL     1       3.241   2.950  20.663  0.00  0.00    +0.000 A 
ATOM     20  C   UNL     1       2.586   4.140  21.094  0.00  0.00    +0.000 A 
ATOM     21  C   UNL     1       2.309   5.266  20.271  0.00  0.00    +0.000 A 
ATOM     22  N   UNL     1       1.615   6.482  20.627  0.00  0.00    +0.000 NA
ATOM     23  C   UNL     1       1.544   7.492  19.713  0.00  0.00    +0.000 A 
ENDROOT
BRANCH   1  24
ATOM     24  C   UNL     1      -1.728  13.189  21.065  0.00  0.00    +0.000 C 
ATOM     25  C   UNL     1      -1.737  12.456  22.390  0.00  0.00    +0.000 C 
ENDBRANCH   1  24
BRANCH   1  26
ATOM     26  O   UNL     1      -1.643  12.586  18.594  0.00  0.00    +0.000 OA
BRANCH  26  27
ATOM     27  C   UNL     1      -2.773  11.786  18.504  0.00  0.00    +0.000 C 
ATOM     28  O   UNL     1      -3.767  11.894  19.218  0.00  0.00    +0.000 OA
BRANCH  27  29
ATOM     29  C   UNL     1      -2.665  10.637  17.402  0.00  0.00    +0.000 C 
BRANCH  29  30
ATOM     30  N   UNL     1      -1.247  10.328  17.134  0.00  0.00    +0.000 NA
ATOM     31  H   UNL     1      -0.739  11.207  17.037  0.00  0.00    +0.000 HD
ATOM     32  H   UNL     1      -1.168   9.849  16.241  0.00  0.00    +0.000 HD
ENDBRANCH  29  30
BRANCH  29  33
ATOM     33  C   UNL     1      -3.419  10.917  16.055  0.00  0.00    +0.000 C 
BRANCH  33  35
ATOM     34  C   UNL     1      -3.923  10.049  13.650  0.00  0.00    +0.000 C 
ATOM     35  C   UNL     1      -3.012   9.981  14.878  0.00  0.00    +0.000 C 
ENDBRANCH  33  35
ENDBRANCH  29  33
ENDBRANCH  27  29
ENDBRANCH  26  27
ENDBRANCH   1  26
TORSDOF 7
ENDMDL
MODEL 9
REMARK VINA RESULT:      -7.1      0.782      1.079
REMARK  Name = 
REMARK  9 active torsions:
REMARK  status: ('A' for Active; 'I' for Inactive)
REMARK    1  A    between atoms: C_1  and  C_2
REMARK    2  A    between atoms: C_2  and  C_3
REMARK    3  A    between atoms: C_3  and  C_4
REMARK    4  A    between atoms: C_4  and  N_5
REMARK    5  A    between atoms: C_4  and  C_6
REMARK    6  A    between atoms: C_6  and  O_8
REMARK    7  A    between atoms: O_8  and  C_9
REMARK    8  A    between atoms: C_9  and  C_10
REMARK    9  A    between atoms: C_10  and  C_11
REMARK                            x       y       z     vdW  Elec       q    Type
REMARK                         _______ _______ _______ _____ _____    ______ ____
ROOT
ATOM      1  C   UNL     1      -1.283  13.364  21.013  0.00  0.00    +0.000 C 
ATOM      2  C   UNL     1      -0.526  14.780  21.075  0.00  0.00    +0.000 C 
ATOM      3  O   UNL     1      -0.565  15.601  21.985  0.00  0.00    +0.000 OA
ATOM      4  O   UNL     1       0.300  14.981  20.018  0.00  0.00    +0.000 OA
ATOM      5  C   UNL     1       1.421  14.173  20.264  0.00  0.00    +0.000 C 
ATOM      6  C   UNL     1       1.009  12.755  20.154  0.00  0.00    +0.000 A 
ATOM      7  C   UNL     1      -0.109  12.207  20.700  0.00  0.00    +0.000 A 
ATOM      8  C   UNL     1       0.001  10.637  20.788  0.00  0.00    +0.000 A 
ATOM      9  C   UNL     1       0.875   9.919  19.978  0.00  0.00    +0.000 A 
ATOM     10  N   UNL     1       1.492  10.713  19.004  0.00  0.00    +0.000 N 
ATOM     11  C   UNL     1       1.640  12.052  19.024  0.00  0.00    +0.000 A 
ATOM     12  O   UNL     1       2.233  12.671  18.148  0.00  0.00    +0.000 OA
ATOM     13  C   UNL     1       2.065   9.990  17.911  0.00  0.00    +0.000 C 
ATOM     14  C   UNL     1       2.068   8.613  18.394  0.00  0.00    +0.000 A 
ATOM     15  C   UNL     1       2.713   7.594  17.717  0.00  0.00    +0.000 A 
ATOM     16  C   UNL     1       2.905   6.392  18.352  0.00  0.00    +0.000 A 
ATOM     17  C   UNL     1       3.583   5.387  17.620  0.00  0.00    +0.000 A 
ATOM     18  C   UNL     1       3.919   4.191  18.218  0.00  0.00    +0.000 A 
ATOM     19  C   UNL     1       3.583   4.027  19.549  0.00  0.00    +0.000 A 
ATOM     20  C   UNL     1       2.877   5.044  20.255  0.00  0.00    +0.000 A 
ATOM     21  C   UNL     1       2.446   6.278  19.697  0.00  0.00    +0.000 A 
ATOM     22  N   UNL     1       1.692   7.333  20.337  0.00  0.00    +0.000 NA
ATOM     23  C   UNL     1       1.468   8.490  19.653  0.00  0.00    +0.000 A 
ENDROOT
BRANCH   1  24
ATOM     24  C   UNL     1      -2.109  13.486  22.346  0.00  0.00    +0.000 C 
ATOM     25  C   UNL     1      -2.376  12.300  23.248  0.00  0.00    +0.000 C 
ENDBRANCH   1  24
BRANCH   1  26
ATOM     26  O   UNL     1      -2.185  13.389  19.803  0.00  0.00    +0.000 OA
BRANCH  26  27
ATOM     27  C   UNL     1      -3.040  12.349  19.467  0.00  0.00    +0.000 C 
ATOM     28  O   UNL     1      -3.990  11.974  20.147  0.00  0.00    +0.000 OA
BRANCH  27  29
ATOM     29  C   UNL     1      -2.652  11.611  18.105  0.00  0.00    +0.000 C 
BRANCH  29  30
ATOM     30  N   UNL     1      -1.526  12.310  17.456  0.00  0.00    +0.000 NA
ATOM     31  H   UNL     1      -0.664  11.817  17.690  0.00  0.00    +0.000 HD
ATOM     32  H   UNL     1      -1.439  13.245  17.845  0.00  0.00    +0.000 HD
ENDBRANCH  29  30
BRANCH  29  33
ATOM     33  C   UNL     1      -3.826  11.415  17.083  0.00  0.00    +0.000 C 
BRANCH  33  35
ATOM     34  C   UNL     1      -6.127  12.621  17.291  0.00  0.00    +0.000 C 
ATOM     35  C   UNL     1      -5.249  11.442  17.717  0.00  0.00    +0.000 C 
ENDBRANCH  33  35
ENDBRANCH  29  33
ENDBRANCH  27  29
ENDBRANCH  26  27
ENDBRANCH   1  26
TORSDOF 7
ENDMDL
