MODEL 1
REMARK VINA RESULT:      -7.5      0.000      0.000
REMARK  Name = 
REMARK  6 active torsions:
REMARK  status: ('A' for Active; 'I' for Inactive)
REMARK    1  A    between atoms: C_1  and  C_2
REMARK    2  A    between atoms: C_4  and  O_5
REMARK    3  A    between atoms: O_5  and  C_6
REMARK    4  A    between atoms: C_6  and  C_7
REMARK    5  A    between atoms: C_13  and  C_14
REMARK    6  A    between atoms: C_20  and  N_21
REMARK                            x       y       z     vdW  Elec       q    Type
REMARK                         _______ _______ _______ _____ _____    ______ ____
ROOT
ATOM      1  C   UNL     1       4.524   5.315  19.266  0.00  0.00    +0.000 C 
ENDROOT
BRANCH   1   2
ATOM      2  C   UNL     1       4.849   4.876  17.836  0.00  0.00    +0.000 C 
ATOM      3  O   UNL     1       4.205   3.973  17.302  0.00  0.00    +0.000 OA
ATOM      4  N   UNL     1       5.891   5.569  17.250  0.00  0.00    +0.000 N 
ATOM      5  C   UNL     1       6.304   5.324  15.957  0.00  0.00    +0.000 A 
ATOM      6  N   UNL     1       7.493   5.635  15.495  0.00  0.00    +0.000 NA
ATOM      7  N   UNL     1       7.676   5.158  14.205  0.00  0.00    +0.000 NA
ATOM      8  C   UNL     1       6.587   4.597  13.719  0.00  0.00    +0.000 A 
ATOM      9  S   UNL     1       5.257   4.645  14.782  0.00  0.00    +0.000 S 
ATOM     10  H   UNL     1       6.597   5.961  17.860  0.00  0.00    +0.000 HD
BRANCH   8  11
ATOM     11  C   UNL     1       6.525   3.958  12.337  0.00  0.00    +0.000 C 
ATOM     12  C   UNL     1       6.374   2.447  12.233  0.00  0.00    +0.000 C 
ATOM     13  C   UNL     1       5.231   3.326  11.864  0.00  0.00    +0.000 C 
ENDBRANCH   8  11
ENDBRANCH   1   2
BRANCH   1  14
ATOM     14  O   UNL     1       3.112   5.450  19.415  0.00  0.00    +0.000 OA
BRANCH  14  18
ATOM     15  C   UNL     1       0.768   9.008  21.672  0.00  0.00    +0.000 C 
ATOM     16  C   UNL     1       1.351   8.507  20.376  0.00  0.00    +0.000 A 
ATOM     17  C   UNL     1       1.977   7.239  20.382  0.00  0.00    +0.000 A 
ATOM     18  C   UNL     1       2.553   6.682  19.231  0.00  0.00    +0.000 A 
ATOM     19  C   UNL     1       2.511   7.399  18.040  0.00  0.00    +0.000 A 
ATOM     20  C   UNL     1       1.895   8.657  18.003  0.00  0.00    +0.000 A 
ATOM     21  C   UNL     1       1.316   9.218  19.155  0.00  0.00    +0.000 A 
BRANCH  21  22
ATOM     22  N   UNL     1       0.686  10.555  19.040  0.00  0.00    +0.000 N 
ATOM     23  O   UNL     1      -0.473  10.636  18.655  0.00  0.00    +0.000 OA
ATOM     24  O   UNL     1       1.382  11.547  19.351  0.00  0.00    +0.000 OA
ENDBRANCH  21  22
ENDBRANCH  14  18
ENDBRANCH   1  14
TORSDOF 5
ENDMDL
MODEL 2
REMARK VINA RESULT:      -7.4      3.387      4.077
REMARK  Name = 
REMARK  6 active torsions:
REMARK  status: ('A' for Active; 'I' for Inactive)
REMARK    1  A    between atoms: C_1  and  C_2
REMARK    2  A    between atoms: C_4  and  O_5
REMARK    3  A    between atoms: O_5  and  C_6
REMARK    4  A    between atoms: C_6  and  C_7
REMARK    5  A    between atoms: C_13  and  C_14
REMARK    6  A    between atoms: C_20  and  N_21
REMARK                            x       y       z     vdW  Elec       q    Type
REMARK                         _______ _______ _______ _____ _____    ______ ____
ROOT
ATOM      1  C   UNL     1       7.200   5.503  18.011  0.00  0.00    +0.000 C 
ENDROOT
BRANCH   1   2
ATOM      2  C   UNL     1       7.034   4.814  16.653  0.00  0.00    +0.000 C 
ATOM      3  O   UNL     1       6.609   3.662  16.590  0.00  0.00    +0.000 OA
ATOM      4  N   UNL     1       7.401   5.592  15.572  0.00  0.00    +0.000 N 
ATOM      5  C   UNL     1       7.295   5.144  14.272  0.00  0.00    +0.000 A 
ATOM      6  N   UNL     1       7.977   5.641  13.266  0.00  0.00    +0.000 NA
ATOM      7  N   UNL     1       7.766   4.915  12.102  0.00  0.00    +0.000 NA
ATOM      8  C   UNL     1       6.864   3.967  12.260  0.00  0.00    +0.000 A 
ATOM      9  S   UNL     1       6.185   3.919  13.821  0.00  0.00    +0.000 S 
ATOM     10  H   UNL     1       8.099   6.310  15.723  0.00  0.00    +0.000 HD
BRANCH   8  11
ATOM     11  C   UNL     1       6.470   2.999  11.151  0.00  0.00    +0.000 C 
ATOM     12  C   UNL     1       7.148   1.638  11.091  0.00  0.00    +0.000 C 
ATOM     13  C   UNL     1       5.720   1.729  11.500  0.00  0.00    +0.000 C 
ENDBRANCH   8  11
ENDBRANCH   1   2
BRANCH   1  14
ATOM     14  O   UNL     1       6.070   6.335  18.265  0.00  0.00    +0.000 OA
BRANCH  14  18
ATOM     15  C   UNL     1       3.827   2.624  20.374  0.00  0.00    +0.000 C 
ATOM     16  C   UNL     1       3.694   3.845  19.502  0.00  0.00    +0.000 A 
ATOM     17  C   UNL     1       4.864   4.589  19.227  0.00  0.00    +0.000 A 
ATOM     18  C   UNL     1       4.850   5.742  18.429  0.00  0.00    +0.000 A 
ATOM     19  C   UNL     1       3.644   6.175  17.889  0.00  0.00    +0.000 A 
ATOM     20  C   UNL     1       2.467   5.458  18.143  0.00  0.00    +0.000 A 
ATOM     21  C   UNL     1       2.478   4.301  18.942  0.00  0.00    +0.000 A 
BRANCH  21  22
ATOM     22  N   UNL     1       1.194   3.596  19.169  0.00  0.00    +0.000 N 
ATOM     23  O   UNL     1       0.543   3.853  20.173  0.00  0.00    +0.000 OA
ATOM     24  O   UNL     1       0.835   2.763  18.306  0.00  0.00    +0.000 OA
ENDBRANCH  21  22
ENDBRANCH  14  18
ENDBRANCH   1  14
TORSDOF 5
ENDMDL
MODEL 3
REMARK VINA RESULT:      -7.4      3.551      9.318
REMARK  Name = 
REMARK  6 active torsions:
REMARK  status: ('A' for Active; 'I' for Inactive)
REMARK    1  A    between atoms: C_1  and  C_2
REMARK    2  A    between atoms: C_4  and  O_5
REMARK    3  A    between atoms: O_5  and  C_6
REMARK    4  A    between atoms: C_6  and  C_7
REMARK    5  A    between atoms: C_13  and  C_14
REMARK    6  A    between atoms: C_20  and  N_21
REMARK                            x       y       z     vdW  Elec       q    Type
REMARK                         _______ _______ _______ _____ _____    ______ ____
ROOT
ATOM      1  C   UNL     1       2.451   6.780  19.828  0.00  0.00    +0.000 C 
ENDROOT
BRANCH   1   2
ATOM      2  C   UNL     1       1.667   8.058  20.139  0.00  0.00    +0.000 C 
ATOM      3  O   UNL     1       1.445   8.883  19.254  0.00  0.00    +0.000 OA
ATOM      4  N   UNL     1       1.264   8.171  21.456  0.00  0.00    +0.000 N 
ATOM      5  C   UNL     1       0.526   9.244  21.911  0.00  0.00    +0.000 A 
ATOM      6  N   UNL     1       0.463   9.610  23.170  0.00  0.00    +0.000 NA
ATOM      7  N   UNL     1      -0.247  10.794  23.319  0.00  0.00    +0.000 NA
ATOM      8  C   UNL     1      -0.768  11.211  22.183  0.00  0.00    +0.000 A 
ATOM      9  S   UNL     1      -0.462  10.176  20.866  0.00  0.00    +0.000 S 
ATOM     10  H   UNL     1       1.819   7.702  22.161  0.00  0.00    +0.000 HD
BRANCH   8  11
ATOM     11  C   UNL     1      -1.564  12.505  22.058  0.00  0.00    +0.000 C 
ATOM     12  C   UNL     1      -0.912  13.705  21.387  0.00  0.00    +0.000 C 
ATOM     13  C   UNL     1      -2.007  12.978  20.688  0.00  0.00    +0.000 C 
ENDBRANCH   8  11
ENDBRANCH   1   2
BRANCH   1  14
ATOM     14  O   UNL     1       2.480   6.571  18.417  0.00  0.00    +0.000 OA
BRANCH  14  18
ATOM     15  C   UNL     1       7.076   7.507  17.301  0.00  0.00    +0.000 C 
ATOM     16  C   UNL     1       5.956   6.499  17.285  0.00  0.00    +0.000 A 
ATOM     17  C   UNL     1       4.710   6.890  17.826  0.00  0.00    +0.000 A 
ATOM     18  C   UNL     1       3.604   6.029  17.863  0.00  0.00    +0.000 A 
ATOM     19  C   UNL     1       3.734   4.742  17.352  0.00  0.00    +0.000 A 
ATOM     20  C   UNL     1       4.956   4.326  16.807  0.00  0.00    +0.000 A 
ATOM     21  C   UNL     1       6.067   5.187  16.769  0.00  0.00    +0.000 A 
BRANCH  21  22
ATOM     22  N   UNL     1       7.327   4.676  16.181  0.00  0.00    +0.000 N 
ATOM     23  O   UNL     1       8.150   4.138  16.910  0.00  0.00    +0.000 OA
ATOM     24  O   UNL     1       7.486   4.821  14.947  0.00  0.00    +0.000 OA
ENDBRANCH  21  22
ENDBRANCH  14  18
ENDBRANCH   1  14
TORSDOF 5
ENDMDL
MODEL 4
REMARK VINA RESULT:      -7.3      4.197      9.244
REMARK  Name = 
REMARK  6 active torsions:
REMARK  status: ('A' for Active; 'I' for Inactive)
REMARK    1  A    between atoms: C_1  and  C_2
REMARK    2  A    between atoms: C_4  and  O_5
REMARK    3  A    between atoms: O_5  and  C_6
REMARK    4  A    between atoms: C_6  and  C_7
REMARK    5  A    between atoms: C_13  and  C_14
REMARK    6  A    between atoms: C_20  and  N_21
REMARK                            x       y       z     vdW  Elec       q    Type
REMARK                         _______ _______ _______ _____ _____    ______ ____
ROOT
ATOM      1  C   UNL     1       2.529   8.146  18.097  0.00  0.00    +0.000 C 
ENDROOT
BRANCH   1   2
ATOM      2  C   UNL     1       1.676   9.014  19.027  0.00  0.00    +0.000 C 
ATOM      3  O   UNL     1       1.141  10.037  18.604  0.00  0.00    +0.000 OA
ATOM      4  N   UNL     1       1.586   8.541  20.323  0.00  0.00    +0.000 N 
ATOM      5  C   UNL     1       0.840   9.181  21.290  0.00  0.00    +0.000 A 
ATOM      6  N   UNL     1       1.030   9.033  22.581  0.00  0.00    +0.000 NA
ATOM      7  N   UNL     1       0.223   9.892  23.314  0.00  0.00    +0.000 NA
ATOM      8  C   UNL     1      -0.605  10.575  22.550  0.00  0.00    +0.000 A 
ATOM      9  S   UNL     1      -0.484  10.193  20.894  0.00  0.00    +0.000 S 
ATOM     10  H   UNL     1       2.352   7.978  20.673  0.00  0.00    +0.000 HD
BRANCH   8  11
ATOM     11  C   UNL     1      -1.575  11.617  23.095  0.00  0.00    +0.000 C 
ATOM     12  C   UNL     1      -1.207  13.089  22.987  0.00  0.00    +0.000 C 
ATOM     13  C   UNL     1      -2.296  12.540  22.134  0.00  0.00    +0.000 C 
ENDBRANCH   8  11
ENDBRANCH   1   2
BRANCH   1  14
ATOM     14  O   UNL     1       1.848   6.922  17.829  0.00  0.00    +0.000 OA
BRANCH  14  18
ATOM     15  C   UNL     1       1.570   3.011  20.636  0.00  0.00    +0.000 C 
ATOM     16  C   UNL     1       2.343   3.745  19.570  0.00  0.00    +0.000 A 
ATOM     17  C   UNL     1       1.835   4.987  19.125  0.00  0.00    +0.000 A 
ATOM     18  C   UNL     1       2.474   5.748  18.136  0.00  0.00    +0.000 A 
ATOM     19  C   UNL     1       3.650   5.268  17.569  0.00  0.00    +0.000 A 
ATOM     20  C   UNL     1       4.179   4.041  17.991  0.00  0.00    +0.000 A 
ATOM     21  C   UNL     1       3.540   3.275  18.983  0.00  0.00    +0.000 A 
BRANCH  21  22
ATOM     22  N   UNL     1       4.157   1.986  19.376  0.00  0.00    +0.000 N 
ATOM     23  O   UNL     1       4.965   1.968  20.294  0.00  0.00    +0.000 OA
ATOM     24  O   UNL     1       3.811   0.966  18.738  0.00  0.00    +0.000 OA
ENDBRANCH  21  22
ENDBRANCH  14  18
ENDBRANCH   1  14
TORSDOF 5
ENDMDL
MODEL 5
REMARK VINA RESULT:      -7.3      0.742      1.633
REMARK  Name = 
REMARK  6 active torsions:
REMARK  status: ('A' for Active; 'I' for Inactive)
REMARK    1  A    between atoms: C_1  and  C_2
REMARK    2  A    between atoms: C_4  and  O_5
REMARK    3  A    between atoms: O_5  and  C_6
REMARK    4  A    between atoms: C_6  and  C_7
REMARK    5  A    between atoms: C_13  and  C_14
REMARK    6  A    between atoms: C_20  and  N_21
REMARK                            x       y       z     vdW  Elec       q    Type
REMARK                         _______ _______ _______ _____ _____    ______ ____
ROOT
ATOM      1  C   UNL     1       4.580   5.162  19.259  0.00  0.00    +0.000 C 
ENDROOT
BRANCH   1   2
ATOM      2  C   UNL     1       4.943   4.749  17.830  0.00  0.00    +0.000 C 
ATOM      3  O   UNL     1       4.406   3.772  17.310  0.00  0.00    +0.000 OA
ATOM      4  N   UNL     1       5.892   5.554  17.229  0.00  0.00    +0.000 N 
ATOM      5  C   UNL     1       6.322   5.346  15.935  0.00  0.00    +0.000 A 
ATOM      6  N   UNL     1       7.463   5.790  15.460  0.00  0.00    +0.000 NA
ATOM      7  N   UNL     1       7.691   5.324  14.173  0.00  0.00    +0.000 NA
ATOM      8  C   UNL     1       6.672   4.635  13.701  0.00  0.00    +0.000 A 
ATOM      9  S   UNL     1       5.354   4.537  14.776  0.00  0.00    +0.000 S 
ATOM     10  H   UNL     1       6.552   6.033  17.829  0.00  0.00    +0.000 HD
BRANCH   8  11
ATOM     11  C   UNL     1       6.675   3.979  12.326  0.00  0.00    +0.000 C 
ATOM     12  C   UNL     1       6.459   2.475  12.229  0.00  0.00    +0.000 C 
ATOM     13  C   UNL     1       5.388   3.402  11.771  0.00  0.00    +0.000 C 
ENDBRANCH   8  11
ENDBRANCH   1   2
BRANCH   1  14
ATOM     14  O   UNL     1       3.164   5.114  19.424  0.00  0.00    +0.000 OA
BRANCH  14  18
ATOM     15  C   UNL     1       2.004   9.470  17.714  0.00  0.00    +0.000 C 
ATOM     16  C   UNL     1       1.908   8.503  18.865  0.00  0.00    +0.000 A 
ATOM     17  C   UNL     1       2.536   7.244  18.721  0.00  0.00    +0.000 A 
ATOM     18  C   UNL     1       2.505   6.271  19.730  0.00  0.00    +0.000 A 
ATOM     19  C   UNL     1       1.834   6.548  20.916  0.00  0.00    +0.000 A 
ATOM     20  C   UNL     1       1.204   7.788  21.089  0.00  0.00    +0.000 A 
ATOM     21  C   UNL     1       1.233   8.766  20.079  0.00  0.00    +0.000 A 
BRANCH  21  22
ATOM     22  N   UNL     1       0.541  10.052  20.332  0.00  0.00    +0.000 N 
ATOM     23  O   UNL     1       1.195  11.017  20.706  0.00  0.00    +0.000 OA
ATOM     24  O   UNL     1      -0.696  10.087  20.143  0.00  0.00    +0.000 OA
ENDBRANCH  21  22
ENDBRANCH  14  18
ENDBRANCH   1  14
TORSDOF 5
ENDMDL
MODEL 6
REMARK VINA RESULT:      -7.2      4.531      9.492
REMARK  Name = 
REMARK  6 active torsions:
REMARK  status: ('A' for Active; 'I' for Inactive)
REMARK    1  A    between atoms: C_1  and  C_2
REMARK    2  A    between atoms: C_4  and  O_5
REMARK    3  A    between atoms: O_5  and  C_6
REMARK    4  A    between atoms: C_6  and  C_7
REMARK    5  A    between atoms: C_13  and  C_14
REMARK    6  A    between atoms: C_20  and  N_21
REMARK                            x       y       z     vdW  Elec       q    Type
REMARK                         _______ _______ _______ _____ _____    ______ ____
ROOT
ATOM      1  C   UNL     1       1.161   9.530  18.326  0.00  0.00    +0.000 C 
ENDROOT
BRANCH   1   2
ATOM      2  C   UNL     1      -0.299   9.981  18.410  0.00  0.00    +0.000 C 
ATOM      3  O   UNL     1      -0.862  10.066  19.501  0.00  0.00    +0.000 OA
ATOM      4  N   UNL     1      -0.880  10.263  17.188  0.00  0.00    +0.000 N 
ATOM      5  C   UNL     1      -2.180  10.706  17.075  0.00  0.00    +0.000 A 
ATOM      6  N   UNL     1      -2.898  10.603  15.980  0.00  0.00    +0.000 NA
ATOM      7  N   UNL     1      -4.207  11.013  16.192  0.00  0.00    +0.000 NA
ATOM      8  C   UNL     1      -4.391  11.497  17.404  0.00  0.00    +0.000 A 
ATOM      9  S   UNL     1      -2.977  11.520  18.355  0.00  0.00    +0.000 S 
ATOM     10  H   UNL     1      -0.516   9.784  16.373  0.00  0.00    +0.000 HD
BRANCH   8  11
ATOM     11  C   UNL     1      -5.743  11.984  17.911  0.00  0.00    +0.000 C 
ATOM     12  C   UNL     1      -6.753  10.959  18.406  0.00  0.00    +0.000 C 
ATOM     13  C   UNL     1      -6.078  11.856  19.384  0.00  0.00    +0.000 C 
ENDBRANCH   8  11
ENDBRANCH   1   2
BRANCH   1  14
ATOM     14  O   UNL     1       1.483   8.740  19.469  0.00  0.00    +0.000 OA
BRANCH  14  18
ATOM     15  C   UNL     1       4.733   6.652  16.582  0.00  0.00    +0.000 C 
ATOM     16  C   UNL     1       3.877   6.524  17.815  0.00  0.00    +0.000 A 
ATOM     17  C   UNL     1       3.049   7.617  18.159  0.00  0.00    +0.000 A 
ATOM     18  C   UNL     1       2.216   7.602  19.287  0.00  0.00    +0.000 A 
ATOM     19  C   UNL     1       2.201   6.474  20.100  0.00  0.00    +0.000 A 
ATOM     20  C   UNL     1       3.009   5.373  19.784  0.00  0.00    +0.000 A 
ATOM     21  C   UNL     1       3.845   5.386  18.653  0.00  0.00    +0.000 A 
BRANCH  21  22
ATOM     22  N   UNL     1       4.673   4.187  18.384  0.00  0.00    +0.000 N 
ATOM     23  O   UNL     1       5.783   4.102  18.894  0.00  0.00    +0.000 OA
ATOM     24  O   UNL     1       4.186   3.307  17.638  0.00  0.00    +0.000 OA
ENDBRANCH  21  22
ENDBRANCH  14  18
ENDBRANCH   1  14
TORSDOF 5
ENDMDL
MODEL 7
REMARK VINA RESULT:      -7.1      3.733      9.656
REMARK  Name = 
REMARK  6 active torsions:
REMARK  status: ('A' for Active; 'I' for Inactive)
REMARK    1  A    between atoms: C_1  and  C_2
REMARK    2  A    between atoms: C_4  and  O_5
REMARK    3  A    between atoms: O_5  and  C_6
REMARK    4  A    between atoms: C_6  and  C_7
REMARK    5  A    between atoms: C_13  and  C_14
REMARK    6  A    between atoms: C_20  and  N_21
REMARK                            x       y       z     vdW  Elec       q    Type
REMARK                         _______ _______ _______ _____ _____    ______ ____
ROOT
ATOM      1  C   UNL     1       1.983   9.794  17.894  0.00  0.00    +0.000 C 
ENDROOT
BRANCH   1   2
ATOM      2  C   UNL     1       1.130  10.521  18.937  0.00  0.00    +0.000 C 
ATOM      3  O   UNL     1       0.628  11.613  18.677  0.00  0.00    +0.000 OA
ATOM      4  N   UNL     1       1.001   9.847  20.137  0.00  0.00    +0.000 N 
ATOM      5  C   UNL     1       0.248  10.341  21.182  0.00  0.00    +0.000 A 
ATOM      6  N   UNL     1       0.406   9.980  22.434  0.00  0.00    +0.000 NA
ATOM      7  N   UNL     1      -0.397  10.729  23.283  0.00  0.00    +0.000 NA
ATOM      8  C   UNL     1      -1.192  11.549  22.625  0.00  0.00    +0.000 A 
ATOM      9  S   UNL     1      -1.044  11.438  20.932  0.00  0.00    +0.000 S 
ATOM     10  H   UNL     1       1.745   9.215  20.404  0.00  0.00    +0.000 HD
BRANCH   8  11
ATOM     11  C   UNL     1      -2.150  12.513  23.315  0.00  0.00    +0.000 C 
ATOM     12  C   UNL     1      -1.703  13.948  23.552  0.00  0.00    +0.000 C 
ATOM     13  C   UNL     1      -2.747  13.663  22.529  0.00  0.00    +0.000 C 
ENDBRANCH   8  11
ENDBRANCH   1   2
BRANCH   1  14
ATOM     14  O   UNL     1       1.616   8.417  17.854  0.00  0.00    +0.000 OA
BRANCH  14  18
ATOM     15  C   UNL     1       5.860   6.414  16.743  0.00  0.00    +0.000 C 
ATOM     16  C   UNL     1       4.699   6.455  17.703  0.00  0.00    +0.000 A 
ATOM     17  C   UNL     1       3.654   7.368  17.434  0.00  0.00    +0.000 A 
ATOM     18  C   UNL     1       2.530   7.488  18.264  0.00  0.00    +0.000 A 
ATOM     19  C   UNL     1       2.437   6.683  19.395  0.00  0.00    +0.000 A 
ATOM     20  C   UNL     1       3.456   5.767  19.687  0.00  0.00    +0.000 A 
ATOM     21  C   UNL     1       4.584   5.644  18.856  0.00  0.00    +0.000 A 
BRANCH  21  22
ATOM     22  N   UNL     1       5.624   4.656  19.230  0.00  0.00    +0.000 N 
ATOM     23  O   UNL     1       6.655   5.048  19.760  0.00  0.00    +0.000 OA
ATOM     24  O   UNL     1       5.387   3.452  18.983  0.00  0.00    +0.000 OA
ENDBRANCH  21  22
ENDBRANCH  14  18
ENDBRANCH   1  14
TORSDOF 5
ENDMDL
MODEL 8
REMARK VINA RESULT:      -7.1      6.354      7.318
REMARK  Name = 
REMARK  6 active torsions:
REMARK  status: ('A' for Active; 'I' for Inactive)
REMARK    1  A    between atoms: C_1  and  C_2
REMARK    2  A    between atoms: C_4  and  O_5
REMARK    3  A    between atoms: O_5  and  C_6
REMARK    4  A    between atoms: C_6  and  C_7
REMARK    5  A    between atoms: C_13  and  C_14
REMARK    6  A    between atoms: C_20  and  N_21
REMARK                            x       y       z     vdW  Elec       q    Type
REMARK                         _______ _______ _______ _____ _____    ______ ____
ROOT
ATOM      1  C   UNL     1       8.257   8.642  17.665  0.00  0.00    +0.000 C 
ENDROOT
BRANCH   1   2
ATOM      2  C   UNL     1       7.512   7.329  17.922  0.00  0.00    +0.000 C 
ATOM      3  O   UNL     1       7.861   6.586  18.838  0.00  0.00    +0.000 OA
ATOM      4  N   UNL     1       6.466   7.088  17.051  0.00  0.00    +0.000 N 
ATOM      5  C   UNL     1       5.670   5.966  17.149  0.00  0.00    +0.000 A 
ATOM      6  N   UNL     1       4.956   5.485  16.157  0.00  0.00    +0.000 NA
ATOM      7  N   UNL     1       4.357   4.281  16.502  0.00  0.00    +0.000 NA
ATOM      8  C   UNL     1       4.564   3.962  17.764  0.00  0.00    +0.000 A 
ATOM      9  S   UNL     1       5.471   5.119  18.624  0.00  0.00    +0.000 S 
ATOM     10  H   UNL     1       6.519   7.499  16.127  0.00  0.00    +0.000 HD
BRANCH   8  11
ATOM     11  C   UNL     1       4.049   2.673  18.393  0.00  0.00    +0.000 C 
ATOM     12  C   UNL     1       2.820   2.734  19.288  0.00  0.00    +0.000 C 
ATOM     13  C   UNL     1       2.719   2.103  17.943  0.00  0.00    +0.000 C 
ENDBRANCH   8  11
ENDBRANCH   1   2
BRANCH   1  14
ATOM     14  O   UNL     1       8.872   9.085  18.873  0.00  0.00    +0.000 OA
BRANCH  14  18
ATOM     15  C   UNL     1       9.623  12.750  21.915  0.00  0.00    +0.000 C 
ATOM     16  C   UNL     1       9.695  12.259  20.492  0.00  0.00    +0.000 A 
ATOM     17  C   UNL     1       9.281  10.933  20.231  0.00  0.00    +0.000 A 
ATOM     18  C   UNL     1       9.309  10.377  18.944  0.00  0.00    +0.000 A 
ATOM     19  C   UNL     1       9.762  11.154  17.883  0.00  0.00    +0.000 A 
ATOM     20  C   UNL     1      10.177  12.473  18.110  0.00  0.00    +0.000 A 
ATOM     21  C   UNL     1      10.149  13.033  19.400  0.00  0.00    +0.000 A 
BRANCH  21  22
ATOM     22  N   UNL     1      10.606  14.433  19.563  0.00  0.00    +0.000 N 
ATOM     23  O   UNL     1       9.818  15.346  19.351  0.00  0.00    +0.000 OA
ATOM     24  O   UNL     1      11.793  14.612  19.918  0.00  0.00    +0.000 OA
ENDBRANCH  21  22
ENDBRANCH  14  18
ENDBRANCH   1  14
TORSDOF 5
ENDMDL
MODEL 9
REMARK VINA RESULT:      -7.0      2.228      3.174
REMARK  Name = 
REMARK  6 active torsions:
REMARK  status: ('A' for Active; 'I' for Inactive)
REMARK    1  A    between atoms: C_1  and  C_2
REMARK    2  A    between atoms: C_4  and  O_5
REMARK    3  A    between atoms: O_5  and  C_6
REMARK    4  A    between atoms: C_6  and  C_7
REMARK    5  A    between atoms: C_13  and  C_14
REMARK    6  A    between atoms: C_20  and  N_21
REMARK                            x       y       z     vdW  Elec       q    Type
REMARK                         _______ _______ _______ _____ _____    ______ ____
ROOT
ATOM      1  C   UNL     1       1.553   6.268  20.557  0.00  0.00    +0.000 C 
ENDROOT
BRANCH   1   2
ATOM      2  C   UNL     1       2.536   5.894  19.444  0.00  0.00    +0.000 C 
ATOM      3  O   UNL     1       2.153   5.817  18.277  0.00  0.00    +0.000 OA
ATOM      4  N   UNL     1       3.827   5.662  19.879  0.00  0.00    +0.000 N 
ATOM      5  C   UNL     1       4.849   5.338  19.012  0.00  0.00    +0.000 A 
ATOM      6  N   UNL     1       5.954   4.728  19.376  0.00  0.00    +0.000 NA
ATOM      7  N   UNL     1       6.745   4.416  18.279  0.00  0.00    +0.000 NA
ATOM      8  C   UNL     1       6.250   4.890  17.153  0.00  0.00    +0.000 A 
ATOM      9  S   UNL     1       4.810   5.778  17.357  0.00  0.00    +0.000 S 
ATOM     10  H   UNL     1       3.952   5.340  20.831  0.00  0.00    +0.000 HD
BRANCH   8  11
ATOM     11  C   UNL     1       6.900   4.660  15.794  0.00  0.00    +0.000 C 
ATOM     12  C   UNL     1       6.253   3.678  14.828  0.00  0.00    +0.000 C 
ATOM     13  C   UNL     1       6.197   5.138  14.540  0.00  0.00    +0.000 C 
ENDBRANCH   8  11
ENDBRANCH   1   2
BRANCH   1  14
ATOM     14  O   UNL     1       1.935   7.516  21.131  0.00  0.00    +0.000 OA
BRANCH  14  18
ATOM     15  C   UNL     1      -1.120  10.683  23.103  0.00  0.00    +0.000 C 
ATOM     16  C   UNL     1      -0.394  10.240  21.860  0.00  0.00    +0.000 A 
ATOM     17  C   UNL     1       0.449   9.110  21.956  0.00  0.00    +0.000 A 
ATOM     18  C   UNL     1       1.173   8.617  20.861  0.00  0.00    +0.000 A 
ATOM     19  C   UNL     1       1.060   9.261  19.633  0.00  0.00    +0.000 A 
ATOM     20  C   UNL     1       0.231  10.383  19.506  0.00  0.00    +0.000 A 
ATOM     21  C   UNL     1      -0.495  10.880  20.603  0.00  0.00    +0.000 A 
BRANCH  21  22
ATOM     22  N   UNL     1      -1.350  12.072  20.393  0.00  0.00    +0.000 N 
ATOM     23  O   UNL     1      -2.363  11.968  19.713  0.00  0.00    +0.000 OA
ATOM     24  O   UNL     1      -0.987  13.141  20.934  0.00  0.00    +0.000 OA
ENDBRANCH  21  22
ENDBRANCH  14  18
ENDBRANCH   1  14
TORSDOF 5
ENDMDL
