MODEL 1
REMARK VINA RESULT:      -8.9      0.000      0.000
REMARK  Name = 
REMARK  3 active torsions:
REMARK  status: ('A' for Active; 'I' for Inactive)
REMARK    1  A    between atoms: C_2  and  C_20
REMARK    2  A    between atoms: N_3  and  C_4
REMARK    3  A    between atoms: C_9  and  C_10
REMARK                            x       y       z     vdW  Elec       q    Type
REMARK                         _______ _______ _______ _____ _____    ______ ____
ROOT
ATOM      1  C   UNL     1       2.076   5.297  20.661  0.00  0.00    +0.000 A 
ATOM      2  C   UNL     1       2.017   4.134  21.432  0.00  0.00    +0.000 A 
ATOM      3  C   UNL     1       2.671   2.976  21.019  0.00  0.00    +0.000 A 
ATOM      4  C   UNL     1       3.395   2.976  19.832  0.00  0.00    +0.000 A 
ATOM      5  F   UNL     1       4.024   1.839  19.499  0.00  0.00    +0.000 F 
ATOM      6  C   UNL     1       3.471   4.116  19.028  0.00  0.00    +0.000 A 
ATOM      7  C   UNL     1       2.778   5.272  19.445  0.00  0.00    +0.000 A 
ENDROOT
BRANCH   6   8
ATOM      8  C   UNL     1       4.279   4.150  17.812  0.00  0.00    +0.000 A 
ATOM      9  N   UNL     1       3.982   3.724  16.594  0.00  0.00    +0.000 NA
ATOM     10  C   UNL     1       5.078   4.090  15.846  0.00  0.00    +0.000 A 
ATOM     11  C   UNL     1       5.369   3.943  14.482  0.00  0.00    +0.000 A 
ATOM     12  C   UNL     1       6.592   4.447  14.005  0.00  0.00    +0.000 A 
ATOM     13  C   UNL     1       7.503   5.079  14.863  0.00  0.00    +0.000 A 
ATOM     14  C   UNL     1       7.229   5.230  16.226  0.00  0.00    +0.000 A 
ATOM     15  C   UNL     1       6.009   4.719  16.652  0.00  0.00    +0.000 A 
ATOM     16  O   UNL     1       5.506   4.755  17.913  0.00  0.00    +0.000 OA
ENDBRANCH   6   8
BRANCH   1  19
ATOM     17  O   UNL     1       2.256   7.932  19.393  0.00  0.00    +0.000 OA
ATOM     18  C   UNL     1       1.589   7.728  20.404  0.00  0.00    +0.000 C 
ATOM     19  N   UNL     1       1.473   6.512  21.056  0.00  0.00    +0.000 N 
ATOM     20  H   UNL     1       0.801   6.450  21.813  0.00  0.00    +0.000 HD
BRANCH  18  21
ATOM     21  C   UNL     1       0.846   8.888  20.956  0.00  0.00    +0.000 A 
ATOM     22  C   UNL     1       0.901   9.050  22.338  0.00  0.00    +0.000 A 
ATOM     23  N   UNL     1       0.319  10.069  23.021  0.00  0.00    +0.000 NA
ATOM     24  C   UNL     1      -0.339  10.989  22.295  0.00  0.00    +0.000 A 
ATOM     25  C   UNL     1      -0.452  10.929  20.918  0.00  0.00    +0.000 A 
ATOM     26  C   UNL     1       0.147   9.863  20.243  0.00  0.00    +0.000 A 
ATOM     27 CL   UNL     1      -0.003   9.867  18.520  0.00  0.00    +0.000 Cl
ENDBRANCH  18  21
ENDBRANCH   1  19
TORSDOF 3
ENDMDL
MODEL 2
REMARK VINA RESULT:      -8.8      0.698      1.184
REMARK  Name = 
REMARK  3 active torsions:
REMARK  status: ('A' for Active; 'I' for Inactive)
REMARK    1  A    between atoms: C_2  and  C_20
REMARK    2  A    between atoms: N_3  and  C_4
REMARK    3  A    between atoms: C_9  and  C_10
REMARK                            x       y       z     vdW  Elec       q    Type
REMARK                         _______ _______ _______ _____ _____    ______ ____
ROOT
ATOM      1  C   UNL     1       2.069   5.456  20.622  0.00  0.00    +0.000 A 
ATOM      2  C   UNL     1       1.959   4.226  21.272  0.00  0.00    +0.000 A 
ATOM      3  C   UNL     1       2.655   3.113  20.806  0.00  0.00    +0.000 A 
ATOM      4  C   UNL     1       3.472   3.227  19.688  0.00  0.00    +0.000 A 
ATOM      5  F   UNL     1       4.137   2.128  19.301  0.00  0.00    +0.000 F 
ATOM      6  C   UNL     1       3.603   4.439  19.004  0.00  0.00    +0.000 A 
ATOM      7  C   UNL     1       2.867   5.548  19.470  0.00  0.00    +0.000 A 
ENDROOT
BRANCH   6   8
ATOM      8  C   UNL     1       4.507   4.589  17.866  0.00  0.00    +0.000 A 
ATOM      9  N   UNL     1       5.718   5.120  17.821  0.00  0.00    +0.000 NA
ATOM     10  C   UNL     1       6.116   4.912  16.520  0.00  0.00    +0.000 A 
ATOM     11  C   UNL     1       7.306   5.222  15.845  0.00  0.00    +0.000 A 
ATOM     12  C   UNL     1       7.418   4.856  14.493  0.00  0.00    +0.000 A 
ATOM     13  C   UNL     1       6.373   4.202  13.826  0.00  0.00    +0.000 A 
ATOM     14  C   UNL     1       5.178   3.889  14.484  0.00  0.00    +0.000 A 
ATOM     15  C   UNL     1       5.114   4.267  15.819  0.00  0.00    +0.000 A 
ATOM     16  O   UNL     1       4.077   4.063  16.674  0.00  0.00    +0.000 OA
ENDBRANCH   6   8
BRANCH   1  19
ATOM     17  O   UNL     1       2.139   8.154  19.481  0.00  0.00    +0.000 OA
ATOM     18  C   UNL     1       1.490   7.877  20.486  0.00  0.00    +0.000 C 
ATOM     19  N   UNL     1       1.425   6.628  21.080  0.00  0.00    +0.000 N 
ATOM     20  H   UNL     1       0.763   6.505  21.837  0.00  0.00    +0.000 HD
BRANCH  18  21
ATOM     21  C   UNL     1       0.709   8.981  21.099  0.00  0.00    +0.000 A 
ATOM     22  C   UNL     1       0.796   9.097  22.484  0.00  0.00    +0.000 A 
ATOM     23  N   UNL     1       0.187  10.063  23.218  0.00  0.00    +0.000 NA
ATOM     24  C   UNL     1      -0.534  10.975  22.544  0.00  0.00    +0.000 A 
ATOM     25  C   UNL     1      -0.685  10.957  21.169  0.00  0.00    +0.000 A 
ATOM     26  C   UNL     1      -0.056   9.945  20.440  0.00  0.00    +0.000 A 
ATOM     27 CL   UNL     1      -0.255  10.001  18.724  0.00  0.00    +0.000 Cl
ENDBRANCH  18  21
ENDBRANCH   1  19
TORSDOF 3
ENDMDL
MODEL 3
REMARK VINA RESULT:      -8.1      3.983      9.319
REMARK  Name = 
REMARK  3 active torsions:
REMARK  status: ('A' for Active; 'I' for Inactive)
REMARK    1  A    between atoms: C_2  and  C_20
REMARK    2  A    between atoms: N_3  and  C_4
REMARK    3  A    between atoms: C_9  and  C_10
REMARK                            x       y       z     vdW  Elec       q    Type
REMARK                         _______ _______ _______ _____ _____    ______ ____
ROOT
ATOM      1  C   UNL     1       1.783   8.281  19.626  0.00  0.00    +0.000 A 
ATOM      2  C   UNL     1       2.142   8.739  18.357  0.00  0.00    +0.000 A 
ATOM      3  C   UNL     1       1.832  10.037  17.959  0.00  0.00    +0.000 A 
ATOM      4  C   UNL     1       1.165  10.888  18.832  0.00  0.00    +0.000 A 
ATOM      5  F   UNL     1       0.916  12.134  18.401  0.00  0.00    +0.000 F 
ATOM      6  C   UNL     1       0.780  10.465  20.107  0.00  0.00    +0.000 A 
ATOM      7  C   UNL     1       1.074   9.138  20.484  0.00  0.00    +0.000 A 
ENDROOT
BRANCH   6   8
ATOM      8  C   UNL     1       0.136  11.367  21.058  0.00  0.00    +0.000 A 
ATOM      9  N   UNL     1       0.513  12.569  21.463  0.00  0.00    +0.000 NA
ATOM     10  C   UNL     1      -0.514  12.971  22.287  0.00  0.00    +0.000 A 
ATOM     11  C   UNL     1      -0.724  14.156  23.007  0.00  0.00    +0.000 A 
ATOM     12  C   UNL     1      -1.906  14.276  23.759  0.00  0.00    +0.000 A 
ATOM     13  C   UNL     1      -2.853  13.243  23.797  0.00  0.00    +0.000 A 
ATOM     14  C   UNL     1      -2.655  12.053  23.088  0.00  0.00    +0.000 A 
ATOM     15  C   UNL     1      -1.476  11.981  22.357  0.00  0.00    +0.000 A 
ATOM     16  O   UNL     1      -1.063  10.948  21.577  0.00  0.00    +0.000 OA
ENDBRANCH   6   8
BRANCH   1  19
ATOM     17  O   UNL     1       2.194   5.814  18.100  0.00  0.00    +0.000 OA
ATOM     18  C   UNL     1       2.307   5.863  19.322  0.00  0.00    +0.000 C 
ATOM     19  N   UNL     1       2.115   6.991  20.100  0.00  0.00    +0.000 N 
ATOM     20  H   UNL     1       2.350   6.926  21.084  0.00  0.00    +0.000 HD
BRANCH  18  21
ATOM     21  C   UNL     1       2.689   4.602  20.005  0.00  0.00    +0.000 A 
ATOM     22  C   UNL     1       1.969   4.286  21.156  0.00  0.00    +0.000 A 
ATOM     23  N   UNL     1       2.146   3.161  21.893  0.00  0.00    +0.000 NA
ATOM     24  C   UNL     1       3.074   2.290  21.461  0.00  0.00    +0.000 A 
ATOM     25  C   UNL     1       3.842   2.500  20.330  0.00  0.00    +0.000 A 
ATOM     26  C   UNL     1       3.647   3.673  19.596  0.00  0.00    +0.000 A 
ATOM     27 CL   UNL     1       4.615   3.858  18.176  0.00  0.00    +0.000 Cl
ENDBRANCH  18  21
ENDBRANCH   1  19
TORSDOF 3
ENDMDL
MODEL 4
REMARK VINA RESULT:      -8.1      3.284      5.309
REMARK  Name = 
REMARK  3 active torsions:
REMARK  status: ('A' for Active; 'I' for Inactive)
REMARK    1  A    between atoms: C_2  and  C_20
REMARK    2  A    between atoms: N_3  and  C_4
REMARK    3  A    between atoms: C_9  and  C_10
REMARK                            x       y       z     vdW  Elec       q    Type
REMARK                         _______ _______ _______ _____ _____    ______ ____
ROOT
ATOM      1  C   UNL     1       0.650  10.002  19.899  0.00  0.00    +0.000 A 
ATOM      2  C   UNL     1       1.065  10.497  18.661  0.00  0.00    +0.000 A 
ATOM      3  C   UNL     1       1.882   9.734  17.831  0.00  0.00    +0.000 A 
ATOM      4  C   UNL     1       2.286   8.467  18.232  0.00  0.00    +0.000 A 
ATOM      5  F   UNL     1       3.052   7.769  17.380  0.00  0.00    +0.000 F 
ATOM      6  C   UNL     1       1.900   7.938  19.467  0.00  0.00    +0.000 A 
ATOM      7  C   UNL     1       1.097   8.735  20.310  0.00  0.00    +0.000 A 
ENDROOT
BRANCH   6   8
ATOM      8  C   UNL     1       2.263   6.584  19.875  0.00  0.00    +0.000 A 
ATOM      9  N   UNL     1       1.667   5.779  20.739  0.00  0.00    +0.000 NA
ATOM     10  C   UNL     1       2.395   4.614  20.654  0.00  0.00    +0.000 A 
ATOM     11  C   UNL     1       2.258   3.376  21.300  0.00  0.00    +0.000 A 
ATOM     12  C   UNL     1       3.168   2.354  20.979  0.00  0.00    +0.000 A 
ATOM     13  C   UNL     1       4.192   2.558  20.043  0.00  0.00    +0.000 A 
ATOM     14  C   UNL     1       4.345   3.788  19.394  0.00  0.00    +0.000 A 
ATOM     15  C   UNL     1       3.422   4.766  19.740  0.00  0.00    +0.000 A 
ATOM     16  O   UNL     1       3.346   6.028  19.241  0.00  0.00    +0.000 OA
ENDBRANCH   6   8
BRANCH   1  19
ATOM     17  O   UNL     1       1.228  12.336  21.572  0.00  0.00    +0.000 OA
ATOM     18  C   UNL     1       0.115  11.820  21.518  0.00  0.00    +0.000 C 
ATOM     19  N   UNL     1      -0.218  10.711  20.759  0.00  0.00    +0.000 N 
ATOM     20  H   UNL     1      -1.198  10.453  20.714  0.00  0.00    +0.000 HD
BRANCH  18  21
ATOM     21  C   UNL     1      -0.951  12.451  22.335  0.00  0.00    +0.000 A 
ATOM     22  C   UNL     1      -1.979  11.610  22.757  0.00  0.00    +0.000 A 
ATOM     23  N   UNL     1      -3.019  11.994  23.540  0.00  0.00    +0.000 NA
ATOM     24  C   UNL     1      -3.035  13.276  23.945  0.00  0.00    +0.000 A 
ATOM     25  C   UNL     1      -2.065  14.195  23.589  0.00  0.00    +0.000 A 
ATOM     26  C   UNL     1      -1.012  13.775  22.772  0.00  0.00    +0.000 A 
ATOM     27 CL   UNL     1       0.185  14.964  22.395  0.00  0.00    +0.000 Cl
ENDBRANCH  18  21
ENDBRANCH   1  19
TORSDOF 3
ENDMDL
MODEL 5
REMARK VINA RESULT:      -8.1      3.984      8.460
REMARK  Name = 
REMARK  3 active torsions:
REMARK  status: ('A' for Active; 'I' for Inactive)
REMARK    1  A    between atoms: C_2  and  C_20
REMARK    2  A    between atoms: N_3  and  C_4
REMARK    3  A    between atoms: C_9  and  C_10
REMARK                            x       y       z     vdW  Elec       q    Type
REMARK                         _______ _______ _______ _____ _____    ______ ____
ROOT
ATOM      1  C   UNL     1       1.344   8.224  20.894  0.00  0.00    +0.000 A 
ATOM      2  C   UNL     1       1.497   9.021  22.030  0.00  0.00    +0.000 A 
ATOM      3  C   UNL     1       0.822  10.234  22.141  0.00  0.00    +0.000 A 
ATOM      4  C   UNL     1      -0.017  10.655  21.116  0.00  0.00    +0.000 A 
ATOM      5  F   UNL     1      -0.660  11.820  21.291  0.00  0.00    +0.000 F 
ATOM      6  C   UNL     1      -0.190   9.891  19.959  0.00  0.00    +0.000 A 
ATOM      7  C   UNL     1       0.524   8.680  19.849  0.00  0.00    +0.000 A 
ENDROOT
BRANCH   6   8
ATOM      8  C   UNL     1      -1.117  10.289  18.903  0.00  0.00    +0.000 A 
ATOM      9  N   UNL     1      -1.035  10.094  17.596  0.00  0.00    +0.000 NA
ATOM     10  C   UNL     1      -2.220  10.603  17.117  0.00  0.00    +0.000 A 
ATOM     11  C   UNL     1      -2.749  10.678  15.820  0.00  0.00    +0.000 A 
ATOM     12  C   UNL     1      -4.021  11.252  15.652  0.00  0.00    +0.000 A 
ATOM     13  C   UNL     1      -4.748  11.744  16.745  0.00  0.00    +0.000 A 
ATOM     14  C   UNL     1      -4.233  11.681  18.044  0.00  0.00    +0.000 A 
ATOM     15  C   UNL     1      -2.975  11.103  18.162  0.00  0.00    +0.000 A 
ATOM     16  O   UNL     1      -2.271  10.910  19.308  0.00  0.00    +0.000 OA
ENDBRANCH   6   8
BRANCH   1  19
ATOM     17  O   UNL     1       2.576   7.047  18.511  0.00  0.00    +0.000 OA
ATOM     18  C   UNL     1       2.542   6.467  19.593  0.00  0.00    +0.000 C 
ATOM     19  N   UNL     1       1.966   6.963  20.750  0.00  0.00    +0.000 N 
ATOM     20  H   UNL     1       2.106   6.436  21.605  0.00  0.00    +0.000 HD
BRANCH  18  21
ATOM     21  C   UNL     1       3.182   5.129  19.652  0.00  0.00    +0.000 A 
ATOM     22  C   UNL     1       4.541   5.086  19.349  0.00  0.00    +0.000 A 
ATOM     23  N   UNL     1       5.305   3.965  19.386  0.00  0.00    +0.000 NA
ATOM     24  C   UNL     1       4.697   2.826  19.760  0.00  0.00    +0.000 A 
ATOM     25  C   UNL     1       3.354   2.756  20.086  0.00  0.00    +0.000 A 
ATOM     26  C   UNL     1       2.589   3.923  20.028  0.00  0.00    +0.000 A 
ATOM     27 CL   UNL     1       0.927   3.772  20.482  0.00  0.00    +0.000 Cl
ENDBRANCH  18  21
ENDBRANCH   1  19
TORSDOF 3
ENDMDL
MODEL 6
REMARK VINA RESULT:      -8.0      3.446      5.274
REMARK  Name = 
REMARK  3 active torsions:
REMARK  status: ('A' for Active; 'I' for Inactive)
REMARK    1  A    between atoms: C_2  and  C_20
REMARK    2  A    between atoms: N_3  and  C_4
REMARK    3  A    between atoms: C_9  and  C_10
REMARK                            x       y       z     vdW  Elec       q    Type
REMARK                         _______ _______ _______ _____ _____    ______ ____
ROOT
ATOM      1  C   UNL     1       1.046   9.822  19.472  0.00  0.00    +0.000 A 
ATOM      2  C   UNL     1       1.550  10.353  18.283  0.00  0.00    +0.000 A 
ATOM      3  C   UNL     1       2.396   9.600  17.473  0.00  0.00    +0.000 A 
ATOM      4  C   UNL     1       2.741   8.307  17.846  0.00  0.00    +0.000 A 
ATOM      5  F   UNL     1       3.539   7.621  17.014  0.00  0.00    +0.000 F 
ATOM      6  C   UNL     1       2.266   7.742  19.033  0.00  0.00    +0.000 A 
ATOM      7  C   UNL     1       1.434   8.528  19.857  0.00  0.00    +0.000 A 
ENDROOT
BRANCH   6   8
ATOM      8  C   UNL     1       2.567   6.363  19.407  0.00  0.00    +0.000 A 
ATOM      9  N   UNL     1       3.516   5.559  18.954  0.00  0.00    +0.000 NA
ATOM     10  C   UNL     1       3.374   4.425  19.721  0.00  0.00    +0.000 A 
ATOM     11  C   UNL     1       4.088   3.218  19.746  0.00  0.00    +0.000 A 
ATOM     12  C   UNL     1       3.704   2.237  20.676  0.00  0.00    +0.000 A 
ATOM     13  C   UNL     1       2.633   2.448  21.556  0.00  0.00    +0.000 A 
ATOM     14  C   UNL     1       1.908   3.644  21.541  0.00  0.00    +0.000 A 
ATOM     15  C   UNL     1       2.325   4.584  20.608  0.00  0.00    +0.000 A 
ATOM     16  O   UNL     1       1.801   5.822  20.408  0.00  0.00    +0.000 OA
ENDBRANCH   6   8
BRANCH   1  19
ATOM     17  O   UNL     1       1.525  12.221  21.084  0.00  0.00    +0.000 OA
ATOM     18  C   UNL     1       0.433  11.663  21.037  0.00  0.00    +0.000 C 
ATOM     19  N   UNL     1       0.146  10.523  20.306  0.00  0.00    +0.000 N 
ATOM     20  H   UNL     1      -0.823  10.228  20.261  0.00  0.00    +0.000 HD
BRANCH  18  21
ATOM     21  C   UNL     1      -0.663  12.276  21.829  0.00  0.00    +0.000 A 
ATOM     22  C   UNL     1      -1.032  13.569  21.465  0.00  0.00    +0.000 A 
ATOM     23  N   UNL     1      -2.034  14.279  22.043  0.00  0.00    +0.000 NA
ATOM     24  C   UNL     1      -2.723  13.670  23.024  0.00  0.00    +0.000 A 
ATOM     25  C   UNL     1      -2.445  12.387  23.461  0.00  0.00    +0.000 A 
ATOM     26  C   UNL     1      -1.400  11.685  22.856  0.00  0.00    +0.000 A 
ATOM     27 CL   UNL     1      -1.129  10.075  23.425  0.00  0.00    +0.000 Cl
ENDBRANCH  18  21
ENDBRANCH   1  19
TORSDOF 3
ENDMDL
MODEL 7
REMARK VINA RESULT:      -8.0      4.458      9.611
REMARK  Name = 
REMARK  3 active torsions:
REMARK  status: ('A' for Active; 'I' for Inactive)
REMARK    1  A    between atoms: C_2  and  C_20
REMARK    2  A    between atoms: N_3  and  C_4
REMARK    3  A    between atoms: C_9  and  C_10
REMARK                            x       y       z     vdW  Elec       q    Type
REMARK                         _______ _______ _______ _____ _____    ______ ____
ROOT
ATOM      1  C   UNL     1       1.501   9.777  18.025  0.00  0.00    +0.000 A 
ATOM      2  C   UNL     1       2.380  10.836  18.258  0.00  0.00    +0.000 A 
ATOM      3  C   UNL     1       1.896  12.102  18.578  0.00  0.00    +0.000 A 
ATOM      4  C   UNL     1       0.526  12.315  18.673  0.00  0.00    +0.000 A 
ATOM      5  F   UNL     1       0.120  13.549  19.009  0.00  0.00    +0.000 F 
ATOM      6  C   UNL     1      -0.387  11.283  18.439  0.00  0.00    +0.000 A 
ATOM      7  C   UNL     1       0.118  10.015  18.086  0.00  0.00    +0.000 A 
ENDROOT
BRANCH   6   8
ATOM      8  C   UNL     1      -1.826  11.476  18.598  0.00  0.00    +0.000 A 
ATOM      9  N   UNL     1      -2.500  11.962  19.628  0.00  0.00    +0.000 NA
ATOM     10  C   UNL     1      -3.802  11.987  19.183  0.00  0.00    +0.000 A 
ATOM     11  C   UNL     1      -4.990  12.413  19.794  0.00  0.00    +0.000 A 
ATOM     12  C   UNL     1      -6.185  12.326  19.057  0.00  0.00    +0.000 A 
ATOM     13  C   UNL     1      -6.198  11.825  17.748  0.00  0.00    +0.000 A 
ATOM     14  C   UNL     1      -5.022  11.391  17.127  0.00  0.00    +0.000 A 
ATOM     15  C   UNL     1      -3.867  11.498  17.891  0.00  0.00    +0.000 A 
ATOM     16  O   UNL     1      -2.605  11.164  17.512  0.00  0.00    +0.000 OA
ENDBRANCH   6   8
BRANCH   1  19
ATOM     17  O   UNL     1       2.233   7.648  19.900  0.00  0.00    +0.000 OA
ATOM     18  C   UNL     1       2.259   7.495  18.682  0.00  0.00    +0.000 C 
ATOM     19  N   UNL     1       1.937   8.462  17.745  0.00  0.00    +0.000 N 
ATOM     20  H   UNL     1       1.889   8.174  16.774  0.00  0.00    +0.000 HD
BRANCH  18  21
ATOM     21  C   UNL     1       2.664   6.155  18.188  0.00  0.00    +0.000 A 
ATOM     22  C   UNL     1       1.718   5.141  18.321  0.00  0.00    +0.000 A 
ATOM     23  N   UNL     1       1.889   3.864  17.894  0.00  0.00    +0.000 NA
ATOM     24  C   UNL     1       3.053   3.576  17.287  0.00  0.00    +0.000 A 
ATOM     25  C   UNL     1       4.060   4.506  17.099  0.00  0.00    +0.000 A 
ATOM     26  C   UNL     1       3.861   5.810  17.559  0.00  0.00    +0.000 A 
ATOM     27 CL   UNL     1       5.144   6.930  17.261  0.00  0.00    +0.000 Cl
ENDBRANCH  18  21
ENDBRANCH   1  19
TORSDOF 3
ENDMDL
MODEL 8
REMARK VINA RESULT:      -8.0      3.436      5.274
REMARK  Name = 
REMARK  3 active torsions:
REMARK  status: ('A' for Active; 'I' for Inactive)
REMARK    1  A    between atoms: C_2  and  C_20
REMARK    2  A    between atoms: N_3  and  C_4
REMARK    3  A    between atoms: C_9  and  C_10
REMARK                            x       y       z     vdW  Elec       q    Type
REMARK                         _______ _______ _______ _____ _____    ______ ____
ROOT
ATOM      1  C   UNL     1       0.708   9.834  19.548  0.00  0.00    +0.000 A 
ATOM      2  C   UNL     1       1.269  10.444  18.424  0.00  0.00    +0.000 A 
ATOM      3  C   UNL     1       2.220   9.777  17.656  0.00  0.00    +0.000 A 
ATOM      4  C   UNL     1       2.614   8.491  18.007  0.00  0.00    +0.000 A 
ATOM      5  F   UNL     1       3.515   7.890  17.216  0.00  0.00    +0.000 F 
ATOM      6  C   UNL     1       2.084   7.850  19.130  0.00  0.00    +0.000 A 
ATOM      7  C   UNL     1       1.144   8.550  19.914  0.00  0.00    +0.000 A 
ENDROOT
BRANCH   6   8
ATOM      8  C   UNL     1       2.440   6.476  19.473  0.00  0.00    +0.000 A 
ATOM      9  N   UNL     1       3.421   5.721  19.006  0.00  0.00    +0.000 NA
ATOM     10  C   UNL     1       3.323   4.565  19.747  0.00  0.00    +0.000 A 
ATOM     11  C   UNL     1       4.085   3.387  19.747  0.00  0.00    +0.000 A 
ATOM     12  C   UNL     1       3.738   2.371  20.654  0.00  0.00    +0.000 A 
ATOM     13  C   UNL     1       2.658   2.519  21.535  0.00  0.00    +0.000 A 
ATOM     14  C   UNL     1       1.885   3.685  21.544  0.00  0.00    +0.000 A 
ATOM     15  C   UNL     1       2.267   4.663  20.634  0.00  0.00    +0.000 A 
ATOM     16  O   UNL     1       1.693   5.882  20.459  0.00  0.00    +0.000 OA
ENDBRANCH   6   8
BRANCH   1  19
ATOM     17  O   UNL     1       0.963  12.032  21.469  0.00  0.00    +0.000 OA
ATOM     18  C   UNL     1      -0.111  11.492  21.220  0.00  0.00    +0.000 C 
ATOM     19  N   UNL     1      -0.296  10.445  20.334  0.00  0.00    +0.000 N 
ATOM     20  H   UNL     1      -1.249  10.166  20.132  0.00  0.00    +0.000 HD
BRANCH  18  21
ATOM     21  C   UNL     1      -1.303  12.023  21.928  0.00  0.00    +0.000 A 
ATOM     22  C   UNL     1      -1.749  11.280  23.019  0.00  0.00    +0.000 A 
ATOM     23  N   UNL     1      -2.795  11.624  23.812  0.00  0.00    +0.000 NA
ATOM     24  C   UNL     1      -3.426  12.776  23.522  0.00  0.00    +0.000 A 
ATOM     25  C   UNL     1      -3.064  13.592  22.466  0.00  0.00    +0.000 A 
ATOM     26  C   UNL     1      -1.990  13.207  21.659  0.00  0.00    +0.000 A 
ATOM     27 CL   UNL     1      -1.568  14.290  20.378  0.00  0.00    +0.000 Cl
ENDBRANCH  18  21
ENDBRANCH   1  19
TORSDOF 3
ENDMDL
MODEL 9
REMARK VINA RESULT:      -7.9      2.307      2.910
REMARK  Name = 
REMARK  3 active torsions:
REMARK  status: ('A' for Active; 'I' for Inactive)
REMARK    1  A    between atoms: C_2  and  C_20
REMARK    2  A    between atoms: N_3  and  C_4
REMARK    3  A    between atoms: C_9  and  C_10
REMARK                            x       y       z     vdW  Elec       q    Type
REMARK                         _______ _______ _______ _____ _____    ______ ____
ROOT
ATOM      1  C   UNL     1       1.606   8.187  19.875  0.00  0.00    +0.000 A 
ATOM      2  C   UNL     1       1.119   7.385  20.909  0.00  0.00    +0.000 A 
ATOM      3  C   UNL     1       1.477   6.041  20.991  0.00  0.00    +0.000 A 
ATOM      4  C   UNL     1       2.330   5.494  20.041  0.00  0.00    +0.000 A 
ATOM      5  F   UNL     1       2.659   4.201  20.186  0.00  0.00    +0.000 F 
ATOM      6  C   UNL     1       2.832   6.261  18.986  0.00  0.00    +0.000 A 
ATOM      7  C   UNL     1       2.436   7.612  18.899  0.00  0.00    +0.000 A 
ENDROOT
BRANCH   6   8
ATOM      8  C   UNL     1       3.779   5.716  18.017  0.00  0.00    +0.000 A 
ATOM      9  N   UNL     1       3.607   4.753  17.125  0.00  0.00    +0.000 NA
ATOM     10  C   UNL     1       4.801   4.728  16.441  0.00  0.00    +0.000 A 
ATOM     11  C   UNL     1       5.245   3.946  15.364  0.00  0.00    +0.000 A 
ATOM     12  C   UNL     1       6.539   4.174  14.865  0.00  0.00    +0.000 A 
ATOM     13  C   UNL     1       7.374   5.152  15.426  0.00  0.00    +0.000 A 
ATOM     14  C   UNL     1       6.948   5.936  16.503  0.00  0.00    +0.000 A 
ATOM     15  C   UNL     1       5.662   5.677  16.960  0.00  0.00    +0.000 A 
ATOM     16  O   UNL     1       5.015   6.310  17.974  0.00  0.00    +0.000 OA
ENDBRANCH   6   8
BRANCH   1  19
ATOM     17  O   UNL     1      -0.012   9.575  17.865  0.00  0.00    +0.000 OA
ATOM     18  C   UNL     1       0.530  10.162  18.798  0.00  0.00    +0.000 C 
ATOM     19  N   UNL     1       1.315   9.567  19.771  0.00  0.00    +0.000 N 
ATOM     20  H   UNL     1       1.610  10.144  20.551  0.00  0.00    +0.000 HD
BRANCH  18  21
ATOM     21  C   UNL     1       0.311  11.627  18.880  0.00  0.00    +0.000 A 
ATOM     22  C   UNL     1      -0.921  12.036  19.385  0.00  0.00    +0.000 A 
ATOM     23  N   UNL     1      -1.290  13.328  19.572  0.00  0.00    +0.000 NA
ATOM     24  C   UNL     1      -0.384  14.271  19.258  0.00  0.00    +0.000 A 
ATOM     25  C   UNL     1       0.870  13.978  18.754  0.00  0.00    +0.000 A 
ATOM     26  C   UNL     1       1.219  12.638  18.561  0.00  0.00    +0.000 A 
ATOM     27 CL   UNL     1       2.813  12.341  17.962  0.00  0.00    +0.000 Cl
ENDBRANCH  18  21
ENDBRANCH   1  19
TORSDOF 3
ENDMDL
