MODEL 1
REMARK VINA RESULT:      -7.7      0.000      0.000
REMARK  Name = 
REMARK  13 active torsions:
REMARK  status: ('A' for Active; 'I' for Inactive)
REMARK    1  A    between atoms: C_1  and  C_2
REMARK    2  A    between atoms: C_2  and  O_3
REMARK    3  A    between atoms: O_3  and  C_4
REMARK    4  A    between atoms: C_4  and  N_6
REMARK    5  A    between atoms: S_7  and  C_8
REMARK    6  A    between atoms: S_7  and  C_10
REMARK    7  A    between atoms: C_13  and  N_14
REMARK    8  A    between atoms: C_20  and  O_21
REMARK    9  A    between atoms: O_21  and  C_22
REMARK   10  A    between atoms: C_22  and  C_23
REMARK   11  A    between atoms: C_22  and  C_24
REMARK   12  A    between atoms: C_24  and  C_25
REMARK   13  A    between atoms: C_24  and  O_26
REMARK                            x       y       z     vdW  Elec       q    Type
REMARK                         _______ _______ _______ _____ _____    ______ ____
ROOT
ATOM      1  N   UNL     1       2.513   5.745  19.022  0.00  0.00    +0.000 N 
ATOM      2  C   UNL     1       3.441   5.303  18.073  0.00  0.00    +0.000 A 
ATOM      3  N   UNL     1       3.248   4.085  17.549  0.00  0.00    +0.000 NA
ATOM      4  C   UNL     1       4.065   3.723  16.526  0.00  0.00    +0.000 A 
ATOM      5  C   UNL     1       5.077   4.520  16.031  0.00  0.00    +0.000 A 
ATOM      6 BR   UNL     1       6.108   3.963  14.562  0.00  0.00    +0.000 Br
ATOM      7  C   UNL     1       5.253   5.713  16.692  0.00  0.00    +0.000 A 
ATOM      8  N   UNL     1       4.436   6.104  17.683  0.00  0.00    +0.000 NA
ATOM      9  H   UNL     1       1.801   5.037  19.129  0.00  0.00    +0.000 HD
ENDROOT
BRANCH   1  13
ATOM     10  C   UNL     1       1.194   9.658  19.915  0.00  0.00    +0.000 A 
ATOM     11  C   UNL     1       1.287   8.697  20.925  0.00  0.00    +0.000 A 
ATOM     12  C   UNL     1       1.757   7.411  20.619  0.00  0.00    +0.000 A 
ATOM     13  C   UNL     1       2.116   7.066  19.308  0.00  0.00    +0.000 A 
ATOM     14  C   UNL     1       2.080   8.081  18.342  0.00  0.00    +0.000 A 
ATOM     15  C   UNL     1       1.616   9.362  18.627  0.00  0.00    +0.000 A 
BRANCH  10  17
ATOM     16  N   UNL     1      -0.932  11.244  19.691  0.00  0.00    +0.000 NA
ATOM     17  S   UNL     1       0.501  11.270  20.235  0.00  0.00    +0.000 S 
ATOM     18  C   UNL     1       1.495  12.296  19.173  0.00  0.00    +0.000 C 
ATOM     19  O   UNL     1       0.845  11.605  21.605  0.00  0.00    +0.000 OA
BRANCH  16  20
ATOM     20  C   UNL     1      -1.710  12.381  19.845  0.00  0.00    +0.000 C 
ATOM     21  O   UNL     1      -1.595  13.383  19.154  0.00  0.00    +0.000 OA
BRANCH  20  22
ATOM     22  O   UNL     1      -2.681  12.213  20.778  0.00  0.00    +0.000 OA
BRANCH  22  24
ATOM     23  C   UNL     1      -2.452  11.987  23.178  0.00  0.00    +0.000 C 
ATOM     24  C   UNL     1      -2.477  12.940  21.995  0.00  0.00    +0.000 C 
ENDBRANCH  22  24
ENDBRANCH  20  22
ENDBRANCH  16  20
ENDBRANCH  10  17
ENDBRANCH   1  13
BRANCH   7  25
ATOM     25  O   UNL     1       6.242   6.603  16.306  0.00  0.00    +0.000 OA
BRANCH  25  26
ATOM     26  C   UNL     1       7.472   6.444  17.055  0.00  0.00    +0.000 C 
ATOM     27  C   UNL     1       7.781   7.753  17.782  0.00  0.00    +0.000 C 
BRANCH  26  28
ATOM     28  C   UNL     1       7.385   5.267  18.056  0.00  0.00    +0.000 C 
ATOM     29  C   UNL     1       7.770   5.647  19.481  0.00  0.00    +0.000 C 
BRANCH  28  30
ATOM     30  O   UNL     1       8.187   4.160  17.645  0.00  0.00    +0.000 OA
ATOM     31  H   UNL     1       8.444   4.317  16.720  0.00  0.00    +0.000 HD
ENDBRANCH  28  30
ENDBRANCH  26  28
ENDBRANCH  25  26
ENDBRANCH   7  25
TORSDOF 9
ENDMDL
MODEL 2
REMARK VINA RESULT:      -7.6      0.944      1.340
REMARK  Name = 
REMARK  13 active torsions:
REMARK  status: ('A' for Active; 'I' for Inactive)
REMARK    1  A    between atoms: C_1  and  C_2
REMARK    2  A    between atoms: C_2  and  O_3
REMARK    3  A    between atoms: O_3  and  C_4
REMARK    4  A    between atoms: C_4  and  N_6
REMARK    5  A    between atoms: S_7  and  C_8
REMARK    6  A    between atoms: S_7  and  C_10
REMARK    7  A    between atoms: C_13  and  N_14
REMARK    8  A    between atoms: C_20  and  O_21
REMARK    9  A    between atoms: O_21  and  C_22
REMARK   10  A    between atoms: C_22  and  C_23
REMARK   11  A    between atoms: C_22  and  C_24
REMARK   12  A    between atoms: C_24  and  C_25
REMARK   13  A    between atoms: C_24  and  O_26
REMARK                            x       y       z     vdW  Elec       q    Type
REMARK                         _______ _______ _______ _____ _____    ______ ____
ROOT
ATOM      1  N   UNL     1       2.474   5.751  19.264  0.00  0.00    +0.000 N 
ATOM      2  C   UNL     1       3.368   5.313  18.281  0.00  0.00    +0.000 A 
ATOM      3  N   UNL     1       3.191   4.075  17.801  0.00  0.00    +0.000 NA
ATOM      4  C   UNL     1       3.968   3.711  16.748  0.00  0.00    +0.000 A 
ATOM      5  C   UNL     1       4.925   4.527  16.180  0.00  0.00    +0.000 A 
ATOM      6 BR   UNL     1       5.900   3.963  14.675  0.00  0.00    +0.000 Br
ATOM      7  C   UNL     1       5.093   5.744  16.798  0.00  0.00    +0.000 A 
ATOM      8  N   UNL     1       4.314   6.136  17.818  0.00  0.00    +0.000 NA
ATOM      9  H   UNL     1       1.794   5.022  19.427  0.00  0.00    +0.000 HD
ENDROOT
BRANCH   1  13
ATOM     10  C   UNL     1       1.063   9.643  20.110  0.00  0.00    +0.000 A 
ATOM     11  C   UNL     1       1.166   8.692  21.129  0.00  0.00    +0.000 A 
ATOM     12  C   UNL     1       1.666   7.414  20.839  0.00  0.00    +0.000 A 
ATOM     13  C   UNL     1       2.047   7.065  19.535  0.00  0.00    +0.000 A 
ATOM     14  C   UNL     1       1.999   8.071  18.560  0.00  0.00    +0.000 A 
ATOM     15  C   UNL     1       1.504   9.344  18.829  0.00  0.00    +0.000 A 
BRANCH  10  17
ATOM     16  N   UNL     1      -0.862  11.360  19.454  0.00  0.00    +0.000 NA
ATOM     17  S   UNL     1       0.332  11.241  20.408  0.00  0.00    +0.000 S 
ATOM     18  C   UNL     1       1.624  12.328  19.842  0.00  0.00    +0.000 C 
ATOM     19  O   UNL     1       0.240  11.393  21.849  0.00  0.00    +0.000 OA
BRANCH  16  20
ATOM     20  C   UNL     1      -1.630  12.513  19.508  0.00  0.00    +0.000 C 
ATOM     21  O   UNL     1      -1.162  13.643  19.505  0.00  0.00    +0.000 OA
BRANCH  20  22
ATOM     22  O   UNL     1      -2.959  12.244  19.458  0.00  0.00    +0.000 OA
BRANCH  22  24
ATOM     23  C   UNL     1      -4.888  11.577  18.156  0.00  0.00    +0.000 C 
ATOM     24  C   UNL     1      -3.378  11.497  18.312  0.00  0.00    +0.000 C 
ENDBRANCH  22  24
ENDBRANCH  20  22
ENDBRANCH  16  20
ENDBRANCH  10  17
ENDBRANCH   1  13
BRANCH   7  25
ATOM     25  O   UNL     1       6.029   6.655  16.338  0.00  0.00    +0.000 OA
BRANCH  25  26
ATOM     26  C   UNL     1       7.328   6.496  16.959  0.00  0.00    +0.000 C 
ATOM     27  C   UNL     1       7.707   7.803  17.656  0.00  0.00    +0.000 C 
BRANCH  26  28
ATOM     28  C   UNL     1       7.344   5.314  17.958  0.00  0.00    +0.000 C 
ATOM     29  C   UNL     1       7.811   5.704  19.356  0.00  0.00    +0.000 C 
BRANCH  28  30
ATOM     30  O   UNL     1       8.152   4.234  17.491  0.00  0.00    +0.000 OA
ATOM     31  H   UNL     1       9.079   4.523  17.543  0.00  0.00    +0.000 HD
ENDBRANCH  28  30
ENDBRANCH  26  28
ENDBRANCH  25  26
ENDBRANCH   7  25
TORSDOF 9
ENDMDL
MODEL 3
REMARK VINA RESULT:      -7.6      1.557      2.406
REMARK  Name = 
REMARK  13 active torsions:
REMARK  status: ('A' for Active; 'I' for Inactive)
REMARK    1  A    between atoms: C_1  and  C_2
REMARK    2  A    between atoms: C_2  and  O_3
REMARK    3  A    between atoms: O_3  and  C_4
REMARK    4  A    between atoms: C_4  and  N_6
REMARK    5  A    between atoms: S_7  and  C_8
REMARK    6  A    between atoms: S_7  and  C_10
REMARK    7  A    between atoms: C_13  and  N_14
REMARK    8  A    between atoms: C_20  and  O_21
REMARK    9  A    between atoms: O_21  and  C_22
REMARK   10  A    between atoms: C_22  and  C_23
REMARK   11  A    between atoms: C_22  and  C_24
REMARK   12  A    between atoms: C_24  and  C_25
REMARK   13  A    between atoms: C_24  and  O_26
REMARK                            x       y       z     vdW  Elec       q    Type
REMARK                         _______ _______ _______ _____ _____    ______ ____
ROOT
ATOM      1  N   UNL     1       2.450   5.868  19.196  0.00  0.00    +0.000 N 
ATOM      2  C   UNL     1       3.366   5.397  18.249  0.00  0.00    +0.000 A 
ATOM      3  N   UNL     1       3.176   4.158  17.777  0.00  0.00    +0.000 NA
ATOM      4  C   UNL     1       3.980   3.763  16.756  0.00  0.00    +0.000 A 
ATOM      5  C   UNL     1       4.976   4.549  16.213  0.00  0.00    +0.000 A 
ATOM      6 BR   UNL     1       5.988   3.944  14.750  0.00  0.00    +0.000 Br
ATOM      7  C   UNL     1       5.152   5.769  16.823  0.00  0.00    +0.000 A 
ATOM      8  N   UNL     1       4.347   6.191  17.812  0.00  0.00    +0.000 NA
ATOM      9  H   UNL     1       1.746   5.158  19.342  0.00  0.00    +0.000 HD
ENDROOT
BRANCH   1  13
ATOM     10  C   UNL     1       1.108   9.802  19.954  0.00  0.00    +0.000 A 
ATOM     11  C   UNL     1       1.199   8.874  20.995  0.00  0.00    +0.000 A 
ATOM     12  C   UNL     1       1.677   7.582  20.734  0.00  0.00    +0.000 A 
ATOM     13  C   UNL     1       2.045   7.195  19.437  0.00  0.00    +0.000 A 
ATOM     14  C   UNL     1       2.009   8.178  18.438  0.00  0.00    +0.000 A 
ATOM     15  C   UNL     1       1.538   9.466  18.679  0.00  0.00    +0.000 A 
BRANCH  10  17
ATOM     16  N   UNL     1       1.531  12.299  20.774  0.00  0.00    +0.000 NA
ATOM     17  S   UNL     1       0.405  11.419  20.218  0.00  0.00    +0.000 S 
ATOM     18  C   UNL     1      -0.757  11.088  21.525  0.00  0.00    +0.000 C 
ATOM     19  O   UNL     1      -0.362  11.737  19.027  0.00  0.00    +0.000 OA
BRANCH  16  20
ATOM     20  C   UNL     1       1.251  13.630  21.038  0.00  0.00    +0.000 C 
ATOM     21  O   UNL     1       1.073  14.079  22.161  0.00  0.00    +0.000 OA
BRANCH  20  22
ATOM     22  O   UNL     1       1.300  14.395  19.917  0.00  0.00    +0.000 OA
BRANCH  22  24
ATOM     23  C   UNL     1       1.900  16.450  18.787  0.00  0.00    +0.000 C 
ATOM     24  C   UNL     1       1.967  15.651  20.077  0.00  0.00    +0.000 C 
ENDBRANCH  22  24
ENDBRANCH  20  22
ENDBRANCH  16  20
ENDBRANCH  10  17
ENDBRANCH   1  13
BRANCH   7  25
ATOM     25  O   UNL     1       6.126   6.651  16.387  0.00  0.00    +0.000 OA
BRANCH  25  26
ATOM     26  C   UNL     1       7.399   6.465  17.052  0.00  0.00    +0.000 C 
ATOM     27  C   UNL     1       7.789   7.769  17.748  0.00  0.00    +0.000 C 
BRANCH  26  28
ATOM     28  C   UNL     1       7.351   5.294  18.063  0.00  0.00    +0.000 C 
ATOM     29  C   UNL     1       7.774   5.688  19.473  0.00  0.00    +0.000 C 
BRANCH  28  30
ATOM     30  O   UNL     1       8.151   4.191  17.637  0.00  0.00    +0.000 OA
ATOM     31  H   UNL     1       7.802   3.896  16.778  0.00  0.00    +0.000 HD
ENDBRANCH  28  30
ENDBRANCH  26  28
ENDBRANCH  25  26
ENDBRANCH   7  25
TORSDOF 9
ENDMDL
MODEL 4
REMARK VINA RESULT:      -7.4      1.197      1.703
REMARK  Name = 
REMARK  13 active torsions:
REMARK  status: ('A' for Active; 'I' for Inactive)
REMARK    1  A    between atoms: C_1  and  C_2
REMARK    2  A    between atoms: C_2  and  O_3
REMARK    3  A    between atoms: O_3  and  C_4
REMARK    4  A    between atoms: C_4  and  N_6
REMARK    5  A    between atoms: S_7  and  C_8
REMARK    6  A    between atoms: S_7  and  C_10
REMARK    7  A    between atoms: C_13  and  N_14
REMARK    8  A    between atoms: C_20  and  O_21
REMARK    9  A    between atoms: O_21  and  C_22
REMARK   10  A    between atoms: C_22  and  C_23
REMARK   11  A    between atoms: C_22  and  C_24
REMARK   12  A    between atoms: C_24  and  C_25
REMARK   13  A    between atoms: C_24  and  O_26
REMARK                            x       y       z     vdW  Elec       q    Type
REMARK                         _______ _______ _______ _____ _____    ______ ____
ROOT
ATOM      1  N   UNL     1       2.462   5.729  19.161  0.00  0.00    +0.000 N 
ATOM      2  C   UNL     1       3.383   5.291  18.204  0.00  0.00    +0.000 A 
ATOM      3  N   UNL     1       3.210   4.059  17.707  0.00  0.00    +0.000 NA
ATOM      4  C   UNL     1       4.018   3.697  16.676  0.00  0.00    +0.000 A 
ATOM      5  C   UNL     1       5.000   4.509  16.147  0.00  0.00    +0.000 A 
ATOM      6 BR   UNL     1       6.018   3.948  14.670  0.00  0.00    +0.000 Br
ATOM      7  C   UNL     1       5.159   5.718  16.781  0.00  0.00    +0.000 A 
ATOM      8  N   UNL     1       4.351   6.109  17.779  0.00  0.00    +0.000 NA
ATOM      9  H   UNL     1       1.769   5.007  19.295  0.00  0.00    +0.000 HD
ENDROOT
BRANCH   1  13
ATOM     10  C   UNL     1       1.063   9.627  20.002  0.00  0.00    +0.000 A 
ATOM     11  C   UNL     1       1.186   8.685  21.026  0.00  0.00    +0.000 A 
ATOM     12  C   UNL     1       1.683   7.405  20.737  0.00  0.00    +0.000 A 
ATOM     13  C   UNL     1       2.038   7.046  19.429  0.00  0.00    +0.000 A 
ATOM     14  C   UNL     1       1.970   8.044  18.447  0.00  0.00    +0.000 A 
ATOM     15  C   UNL     1       1.480   9.319  18.715  0.00  0.00    +0.000 A 
BRANCH  10  17
ATOM     16  N   UNL     1      -0.333  11.655  18.990  0.00  0.00    +0.000 NA
ATOM     17  S   UNL     1       0.337  11.228  20.301  0.00  0.00    +0.000 S 
ATOM     18  C   UNL     1       1.787  12.229  20.554  0.00  0.00    +0.000 C 
ATOM     19  O   UNL     1      -0.354  11.138  21.575  0.00  0.00    +0.000 OA
BRANCH  16  20
ATOM     20  C   UNL     1      -1.006  12.866  18.964  0.00  0.00    +0.000 C 
ATOM     21  O   UNL     1      -1.973  13.123  19.669  0.00  0.00    +0.000 OA
BRANCH  20  22
ATOM     22  O   UNL     1      -0.405  13.769  18.148  0.00  0.00    +0.000 OA
BRANCH  22  24
ATOM     23  C   UNL     1      -0.418  16.125  18.705  0.00  0.00    +0.000 C 
ATOM     24  C   UNL     1       0.319  14.802  18.824  0.00  0.00    +0.000 C 
ENDBRANCH  22  24
ENDBRANCH  20  22
ENDBRANCH  16  20
ENDBRANCH  10  17
ENDBRANCH   1  13
BRANCH   7  25
ATOM     25  O   UNL     1       6.119   6.624  16.360  0.00  0.00    +0.000 OA
BRANCH  25  26
ATOM     26  C   UNL     1       7.392   6.455  17.031  0.00  0.00    +0.000 C 
ATOM     27  C   UNL     1       7.749   7.757  17.748  0.00  0.00    +0.000 C 
BRANCH  26  28
ATOM     28  C   UNL     1       7.362   5.269  18.025  0.00  0.00    +0.000 C 
ATOM     29  C   UNL     1       7.732   5.660  19.451  0.00  0.00    +0.000 C 
BRANCH  28  30
ATOM     30  O   UNL     1       8.214   4.203  17.606  0.00  0.00    +0.000 OA
ATOM     31  H   UNL     1       7.659   3.411  17.511  0.00  0.00    +0.000 HD
ENDBRANCH  28  30
ENDBRANCH  26  28
ENDBRANCH  25  26
ENDBRANCH   7  25
TORSDOF 9
ENDMDL
MODEL 5
REMARK VINA RESULT:      -7.4      1.510      2.256
REMARK  Name = 
REMARK  13 active torsions:
REMARK  status: ('A' for Active; 'I' for Inactive)
REMARK    1  A    between atoms: C_1  and  C_2
REMARK    2  A    between atoms: C_2  and  O_3
REMARK    3  A    between atoms: O_3  and  C_4
REMARK    4  A    between atoms: C_4  and  N_6
REMARK    5  A    between atoms: S_7  and  C_8
REMARK    6  A    between atoms: S_7  and  C_10
REMARK    7  A    between atoms: C_13  and  N_14
REMARK    8  A    between atoms: C_20  and  O_21
REMARK    9  A    between atoms: O_21  and  C_22
REMARK   10  A    between atoms: C_22  and  C_23
REMARK   11  A    between atoms: C_22  and  C_24
REMARK   12  A    between atoms: C_24  and  C_25
REMARK   13  A    between atoms: C_24  and  O_26
REMARK                            x       y       z     vdW  Elec       q    Type
REMARK                         _______ _______ _______ _____ _____    ______ ____
ROOT
ATOM      1  N   UNL     1       2.418   6.043  18.994  0.00  0.00    +0.000 N 
ATOM      2  C   UNL     1       3.352   5.517  18.096  0.00  0.00    +0.000 A 
ATOM      3  N   UNL     1       3.144   4.268  17.658  0.00  0.00    +0.000 NA
ATOM      4  C   UNL     1       3.970   3.818  16.679  0.00  0.00    +0.000 A 
ATOM      5  C   UNL     1       5.006   4.558  16.146  0.00  0.00    +0.000 A 
ATOM      6 BR   UNL     1       6.050   3.877  14.740  0.00  0.00    +0.000 Br
ATOM      7  C   UNL     1       5.195   5.792  16.722  0.00  0.00    +0.000 A 
ATOM      8  N   UNL     1       4.370   6.269  17.667  0.00  0.00    +0.000 NA
ATOM      9  H   UNL     1       1.690   5.358  19.139  0.00  0.00    +0.000 HD
ENDROOT
BRANCH   1  13
ATOM     10  C   UNL     1       1.162  10.035  19.578  0.00  0.00    +0.000 A 
ATOM     11  C   UNL     1       1.212   9.147  20.655  0.00  0.00    +0.000 A 
ATOM     12  C   UNL     1       1.662   7.833  20.451  0.00  0.00    +0.000 A 
ATOM     13  C   UNL     1       2.043   7.389  19.177  0.00  0.00    +0.000 A 
ATOM     14  C   UNL     1       2.049   8.334  18.141  0.00  0.00    +0.000 A 
ATOM     15  C   UNL     1       1.606   9.641  18.324  0.00  0.00    +0.000 A 
BRANCH  10  17
ATOM     16  N   UNL     1       0.905  12.157  21.166  0.00  0.00    +0.000 NA
ATOM     17  S   UNL     1       0.496  11.679  19.767  0.00  0.00    +0.000 S 
ATOM     18  C   UNL     1      -1.254  11.350  19.766  0.00  0.00    +0.000 C 
ATOM     19  O   UNL     1       0.802  12.394  18.542  0.00  0.00    +0.000 OA
BRANCH  16  20
ATOM     20  C   UNL     1       0.533  13.434  21.554  0.00  0.00    +0.000 C 
ATOM     21  O   UNL     1      -0.627  13.818  21.611  0.00  0.00    +0.000 OA
BRANCH  20  22
ATOM     22  O   UNL     1       1.595  14.174  21.963  0.00  0.00    +0.000 OA
BRANCH  22  24
ATOM     23  C   UNL     1       3.820  15.039  21.557  0.00  0.00    +0.000 C 
ATOM     24  C   UNL     1       2.791  13.979  21.201  0.00  0.00    +0.000 C 
ENDBRANCH  22  24
ENDBRANCH  20  22
ENDBRANCH  16  20
ENDBRANCH  10  17
ENDBRANCH   1  13
BRANCH   7  25
ATOM     25  O   UNL     1       6.208   6.633  16.291  0.00  0.00    +0.000 OA
BRANCH  25  26
ATOM     26  C   UNL     1       7.439   6.468  17.037  0.00  0.00    +0.000 C 
ATOM     27  C   UNL     1       7.756   7.775  17.764  0.00  0.00    +0.000 C 
BRANCH  26  28
ATOM     28  C   UNL     1       7.348   5.290  18.037  0.00  0.00    +0.000 C 
ATOM     29  C   UNL     1       7.710   5.675  19.467  0.00  0.00    +0.000 C 
BRANCH  28  30
ATOM     30  O   UNL     1       8.166   4.190  17.639  0.00  0.00    +0.000 OA
ATOM     31  H   UNL     1       8.168   4.170  16.666  0.00  0.00    +0.000 HD
ENDBRANCH  28  30
ENDBRANCH  26  28
ENDBRANCH  25  26
ENDBRANCH   7  25
TORSDOF 9
ENDMDL
MODEL 6
REMARK VINA RESULT:      -7.4      1.611      2.348
REMARK  Name = 
REMARK  13 active torsions:
REMARK  status: ('A' for Active; 'I' for Inactive)
REMARK    1  A    between atoms: C_1  and  C_2
REMARK    2  A    between atoms: C_2  and  O_3
REMARK    3  A    between atoms: O_3  and  C_4
REMARK    4  A    between atoms: C_4  and  N_6
REMARK    5  A    between atoms: S_7  and  C_8
REMARK    6  A    between atoms: S_7  and  C_10
REMARK    7  A    between atoms: C_13  and  N_14
REMARK    8  A    between atoms: C_20  and  O_21
REMARK    9  A    between atoms: O_21  and  C_22
REMARK   10  A    between atoms: C_22  and  C_23
REMARK   11  A    between atoms: C_22  and  C_24
REMARK   12  A    between atoms: C_24  and  C_25
REMARK   13  A    between atoms: C_24  and  O_26
REMARK                            x       y       z     vdW  Elec       q    Type
REMARK                         _______ _______ _______ _____ _____    ______ ____
ROOT
ATOM      1  N   UNL     1       2.409   6.082  19.002  0.00  0.00    +0.000 N 
ATOM      2  C   UNL     1       3.345   5.550  18.109  0.00  0.00    +0.000 A 
ATOM      3  N   UNL     1       3.158   4.286  17.706  0.00  0.00    +0.000 NA
ATOM      4  C   UNL     1       3.984   3.826  16.731  0.00  0.00    +0.000 A 
ATOM      5  C   UNL     1       4.999   4.573  16.169  0.00  0.00    +0.000 A 
ATOM      6 BR   UNL     1       6.044   3.875  14.770  0.00  0.00    +0.000 Br
ATOM      7  C   UNL     1       5.169   5.825  16.710  0.00  0.00    +0.000 A 
ATOM      8  N   UNL     1       4.343   6.310  17.650  0.00  0.00    +0.000 NA
ATOM      9  H   UNL     1       1.696   5.386  19.172  0.00  0.00    +0.000 HD
ENDROOT
BRANCH   1  13
ATOM     10  C   UNL     1       1.341  10.148  19.422  0.00  0.00    +0.000 A 
ATOM     11  C   UNL     1       1.693   9.637  18.171  0.00  0.00    +0.000 A 
ATOM     12  C   UNL     1       2.015   8.277  18.041  0.00  0.00    +0.000 A 
ATOM     13  C   UNL     1       2.009   7.424  19.154  0.00  0.00    +0.000 A 
ATOM     14  C   UNL     1       1.576   7.961  20.374  0.00  0.00    +0.000 A 
ATOM     15  C   UNL     1       1.254   9.307  20.522  0.00  0.00    +0.000 A 
BRANCH  10  17
ATOM     16  N   UNL     1       0.729  12.083  21.145  0.00  0.00    +0.000 NA
ATOM     17  S   UNL     1       1.031  11.889  19.654  0.00  0.00    +0.000 S 
ATOM     18  C   UNL     1      -0.479  12.102  18.735  0.00  0.00    +0.000 C 
ATOM     19  O   UNL     1       2.077  12.595  18.938  0.00  0.00    +0.000 OA
BRANCH  16  20
ATOM     20  C   UNL     1       0.482  13.369  21.599  0.00  0.00    +0.000 C 
ATOM     21  O   UNL     1      -0.639  13.840  21.732  0.00  0.00    +0.000 OA
BRANCH  20  22
ATOM     22  O   UNL     1       1.619  14.004  21.979  0.00  0.00    +0.000 OA
BRANCH  22  24
ATOM     23  C   UNL     1       3.326  15.550  21.232  0.00  0.00    +0.000 C 
ATOM     24  C   UNL     1       1.837  15.272  21.351  0.00  0.00    +0.000 C 
ENDBRANCH  22  24
ENDBRANCH  20  22
ENDBRANCH  16  20
ENDBRANCH  10  17
ENDBRANCH   1  13
BRANCH   7  25
ATOM     25  O   UNL     1       6.161   6.674  16.247  0.00  0.00    +0.000 OA
BRANCH  25  26
ATOM     26  C   UNL     1       7.413   6.527  16.961  0.00  0.00    +0.000 C 
ATOM     27  C   UNL     1       7.722   7.834  17.691  0.00  0.00    +0.000 C 
BRANCH  26  28
ATOM     28  C   UNL     1       7.370   5.339  17.953  0.00  0.00    +0.000 C 
ATOM     29  C   UNL     1       7.788   5.713  19.370  0.00  0.00    +0.000 C 
BRANCH  28  30
ATOM     30  O   UNL     1       8.177   4.248  17.510  0.00  0.00    +0.000 OA
ATOM     31  H   UNL     1       7.974   4.101  16.571  0.00  0.00    +0.000 HD
ENDBRANCH  28  30
ENDBRANCH  26  28
ENDBRANCH  25  26
ENDBRANCH   7  25
TORSDOF 9
ENDMDL
MODEL 7
REMARK VINA RESULT:      -7.4      3.732      9.551
REMARK  Name = 
REMARK  13 active torsions:
REMARK  status: ('A' for Active; 'I' for Inactive)
REMARK    1  A    between atoms: C_1  and  C_2
REMARK    2  A    between atoms: C_2  and  O_3
REMARK    3  A    between atoms: O_3  and  C_4
REMARK    4  A    between atoms: C_4  and  N_6
REMARK    5  A    between atoms: S_7  and  C_8
REMARK    6  A    between atoms: S_7  and  C_10
REMARK    7  A    between atoms: C_13  and  N_14
REMARK    8  A    between atoms: C_20  and  O_21
REMARK    9  A    between atoms: O_21  and  C_22
REMARK   10  A    between atoms: C_22  and  C_23
REMARK   11  A    between atoms: C_22  and  C_24
REMARK   12  A    between atoms: C_24  and  C_25
REMARK   13  A    between atoms: C_24  and  O_26
REMARK                            x       y       z     vdW  Elec       q    Type
REMARK                         _______ _______ _______ _____ _____    ______ ____
ROOT
ATOM      1  N   UNL     1       1.845   6.981  20.479  0.00  0.00    +0.000 N 
ATOM      2  C   UNL     1       1.248   8.221  20.732  0.00  0.00    +0.000 A 
ATOM      3  N   UNL     1       0.816   8.449  21.980  0.00  0.00    +0.000 NA
ATOM      4  C   UNL     1       0.373   9.704  22.253  0.00  0.00    +0.000 A 
ATOM      5  C   UNL     1       0.323  10.721  21.323  0.00  0.00    +0.000 A 
ATOM      6 BR   UNL     1      -0.237  12.447  21.815  0.00  0.00    +0.000 Br
ATOM      7  C   UNL     1       0.703  10.366  20.050  0.00  0.00    +0.000 A 
ATOM      8  N   UNL     1       1.175   9.142  19.766  0.00  0.00    +0.000 NA
ATOM      9  H   UNL     1       1.874   6.457  21.342  0.00  0.00    +0.000 HD
ENDROOT
BRANCH   1  13
ATOM     10  C   UNL     1       4.926   6.069  17.736  0.00  0.00    +0.000 A 
ATOM     11  C   UNL     1       4.761   5.303  18.892  0.00  0.00    +0.000 A 
ATOM     12  C   UNL     1       3.714   5.598  19.777  0.00  0.00    +0.000 A 
ATOM     13  C   UNL     1       2.839   6.666  19.532  0.00  0.00    +0.000 A 
ATOM     14  C   UNL     1       2.994   7.360  18.324  0.00  0.00    +0.000 A 
ATOM     15  C   UNL     1       4.027   7.082  17.434  0.00  0.00    +0.000 A 
BRANCH  10  17
ATOM     16  N   UNL     1       5.759   5.033  15.430  0.00  0.00    +0.000 NA
ATOM     17  S   UNL     1       6.306   5.801  16.639  0.00  0.00    +0.000 S 
ATOM     18  C   UNL     1       7.314   4.698  17.607  0.00  0.00    +0.000 C 
ATOM     19  O   UNL     1       7.014   7.065  16.547  0.00  0.00    +0.000 OA
BRANCH  16  20
ATOM     20  C   UNL     1       6.636   4.723  14.402  0.00  0.00    +0.000 C 
ATOM     21  O   UNL     1       7.661   5.348  14.169  0.00  0.00    +0.000 OA
BRANCH  20  22
ATOM     22  O   UNL     1       6.281   3.585  13.752  0.00  0.00    +0.000 OA
BRANCH  22  24
ATOM     23  C   UNL     1       5.660   2.435  11.714  0.00  0.00    +0.000 C 
ATOM     24  C   UNL     1       6.261   3.690  12.325  0.00  0.00    +0.000 C 
ENDBRANCH  22  24
ENDBRANCH  20  22
ENDBRANCH  16  20
ENDBRANCH  10  17
ENDBRANCH   1  13
BRANCH   7  25
ATOM     25  O   UNL     1       0.688  11.287  19.016  0.00  0.00    +0.000 OA
BRANCH  25  26
ATOM     26  C   UNL     1      -0.525  12.079  18.980  0.00  0.00    +0.000 C 
ATOM     27  C   UNL     1      -0.166  13.516  18.601  0.00  0.00    +0.000 C 
BRANCH  26  28
ATOM     28  C   UNL     1      -1.562  11.492  17.993  0.00  0.00    +0.000 C 
ATOM     29  C   UNL     1      -1.298  10.037  17.623  0.00  0.00    +0.000 C 
BRANCH  28  30
ATOM     30  O   UNL     1      -1.648  12.261  16.792  0.00  0.00    +0.000 OA
ATOM     31  H   UNL     1      -1.302  13.147  16.993  0.00  0.00    +0.000 HD
ENDBRANCH  28  30
ENDBRANCH  26  28
ENDBRANCH  25  26
ENDBRANCH   7  25
TORSDOF 9
ENDMDL
MODEL 8
REMARK VINA RESULT:      -7.4      0.876      1.371
REMARK  Name = 
REMARK  13 active torsions:
REMARK  status: ('A' for Active; 'I' for Inactive)
REMARK    1  A    between atoms: C_1  and  C_2
REMARK    2  A    between atoms: C_2  and  O_3
REMARK    3  A    between atoms: O_3  and  C_4
REMARK    4  A    between atoms: C_4  and  N_6
REMARK    5  A    between atoms: S_7  and  C_8
REMARK    6  A    between atoms: S_7  and  C_10
REMARK    7  A    between atoms: C_13  and  N_14
REMARK    8  A    between atoms: C_20  and  O_21
REMARK    9  A    between atoms: O_21  and  C_22
REMARK   10  A    between atoms: C_22  and  C_23
REMARK   11  A    between atoms: C_22  and  C_24
REMARK   12  A    between atoms: C_24  and  C_25
REMARK   13  A    between atoms: C_24  and  O_26
REMARK                            x       y       z     vdW  Elec       q    Type
REMARK                         _______ _______ _______ _____ _____    ______ ____
ROOT
ATOM      1  N   UNL     1       2.493   5.576  19.149  0.00  0.00    +0.000 N 
ATOM      2  C   UNL     1       3.425   5.173  18.187  0.00  0.00    +0.000 A 
ATOM      3  N   UNL     1       3.304   3.930  17.700  0.00  0.00    +0.000 NA
ATOM      4  C   UNL     1       4.119   3.597  16.666  0.00  0.00    +0.000 A 
ATOM      5  C   UNL     1       5.059   4.448  16.122  0.00  0.00    +0.000 A 
ATOM      6 BR   UNL     1       6.090   3.922  14.641  0.00  0.00    +0.000 Br
ATOM      7  C   UNL     1       5.169   5.668  16.746  0.00  0.00    +0.000 A 
ATOM      8  N   UNL     1       4.352   6.029  17.748  0.00  0.00    +0.000 NA
ATOM      9  H   UNL     1       1.835   4.824  19.293  0.00  0.00    +0.000 HD
ENDROOT
BRANCH   1  13
ATOM     10  C   UNL     1       1.181   9.521  19.903  0.00  0.00    +0.000 A 
ATOM     11  C   UNL     1       1.547   9.134  18.611  0.00  0.00    +0.000 A 
ATOM     12  C   UNL     1       1.950   7.812  18.370  0.00  0.00    +0.000 A 
ATOM     13  C   UNL     1       2.013   6.874  19.411  0.00  0.00    +0.000 A 
ATOM     14  C   UNL     1       1.565   7.284  20.675  0.00  0.00    +0.000 A 
ATOM     15  C   UNL     1       1.162   8.592  20.933  0.00  0.00    +0.000 A 
BRANCH  10  17
ATOM     16  N   UNL     1      -0.760  11.321  20.189  0.00  0.00    +0.000 NA
ATOM     17  S   UNL     1       0.767  11.215  20.277  0.00  0.00    +0.000 S 
ATOM     18  C   UNL     1       1.478  12.065  18.883  0.00  0.00    +0.000 C 
ATOM     19  O   UNL     1       1.542  11.582  21.448  0.00  0.00    +0.000 OA
BRANCH  16  20
ATOM     20  C   UNL     1      -1.347  12.544  20.470  0.00  0.00    +0.000 C 
ATOM     21  O   UNL     1      -0.869  13.368  21.237  0.00  0.00    +0.000 OA
BRANCH  20  22
ATOM     22  O   UNL     1      -2.456  12.764  19.719  0.00  0.00    +0.000 OA
BRANCH  22  24
ATOM     23  C   UNL     1      -4.844  12.403  19.554  0.00  0.00    +0.000 C 
ATOM     24  C   UNL     1      -3.684  12.793  20.454  0.00  0.00    +0.000 C 
ENDBRANCH  22  24
ENDBRANCH  20  22
ENDBRANCH  16  20
ENDBRANCH  10  17
ENDBRANCH   1  13
BRANCH   7  25
ATOM     25  O   UNL     1       6.084   6.613  16.311  0.00  0.00    +0.000 OA
BRANCH  25  26
ATOM     26  C   UNL     1       7.372   6.499  16.964  0.00  0.00    +0.000 C 
ATOM     27  C   UNL     1       7.698   7.826  17.649  0.00  0.00    +0.000 C 
BRANCH  26  28
ATOM     28  C   UNL     1       7.397   5.333  17.981  0.00  0.00    +0.000 C 
ATOM     29  C   UNL     1       7.884   5.742  19.366  0.00  0.00    +0.000 C 
BRANCH  28  30
ATOM     30  O   UNL     1       8.194   4.242  17.520  0.00  0.00    +0.000 OA
ATOM     31  H   UNL     1       8.768   4.583  16.813  0.00  0.00    +0.000 HD
ENDBRANCH  28  30
ENDBRANCH  26  28
ENDBRANCH  25  26
ENDBRANCH   7  25
TORSDOF 9
ENDMDL
MODEL 9
REMARK VINA RESULT:      -7.3      1.250      1.687
REMARK  Name = 
REMARK  13 active torsions:
REMARK  status: ('A' for Active; 'I' for Inactive)
REMARK    1  A    between atoms: C_1  and  C_2
REMARK    2  A    between atoms: C_2  and  O_3
REMARK    3  A    between atoms: O_3  and  C_4
REMARK    4  A    between atoms: C_4  and  N_6
REMARK    5  A    between atoms: S_7  and  C_8
REMARK    6  A    between atoms: S_7  and  C_10
REMARK    7  A    between atoms: C_13  and  N_14
REMARK    8  A    between atoms: C_20  and  O_21
REMARK    9  A    between atoms: O_21  and  C_22
REMARK   10  A    between atoms: C_22  and  C_23
REMARK   11  A    between atoms: C_22  and  C_24
REMARK   12  A    between atoms: C_24  and  C_25
REMARK   13  A    between atoms: C_24  and  O_26
REMARK                            x       y       z     vdW  Elec       q    Type
REMARK                         _______ _______ _______ _____ _____    ______ ____
ROOT
ATOM      1  N   UNL     1       2.417   5.939  19.031  0.00  0.00    +0.000 N 
ATOM      2  C   UNL     1       3.345   5.444  18.109  0.00  0.00    +0.000 A 
ATOM      3  N   UNL     1       3.166   4.190  17.673  0.00  0.00    +0.000 NA
ATOM      4  C   UNL     1       3.982   3.768  16.672  0.00  0.00    +0.000 A 
ATOM      5  C   UNL     1       4.979   4.542  16.116  0.00  0.00    +0.000 A 
ATOM      6 BR   UNL     1       6.009   3.897  14.682  0.00  0.00    +0.000 Br
ATOM      7  C   UNL     1       5.143   5.781  16.690  0.00  0.00    +0.000 A 
ATOM      8  N   UNL     1       4.327   6.229  17.657  0.00  0.00    +0.000 NA
ATOM      9  H   UNL     1       1.715   5.231  19.192  0.00  0.00    +0.000 HD
ENDROOT
BRANCH   1  13
ATOM     10  C   UNL     1       1.309   9.979  19.583  0.00  0.00    +0.000 A 
ATOM     11  C   UNL     1       1.639   9.505  18.311  0.00  0.00    +0.000 A 
ATOM     12  C   UNL     1       1.974   8.154  18.138  0.00  0.00    +0.000 A 
ATOM     13  C   UNL     1       2.004   7.271  19.228  0.00  0.00    +0.000 A 
ATOM     14  C   UNL     1       1.594   7.771  20.472  0.00  0.00    +0.000 A 
ATOM     15  C   UNL     1       1.259   9.108  20.662  0.00  0.00    +0.000 A 
BRANCH  10  17
ATOM     16  N   UNL     1       0.470  11.824  21.309  0.00  0.00    +0.000 NA
ATOM     17  S   UNL     1       0.984  11.709  19.869  0.00  0.00    +0.000 S 
ATOM     18  C   UNL     1      -0.374  11.998  18.755  0.00  0.00    +0.000 C 
ATOM     19  O   UNL     1       2.129  12.437  19.353  0.00  0.00    +0.000 OA
BRANCH  16  20
ATOM     20  C   UNL     1       0.170  13.086  21.796  0.00  0.00    +0.000 C 
ATOM     21  O   UNL     1       1.011  13.943  22.031  0.00  0.00    +0.000 OA
BRANCH  20  22
ATOM     22  O   UNL     1      -1.168  13.297  21.881  0.00  0.00    +0.000 OA
BRANCH  22  24
ATOM     23  C   UNL     1      -2.888  14.962  22.247  0.00  0.00    +0.000 C 
ATOM     24  C   UNL     1      -1.590  14.620  21.534  0.00  0.00    +0.000 C 
ENDBRANCH  22  24
ENDBRANCH  20  22
ENDBRANCH  16  20
ENDBRANCH  10  17
ENDBRANCH   1  13
BRANCH   7  25
ATOM     25  O   UNL     1       6.118   6.654  16.236  0.00  0.00    +0.000 OA
BRANCH  25  26
ATOM     26  C   UNL     1       7.380   6.507  16.931  0.00  0.00    +0.000 C 
ATOM     27  C   UNL     1       7.699   7.813  17.659  0.00  0.00    +0.000 C 
BRANCH  26  28
ATOM     28  C   UNL     1       7.353   5.317  17.921  0.00  0.00    +0.000 C 
ATOM     29  C   UNL     1       7.776   5.692  19.337  0.00  0.00    +0.000 C 
BRANCH  28  30
ATOM     30  O   UNL     1       8.168   4.234  17.473  0.00  0.00    +0.000 OA
ATOM     31  H   UNL     1       8.959   4.620  17.059  0.00  0.00    +0.000 HD
ENDBRANCH  28  30
ENDBRANCH  26  28
ENDBRANCH  25  26
ENDBRANCH   7  25
TORSDOF 9
ENDMDL
