MODEL 1
REMARK VINA RESULT:      -8.0      0.000      0.000
REMARK  Name = 
REMARK  8 active torsions:
REMARK  status: ('A' for Active; 'I' for Inactive)
REMARK    1  A    between atoms: C_1  and  C_2
REMARK    2  A    between atoms: C_2  and  C_3
REMARK    3  A    between atoms: C_2  and  C_4
REMARK    4  A    between atoms: C_7  and  C_9
REMARK    5  A    between atoms: C_9  and  C_10
REMARK    6  A    between atoms: C_10  and  C_11
REMARK    7  A    between atoms: C_19  and  C_20
REMARK    8  A    between atoms: C_20  and  O_22
REMARK                            x       y       z     vdW  Elec       q    Type
REMARK                         _______ _______ _______ _____ _____    ______ ____
ROOT
ATOM      1  C   UNL     1       6.265   5.866  17.073  0.00  0.00    +0.000 C 
ATOM      2  C   UNL     1       5.128   5.761  18.089  0.00  0.00    +0.000 C 
ATOM      3  N   UNL     1       4.189   4.859  17.462  0.00  0.00    +0.000 N 
ATOM      4  C   UNL     1       2.839   4.733  17.723  0.00  0.00    +0.000 C 
ATOM      5  O   UNL     1       2.166   3.863  17.173  0.00  0.00    +0.000 OA
ATOM      6  C   UNL     1       4.854   3.967  16.535  0.00  0.00    +0.000 C 
ATOM      7  C   UNL     1       6.300   4.458  16.415  0.00  0.00    +0.000 C 
ENDROOT
BRANCH   1   9
ATOM      8  C   UNL     1       7.687   7.914  17.568  0.00  0.00    +0.000 C 
ATOM      9  C   UNL     1       7.602   6.383  17.655  0.00  0.00    +0.000 C 
ATOM     10  C   UNL     1       7.878   5.950  19.098  0.00  0.00    +0.000 C 
ENDBRANCH   1   9
BRANCH   7  11
ATOM     11  C   UNL     1       6.803   4.515  14.984  0.00  0.00    +0.000 C 
ATOM     12  O   UNL     1       7.584   5.365  14.575  0.00  0.00    +0.000 OA
BRANCH  11  13
ATOM     13  O   UNL     1       6.414   3.496  14.186  0.00  0.00    +0.000 OA
ATOM     14  H   UNL     1       5.884   3.719  13.399  0.00  0.00    +0.000 HD
ENDBRANCH  11  13
ENDBRANCH   7  11
BRANCH   4  15
ATOM     15  C   UNL     1       2.242   5.721  18.711  0.00  0.00    +0.000 C 
BRANCH  15  16
ATOM     16  C   UNL     1       2.346   7.155  18.197  0.00  0.00    +0.000 C 
BRANCH  16  17
ATOM     17  C   UNL     1       1.773   8.162  19.171  0.00  0.00    +0.000 A 
ATOM     18  C   UNL     1       1.655   7.848  20.532  0.00  0.00    +0.000 A 
ATOM     19  C   UNL     1       1.128   8.787  21.428  0.00  0.00    +0.000 A 
ATOM     20  C   UNL     1       0.718  10.027  20.959  0.00  0.00    +0.000 A 
ATOM     21  F   UNL     1       0.215  10.926  21.816  0.00  0.00    +0.000 F 
ATOM     22  C   UNL     1       0.825  10.355  19.612  0.00  0.00    +0.000 A 
ATOM     23  C   UNL     1       1.351   9.421  18.715  0.00  0.00    +0.000 A 
ENDBRANCH  16  17
ENDBRANCH  15  16
ENDBRANCH   4  15
TORSDOF 6
ENDMDL
MODEL 2
REMARK VINA RESULT:      -7.7      1.534      2.392
REMARK  Name = 
REMARK  8 active torsions:
REMARK  status: ('A' for Active; 'I' for Inactive)
REMARK    1  A    between atoms: C_1  and  C_2
REMARK    2  A    between atoms: C_2  and  C_3
REMARK    3  A    between atoms: C_2  and  C_4
REMARK    4  A    between atoms: C_7  and  C_9
REMARK    5  A    between atoms: C_9  and  C_10
REMARK    6  A    between atoms: C_10  and  C_11
REMARK    7  A    between atoms: C_19  and  C_20
REMARK    8  A    between atoms: C_20  and  O_22
REMARK                            x       y       z     vdW  Elec       q    Type
REMARK                         _______ _______ _______ _____ _____    ______ ____
ROOT
ATOM      1  C   UNL     1       6.267   5.322  17.530  0.00  0.00    +0.000 C 
ATOM      2  C   UNL     1       5.625   4.482  18.634  0.00  0.00    +0.000 C 
ATOM      3  N   UNL     1       4.728   3.603  17.918  0.00  0.00    +0.000 N 
ATOM      4  C   UNL     1       3.621   2.943  18.415  0.00  0.00    +0.000 C 
ATOM      5  O   UNL     1       2.988   2.155  17.716  0.00  0.00    +0.000 OA
ATOM      6  C   UNL     1       5.176   3.384  16.560  0.00  0.00    +0.000 C 
ATOM      7  C   UNL     1       6.347   4.344  16.324  0.00  0.00    +0.000 C 
ENDROOT
BRANCH   1   9
ATOM      8  C   UNL     1       7.546   7.517  17.613  0.00  0.00    +0.000 C 
ATOM      9  C   UNL     1       7.588   6.017  17.937  0.00  0.00    +0.000 C 
ATOM     10  C   UNL     1       7.976   5.834  19.406  0.00  0.00    +0.000 C 
ENDBRANCH   1   9
BRANCH   7  11
ATOM     11  C   UNL     1       6.271   5.075  14.996  0.00  0.00    +0.000 C 
ATOM     12  O   UNL     1       6.739   4.634  13.954  0.00  0.00    +0.000 OA
BRANCH  11  13
ATOM     13  O   UNL     1       5.557   6.222  14.999  0.00  0.00    +0.000 OA
ATOM     14  H   UNL     1       4.988   6.395  15.770  0.00  0.00    +0.000 HD
ENDBRANCH  11  13
ENDBRANCH   7  11
BRANCH   4  15
ATOM     15  C   UNL     1       3.237   3.247  19.854  0.00  0.00    +0.000 C 
BRANCH  15  16
ATOM     16  C   UNL     1       1.873   3.930  19.934  0.00  0.00    +0.000 C 
BRANCH  16  17
ATOM     17  C   UNL     1       1.945   5.405  19.605  0.00  0.00    +0.000 A 
ATOM     18  C   UNL     1       2.232   5.832  18.300  0.00  0.00    +0.000 A 
ATOM     19  C   UNL     1       2.293   7.199  18.003  0.00  0.00    +0.000 A 
ATOM     20  C   UNL     1       2.071   8.129  19.008  0.00  0.00    +0.000 A 
ATOM     21  F   UNL     1       2.128   9.437  18.723  0.00  0.00    +0.000 F 
ATOM     22  C   UNL     1       1.788   7.726  20.308  0.00  0.00    +0.000 A 
ATOM     23  C   UNL     1       1.726   6.362  20.608  0.00  0.00    +0.000 A 
ENDBRANCH  16  17
ENDBRANCH  15  16
ENDBRANCH   4  15
TORSDOF 6
ENDMDL
MODEL 3
REMARK VINA RESULT:      -7.7      0.144      1.233
REMARK  Name = 
REMARK  8 active torsions:
REMARK  status: ('A' for Active; 'I' for Inactive)
REMARK    1  A    between atoms: C_1  and  C_2
REMARK    2  A    between atoms: C_2  and  C_3
REMARK    3  A    between atoms: C_2  and  C_4
REMARK    4  A    between atoms: C_7  and  C_9
REMARK    5  A    between atoms: C_9  and  C_10
REMARK    6  A    between atoms: C_10  and  C_11
REMARK    7  A    between atoms: C_19  and  C_20
REMARK    8  A    between atoms: C_20  and  O_22
REMARK                            x       y       z     vdW  Elec       q    Type
REMARK                         _______ _______ _______ _____ _____    ______ ____
ROOT
ATOM      1  C   UNL     1       6.217   5.844  17.017  0.00  0.00    +0.000 C 
ATOM      2  C   UNL     1       5.094   5.728  18.047  0.00  0.00    +0.000 C 
ATOM      3  N   UNL     1       4.152   4.823  17.427  0.00  0.00    +0.000 N 
ATOM      4  C   UNL     1       2.806   4.688  17.704  0.00  0.00    +0.000 C 
ATOM      5  O   UNL     1       2.132   3.817  17.159  0.00  0.00    +0.000 OA
ATOM      6  C   UNL     1       4.810   3.939  16.489  0.00  0.00    +0.000 C 
ATOM      7  C   UNL     1       6.252   4.438  16.353  0.00  0.00    +0.000 C 
ENDROOT
BRANCH   1   9
ATOM      8  C   UNL     1       7.633   7.898  17.505  0.00  0.00    +0.000 C 
ATOM      9  C   UNL     1       7.559   6.366  17.585  0.00  0.00    +0.000 C 
ATOM     10  C   UNL     1       7.856   5.926  19.021  0.00  0.00    +0.000 C 
ENDBRANCH   1   9
BRANCH   7  11
ATOM     11  C   UNL     1       6.737   4.503  14.916  0.00  0.00    +0.000 C 
ATOM     12  O   UNL     1       6.187   3.920  13.990  0.00  0.00    +0.000 OA
BRANCH  11  13
ATOM     13  O   UNL     1       7.775   5.337  14.686  0.00  0.00    +0.000 OA
ATOM     14  H   UNL     1       8.171   5.785  15.454  0.00  0.00    +0.000 HD
ENDBRANCH  11  13
ENDBRANCH   7  11
BRANCH   4  15
ATOM     15  C   UNL     1       2.216   5.669  18.704  0.00  0.00    +0.000 C 
BRANCH  15  16
ATOM     16  C   UNL     1       2.361   7.112  18.221  0.00  0.00    +0.000 C 
BRANCH  16  17
ATOM     17  C   UNL     1       1.790   8.110  19.205  0.00  0.00    +0.000 A 
ATOM     18  C   UNL     1       1.369   9.376  18.772  0.00  0.00    +0.000 A 
ATOM     19  C   UNL     1       0.838  10.293  19.687  0.00  0.00    +0.000 A 
ATOM     20  C   UNL     1       0.735   9.943  21.026  0.00  0.00    +0.000 A 
ATOM     21  F   UNL     1       0.226  10.820  21.902  0.00  0.00    +0.000 F 
ATOM     22  C   UNL     1       1.151   8.694  21.475  0.00  0.00    +0.000 A 
ATOM     23  C   UNL     1       1.680   7.776  20.564  0.00  0.00    +0.000 A 
ENDBRANCH  16  17
ENDBRANCH  15  16
ENDBRANCH   4  15
TORSDOF 6
ENDMDL
MODEL 4
REMARK VINA RESULT:      -7.7      1.520      2.257
REMARK  Name = 
REMARK  8 active torsions:
REMARK  status: ('A' for Active; 'I' for Inactive)
REMARK    1  A    between atoms: C_1  and  C_2
REMARK    2  A    between atoms: C_2  and  C_3
REMARK    3  A    between atoms: C_2  and  C_4
REMARK    4  A    between atoms: C_7  and  C_9
REMARK    5  A    between atoms: C_9  and  C_10
REMARK    6  A    between atoms: C_10  and  C_11
REMARK    7  A    between atoms: C_19  and  C_20
REMARK    8  A    between atoms: C_20  and  O_22
REMARK                            x       y       z     vdW  Elec       q    Type
REMARK                         _______ _______ _______ _____ _____    ______ ____
ROOT
ATOM      1  C   UNL     1       6.306   5.479  17.519  0.00  0.00    +0.000 C 
ATOM      2  C   UNL     1       5.713   4.564  18.590  0.00  0.00    +0.000 C 
ATOM      3  N   UNL     1       4.809   3.712  17.850  0.00  0.00    +0.000 N 
ATOM      4  C   UNL     1       3.729   3.004  18.339  0.00  0.00    +0.000 C 
ATOM      5  O   UNL     1       3.087   2.247  17.614  0.00  0.00    +0.000 OA
ATOM      6  C   UNL     1       5.219   3.581  16.469  0.00  0.00    +0.000 C 
ATOM      7  C   UNL     1       6.366   4.575  16.255  0.00  0.00    +0.000 C 
ENDROOT
BRANCH   1   9
ATOM      8  C   UNL     1       7.575   7.679  17.634  0.00  0.00    +0.000 C 
ATOM      9  C   UNL     1       7.628   6.173  17.927  0.00  0.00    +0.000 C 
ATOM     10  C   UNL     1       8.031   5.963  19.389  0.00  0.00    +0.000 C 
ENDBRANCH   1   9
BRANCH   7  11
ATOM     11  C   UNL     1       6.238   5.381  14.976  0.00  0.00    +0.000 C 
ATOM     12  O   UNL     1       5.465   6.321  14.844  0.00  0.00    +0.000 OA
BRANCH  11  13
ATOM     13  O   UNL     1       7.113   5.066  13.996  0.00  0.00    +0.000 OA
ATOM     14  H   UNL     1       7.432   4.146  13.956  0.00  0.00    +0.000 HD
ENDBRANCH  11  13
ENDBRANCH   7  11
BRANCH   4  15
ATOM     15  C   UNL     1       3.383   3.216  19.804  0.00  0.00    +0.000 C 
BRANCH  15  16
ATOM     16  C   UNL     1       2.006   3.858  19.964  0.00  0.00    +0.000 C 
BRANCH  16  17
ATOM     17  C   UNL     1       2.018   5.338  19.651  0.00  0.00    +0.000 A 
ATOM     18  C   UNL     1       1.769   6.282  20.658  0.00  0.00    +0.000 A 
ATOM     19  C   UNL     1       1.786   7.650  20.362  0.00  0.00    +0.000 A 
ATOM     20  C   UNL     1       2.047   8.067  19.064  0.00  0.00    +0.000 A 
ATOM     21  F   UNL     1       2.064   9.376  18.780  0.00  0.00    +0.000 F 
ATOM     22  C   UNL     1       2.293   7.146  18.052  0.00  0.00    +0.000 A 
ATOM     23  C   UNL     1       2.277   5.780  18.344  0.00  0.00    +0.000 A 
ENDBRANCH  16  17
ENDBRANCH  15  16
ENDBRANCH   4  15
TORSDOF 6
ENDMDL
MODEL 5
REMARK VINA RESULT:      -7.7      0.808      1.013
REMARK  Name = 
REMARK  8 active torsions:
REMARK  status: ('A' for Active; 'I' for Inactive)
REMARK    1  A    between atoms: C_1  and  C_2
REMARK    2  A    between atoms: C_2  and  C_3
REMARK    3  A    between atoms: C_2  and  C_4
REMARK    4  A    between atoms: C_7  and  C_9
REMARK    5  A    between atoms: C_9  and  C_10
REMARK    6  A    between atoms: C_10  and  C_11
REMARK    7  A    between atoms: C_19  and  C_20
REMARK    8  A    between atoms: C_20  and  O_22
REMARK                            x       y       z     vdW  Elec       q    Type
REMARK                         _______ _______ _______ _____ _____    ______ ____
ROOT
ATOM      1  C   UNL     1       6.212   5.602  17.175  0.00  0.00    +0.000 C 
ATOM      2  C   UNL     1       5.092   5.321  18.176  0.00  0.00    +0.000 C 
ATOM      3  N   UNL     1       4.192   4.455  17.449  0.00  0.00    +0.000 N 
ATOM      4  C   UNL     1       2.852   4.233  17.698  0.00  0.00    +0.000 C 
ATOM      5  O   UNL     1       2.216   3.404  17.050  0.00  0.00    +0.000 OA
ATOM      6  C   UNL     1       4.889   3.715  16.419  0.00  0.00    +0.000 C 
ATOM      7  C   UNL     1       6.309   4.286  16.352  0.00  0.00    +0.000 C 
ENDROOT
BRANCH   1   9
ATOM      8  C   UNL     1       7.682   7.627  17.626  0.00  0.00    +0.000 C 
ATOM      9  C   UNL     1       7.529   6.110  17.810  0.00  0.00    +0.000 C 
ATOM     10  C   UNL     1       7.693   5.769  19.294  0.00  0.00    +0.000 C 
ENDBRANCH   1   9
BRANCH   7  11
ATOM     11  C   UNL     1       6.794   4.538  14.937  0.00  0.00    +0.000 C 
ATOM     12  O   UNL     1       7.555   5.448  14.636  0.00  0.00    +0.000 OA
BRANCH  11  13
ATOM     13  O   UNL     1       6.414   3.625  14.016  0.00  0.00    +0.000 OA
ATOM     14  H   UNL     1       7.106   3.248  13.444  0.00  0.00    +0.000 HD
ENDBRANCH  11  13
ENDBRANCH   7  11
BRANCH   4  15
ATOM     15  C   UNL     1       2.218   5.066  18.800  0.00  0.00    +0.000 C 
BRANCH  15  16
ATOM     16  C   UNL     1       3.063   6.296  19.125  0.00  0.00    +0.000 C 
BRANCH  16  17
ATOM     17  C   UNL     1       2.247   7.571  19.137  0.00  0.00    +0.000 A 
ATOM     18  C   UNL     1       1.656   8.028  20.323  0.00  0.00    +0.000 A 
ATOM     19  C   UNL     1       0.906   9.211  20.326  0.00  0.00    +0.000 A 
ATOM     20  C   UNL     1       0.749   9.925  19.147  0.00  0.00    +0.000 A 
ATOM     21  F   UNL     1       0.033  11.058  19.151  0.00  0.00    +0.000 F 
ATOM     22  C   UNL     1       1.325   9.486  17.961  0.00  0.00    +0.000 A 
ATOM     23  C   UNL     1       2.074   8.307  17.954  0.00  0.00    +0.000 A 
ENDBRANCH  16  17
ENDBRANCH  15  16
ENDBRANCH   4  15
TORSDOF 6
ENDMDL
MODEL 6
REMARK VINA RESULT:      -7.5      2.785      3.894
REMARK  Name = 
REMARK  8 active torsions:
REMARK  status: ('A' for Active; 'I' for Inactive)
REMARK    1  A    between atoms: C_1  and  C_2
REMARK    2  A    between atoms: C_2  and  C_3
REMARK    3  A    between atoms: C_2  and  C_4
REMARK    4  A    between atoms: C_7  and  C_9
REMARK    5  A    between atoms: C_9  and  C_10
REMARK    6  A    between atoms: C_10  and  C_11
REMARK    7  A    between atoms: C_19  and  C_20
REMARK    8  A    between atoms: C_20  and  O_22
REMARK                            x       y       z     vdW  Elec       q    Type
REMARK                         _______ _______ _______ _____ _____    ______ ____
ROOT
ATOM      1  C   UNL     1       4.323   4.943  17.399  0.00  0.00    +0.000 C 
ATOM      2  C   UNL     1       3.946   6.424  17.411  0.00  0.00    +0.000 C 
ATOM      3  N   UNL     1       3.209   6.580  18.645  0.00  0.00    +0.000 N 
ATOM      4  C   UNL     1       2.301   7.570  18.964  0.00  0.00    +0.000 C 
ATOM      5  O   UNL     1       1.803   7.635  20.086  0.00  0.00    +0.000 OA
ATOM      6  C   UNL     1       3.605   5.590  19.624  0.00  0.00    +0.000 C 
ATOM      7  C   UNL     1       4.529   4.604  18.902  0.00  0.00    +0.000 C 
ENDROOT
BRANCH   1   9
ATOM      8  C   UNL     1       5.488   5.482  15.204  0.00  0.00    +0.000 C 
ATOM      9  C   UNL     1       5.493   4.585  16.450  0.00  0.00    +0.000 C 
ATOM     10  C   UNL     1       6.878   4.640  17.100  0.00  0.00    +0.000 C 
ENDBRANCH   1   9
BRANCH   7  11
ATOM     11  C   UNL     1       4.215   3.149  19.202  0.00  0.00    +0.000 C 
ATOM     12  O   UNL     1       3.153   2.614  18.912  0.00  0.00    +0.000 OA
BRANCH  11  13
ATOM     13  O   UNL     1       5.228   2.429  19.731  0.00  0.00    +0.000 OA
ATOM     14  H   UNL     1       5.142   1.459  19.723  0.00  0.00    +0.000 HD
ENDBRANCH  11  13
ENDBRANCH   7  11
BRANCH   4  15
ATOM     15  C   UNL     1       1.956   8.557  17.861  0.00  0.00    +0.000 C 
BRANCH  15  16
ATOM     16  C   UNL     1       1.831   9.979  18.406  0.00  0.00    +0.000 C 
BRANCH  16  17
ATOM     17  C   UNL     1       0.412  10.500  18.342  0.00  0.00    +0.000 A 
ATOM     18  C   UNL     1      -0.609   9.721  17.779  0.00  0.00    +0.000 A 
ATOM     19  C   UNL     1      -1.921  10.209  17.729  0.00  0.00    +0.000 A 
ATOM     20  C   UNL     1      -2.203  11.470  18.235  0.00  0.00    +0.000 A 
ATOM     21  F   UNL     1      -3.458  11.936  18.188  0.00  0.00    +0.000 F 
ATOM     22  C   UNL     1      -1.203  12.258  18.794  0.00  0.00    +0.000 A 
ATOM     23  C   UNL     1       0.107  11.774  18.847  0.00  0.00    +0.000 A 
ENDBRANCH  16  17
ENDBRANCH  15  16
ENDBRANCH   4  15
TORSDOF 6
ENDMDL
MODEL 7
REMARK VINA RESULT:      -7.5      2.945      4.481
REMARK  Name = 
REMARK  8 active torsions:
REMARK  status: ('A' for Active; 'I' for Inactive)
REMARK    1  A    between atoms: C_1  and  C_2
REMARK    2  A    between atoms: C_2  and  C_3
REMARK    3  A    between atoms: C_2  and  C_4
REMARK    4  A    between atoms: C_7  and  C_9
REMARK    5  A    between atoms: C_9  and  C_10
REMARK    6  A    between atoms: C_10  and  C_11
REMARK    7  A    between atoms: C_19  and  C_20
REMARK    8  A    between atoms: C_20  and  O_22
REMARK                            x       y       z     vdW  Elec       q    Type
REMARK                         _______ _______ _______ _____ _____    ______ ____
ROOT
ATOM      1  C   UNL     1       2.295   4.151  19.644  0.00  0.00    +0.000 C 
ATOM      2  C   UNL     1       1.917   5.547  19.149  0.00  0.00    +0.000 C 
ATOM      3  N   UNL     1       2.969   5.875  18.213  0.00  0.00    +0.000 N 
ATOM      4  C   UNL     1       3.360   7.131  17.792  0.00  0.00    +0.000 C 
ATOM      5  O   UNL     1       4.219   7.268  16.923  0.00  0.00    +0.000 OA
ATOM      6  C   UNL     1       3.556   4.683  17.641  0.00  0.00    +0.000 C 
ATOM      7  C   UNL     1       2.969   3.493  18.407  0.00  0.00    +0.000 C 
ENDROOT
BRANCH   1   9
ATOM      8  C   UNL     1       0.513   2.372  19.293  0.00  0.00    +0.000 C 
ATOM      9  C   UNL     1       1.131   3.362  20.291  0.00  0.00    +0.000 C 
ATOM     10  C   UNL     1       1.506   2.611  21.571  0.00  0.00    +0.000 C 
ENDBRANCH   1   9
BRANCH   7  11
ATOM     11  C   UNL     1       4.007   2.461  18.811  0.00  0.00    +0.000 C 
ATOM     12  O   UNL     1       3.861   1.257  18.647  0.00  0.00    +0.000 OA
BRANCH  11  13
ATOM     13  O   UNL     1       5.172   2.957  19.283  0.00  0.00    +0.000 OA
ATOM     14  H   UNL     1       5.880   3.131  18.639  0.00  0.00    +0.000 HD
ENDBRANCH  11  13
ENDBRANCH   7  11
BRANCH   4  15
ATOM     15  C   UNL     1       2.679   8.315  18.458  0.00  0.00    +0.000 C 
BRANCH  15  16
ATOM     16  C   UNL     1       1.581   8.899  17.571  0.00  0.00    +0.000 C 
BRANCH  16  17
ATOM     17  C   UNL     1       0.586   9.728  18.352  0.00  0.00    +0.000 A 
ATOM     18  C   UNL     1       0.912  10.222  19.623  0.00  0.00    +0.000 A 
ATOM     19  C   UNL     1      -0.013  10.993  20.339  0.00  0.00    +0.000 A 
ATOM     20  C   UNL     1      -1.256  11.261  19.783  0.00  0.00    +0.000 A 
ATOM     21  F   UNL     1      -2.141  11.999  20.467  0.00  0.00    +0.000 F 
ATOM     22  C   UNL     1      -1.599  10.777  18.526  0.00  0.00    +0.000 A 
ATOM     23  C   UNL     1      -0.678  10.008  17.809  0.00  0.00    +0.000 A 
ENDBRANCH  16  17
ENDBRANCH  15  16
ENDBRANCH   4  15
TORSDOF 6
ENDMDL
MODEL 8
REMARK VINA RESULT:      -7.5      3.378      6.290
REMARK  Name = 
REMARK  8 active torsions:
REMARK  status: ('A' for Active; 'I' for Inactive)
REMARK    1  A    between atoms: C_1  and  C_2
REMARK    2  A    between atoms: C_2  and  C_3
REMARK    3  A    between atoms: C_2  and  C_4
REMARK    4  A    between atoms: C_7  and  C_9
REMARK    5  A    between atoms: C_9  and  C_10
REMARK    6  A    between atoms: C_10  and  C_11
REMARK    7  A    between atoms: C_19  and  C_20
REMARK    8  A    between atoms: C_20  and  O_22
REMARK                            x       y       z     vdW  Elec       q    Type
REMARK                         _______ _______ _______ _____ _____    ______ ____
ROOT
ATOM      1  C   UNL     1       3.910   5.346  18.608  0.00  0.00    +0.000 C 
ATOM      2  C   UNL     1       4.608   6.557  17.991  0.00  0.00    +0.000 C 
ATOM      3  N   UNL     1       5.750   5.986  17.313  0.00  0.00    +0.000 N 
ATOM      4  C   UNL     1       6.920   6.624  16.951  0.00  0.00    +0.000 C 
ATOM      5  O   UNL     1       7.784   6.039  16.301  0.00  0.00    +0.000 OA
ATOM      6  C   UNL     1       5.505   4.611  16.934  0.00  0.00    +0.000 C 
ATOM      7  C   UNL     1       4.178   4.206  17.585  0.00  0.00    +0.000 C 
ENDROOT
BRANCH   1   9
ATOM      8  C   UNL     1       1.482   4.973  17.954  0.00  0.00    +0.000 C 
ATOM      9  C   UNL     1       2.430   5.585  18.995  0.00  0.00    +0.000 C 
ATOM     10  C   UNL     1       2.045   5.070  20.384  0.00  0.00    +0.000 C 
ENDBRANCH   1   9
BRANCH   7  11
ATOM     11  C   UNL     1       4.222   2.844  18.254  0.00  0.00    +0.000 C 
ATOM     12  O   UNL     1       3.573   1.881  17.867  0.00  0.00    +0.000 OA
BRANCH  11  13
ATOM     13  O   UNL     1       5.110   2.716  19.263  0.00  0.00    +0.000 OA
ATOM     14  H   UNL     1       4.901   2.077  19.968  0.00  0.00    +0.000 HD
ENDBRANCH  11  13
ENDBRANCH   7  11
BRANCH   4  15
ATOM     15  C   UNL     1       7.075   8.067  17.400  0.00  0.00    +0.000 C 
BRANCH  15  16
ATOM     16  C   UNL     1       8.321   8.251  18.265  0.00  0.00    +0.000 C 
BRANCH  16  17
ATOM     17  C   UNL     1       8.671   9.708  18.474  0.00  0.00    +0.000 A 
ATOM     18  C   UNL     1       8.242  10.681  17.560  0.00  0.00    +0.000 A 
ATOM     19  C   UNL     1       8.566  12.029  17.763  0.00  0.00    +0.000 A 
ATOM     20  C   UNL     1       9.319  12.393  18.870  0.00  0.00    +0.000 A 
ATOM     21  F   UNL     1       9.628  13.683  19.065  0.00  0.00    +0.000 F 
ATOM     22  C   UNL     1       9.755  11.442  19.785  0.00  0.00    +0.000 A 
ATOM     23  C   UNL     1       9.433  10.097  19.586  0.00  0.00    +0.000 A 
ENDBRANCH  16  17
ENDBRANCH  15  16
ENDBRANCH   4  15
TORSDOF 6
ENDMDL
MODEL 9
REMARK VINA RESULT:      -7.5      3.886      5.288
REMARK  Name = 
REMARK  8 active torsions:
REMARK  status: ('A' for Active; 'I' for Inactive)
REMARK    1  A    between atoms: C_1  and  C_2
REMARK    2  A    between atoms: C_2  and  C_3
REMARK    3  A    between atoms: C_2  and  C_4
REMARK    4  A    between atoms: C_7  and  C_9
REMARK    5  A    between atoms: C_9  and  C_10
REMARK    6  A    between atoms: C_10  and  C_11
REMARK    7  A    between atoms: C_19  and  C_20
REMARK    8  A    between atoms: C_20  and  O_22
REMARK                            x       y       z     vdW  Elec       q    Type
REMARK                         _______ _______ _______ _____ _____    ______ ____
ROOT
ATOM      1  C   UNL     1       2.498   4.390  18.874  0.00  0.00    +0.000 C 
ATOM      2  C   UNL     1       2.752   5.835  18.446  0.00  0.00    +0.000 C 
ATOM      3  N   UNL     1       2.218   6.615  19.541  0.00  0.00    +0.000 N 
ATOM      4  C   UNL     1       1.809   7.934  19.515  0.00  0.00    +0.000 C 
ATOM      5  O   UNL     1       1.450   8.506  20.542  0.00  0.00    +0.000 OA
ATOM      6  C   UNL     1       2.242   5.869  20.780  0.00  0.00    +0.000 C 
ATOM      7  C   UNL     1       2.643   4.434  20.422  0.00  0.00    +0.000 C 
ENDROOT
BRANCH   1   9
ATOM      8  C   UNL     1       2.510   2.151  17.670  0.00  0.00    +0.000 C 
ATOM      9  C   UNL     1       3.363   3.341  18.135  0.00  0.00    +0.000 C 
ATOM     10  C   UNL     1       4.147   3.890  16.940  0.00  0.00    +0.000 C 
ENDBRANCH   1   9
BRANCH   7  11
ATOM     11  C   UNL     1       1.788   3.378  21.100  0.00  0.00    +0.000 C 
ATOM     12  O   UNL     1       2.144   2.758  22.093  0.00  0.00    +0.000 OA
BRANCH  11  13
ATOM     13  O   UNL     1       0.544   3.223  20.598  0.00  0.00    +0.000 OA
ATOM     14  H   UNL     1      -0.071   2.649  21.091  0.00  0.00    +0.000 HD
ENDBRANCH  11  13
ENDBRANCH   7  11
BRANCH   4  15
ATOM     15  C   UNL     1       1.823   8.623  18.161  0.00  0.00    +0.000 C 
BRANCH  15  16
ATOM     16  C   UNL     1       1.614  10.130  18.300  0.00  0.00    +0.000 C 
BRANCH  16  17
ATOM     17  C   UNL     1       0.151  10.504  18.403  0.00  0.00    +0.000 A 
ATOM     18  C   UNL     1      -0.266  11.516  19.279  0.00  0.00    +0.000 A 
ATOM     19  C   UNL     1      -1.621  11.860  19.366  0.00  0.00    +0.000 A 
ATOM     20  C   UNL     1      -2.549  11.188  18.582  0.00  0.00    +0.000 A 
ATOM     21  F   UNL     1      -3.845  11.518  18.663  0.00  0.00    +0.000 F 
ATOM     22  C   UNL     1      -2.154  10.180  17.710  0.00  0.00    +0.000 A 
ATOM     23  C   UNL     1      -0.803   9.835  17.621  0.00  0.00    +0.000 A 
ENDBRANCH  16  17
ENDBRANCH  15  16
ENDBRANCH   4  15
TORSDOF 6
ENDMDL
