MODEL 1
REMARK VINA RESULT:      -8.2      0.000      0.000
REMARK  Name = 
REMARK  7 active torsions:
REMARK  status: ('A' for Active; 'I' for Inactive)
REMARK    1  A    between atoms: C_1  and  O_2
REMARK    2  A    between atoms: O_2  and  C_3
REMARK    3  A    between atoms: C_8  and  N_9
REMARK    4  A    between atoms: C_11  and  C_12
REMARK    5  A    between atoms: N_15  and  S_16
REMARK    6  A    between atoms: S_16  and  C_19
REMARK    7  A    between atoms: C_26  and  C_27
REMARK                            x       y       z     vdW  Elec       q    Type
REMARK                         _______ _______ _______ _____ _____    ______ ____
ROOT
ATOM      1  N   UNL     1       0.530  10.627  19.575  0.00  0.00    +0.000 N 
ATOM      2  N   UNL     1       0.786   9.287  19.637  0.00  0.00    +0.000 NA
ATOM      3  C   UNL     1       1.725   9.047  18.719  0.00  0.00    +0.000 A 
ATOM      4  C   UNL     1       2.152  10.233  18.108  0.00  0.00    +0.000 A 
ATOM      5  C   UNL     1       1.464  11.258  18.745  0.00  0.00    +0.000 A 
ENDROOT
BRANCH   5   6
ATOM      6  C   UNL     1       1.739  12.697  18.656  0.00  0.00    +0.000 A 
ATOM      7  C   UNL     1       2.978  13.140  18.162  0.00  0.00    +0.000 A 
ATOM      8  C   UNL     1       3.247  14.508  18.049  0.00  0.00    +0.000 A 
ATOM      9  C   UNL     1       2.274  15.439  18.402  0.00  0.00    +0.000 A 
ATOM     10 CL   UNL     1       2.579  17.117  18.198  0.00  0.00    +0.000 Cl
ATOM     11  C   UNL     1       1.053  15.018  18.919  0.00  0.00    +0.000 A 
ATOM     12  C   UNL     1       0.806  13.654  19.083  0.00  0.00    +0.000 A 
ENDBRANCH   5   6
BRANCH   1  18
ATOM     13  C   UNL     1      -1.687  11.755  19.918  0.00  0.00    +0.000 A 
ATOM     14  C   UNL     1      -2.575  12.361  20.824  0.00  0.00    +0.000 A 
ATOM     15  C   UNL     1      -2.311  12.379  22.194  0.00  0.00    +0.000 A 
ATOM     16  C   UNL     1      -1.175  11.748  22.687  0.00  0.00    +0.000 A 
ATOM     17  C   UNL     1      -0.289  11.127  21.804  0.00  0.00    +0.000 A 
ATOM     18  C   UNL     1      -0.508  11.162  20.412  0.00  0.00    +0.000 A 
BRANCH  13  20
ATOM     19  C   UNL     1      -2.658  10.489  18.143  0.00  0.00    +0.000 C 
ATOM     20  O   UNL     1      -1.963  11.654  18.579  0.00  0.00    +0.000 OA
ENDBRANCH  13  20
ENDBRANCH   1  18
BRANCH   3  21
ATOM     21  C   UNL     1       2.176   7.636  18.534  0.00  0.00    +0.000 C 
ATOM     22  C   UNL     1       3.566   7.527  17.910  0.00  0.00    +0.000 C 
ATOM     23  C   UNL     1       3.666   6.138  17.304  0.00  0.00    +0.000 C 
ATOM     24  N   UNL     1       3.501   5.076  18.349  0.00  0.00    +0.000 NA
ATOM     25  C   UNL     1       2.320   5.273  19.271  0.00  0.00    +0.000 C 
ATOM     26  C   UNL     1       2.178   6.722  19.757  0.00  0.00    +0.000 C 
BRANCH  24  27
ATOM     27  S   UNL     1       3.469   3.467  17.643  0.00  0.00    +0.000 S 
ATOM     28  O   UNL     1       2.163   3.344  17.016  0.00  0.00    +0.000 OA
ATOM     29  O   UNL     1       4.660   3.387  16.818  0.00  0.00    +0.000 OA
BRANCH  27  30
ATOM     30  C   UNL     1       3.594   2.292  19.106  0.00  0.00    +0.000 C 
ATOM     31  F   UNL     1       4.037   1.053  18.746  0.00  0.00    +0.000 F 
ATOM     32  F   UNL     1       4.448   2.748  20.065  0.00  0.00    +0.000 F 
ATOM     33  F   UNL     1       2.385   2.108  19.711  0.00  0.00    +0.000 F 
ENDBRANCH  27  30
ENDBRANCH  24  27
ENDBRANCH   3  21
TORSDOF 6
ENDMDL
MODEL 2
REMARK VINA RESULT:      -8.2      0.295      1.116
REMARK  Name = 
REMARK  7 active torsions:
REMARK  status: ('A' for Active; 'I' for Inactive)
REMARK    1  A    between atoms: C_1  and  O_2
REMARK    2  A    between atoms: O_2  and  C_3
REMARK    3  A    between atoms: C_8  and  N_9
REMARK    4  A    between atoms: C_11  and  C_12
REMARK    5  A    between atoms: N_15  and  S_16
REMARK    6  A    between atoms: S_16  and  C_19
REMARK    7  A    between atoms: C_26  and  C_27
REMARK                            x       y       z     vdW  Elec       q    Type
REMARK                         _______ _______ _______ _____ _____    ______ ____
ROOT
ATOM      1  N   UNL     1       0.561  10.636  19.579  0.00  0.00    +0.000 N 
ATOM      2  N   UNL     1       0.829   9.299  19.650  0.00  0.00    +0.000 NA
ATOM      3  C   UNL     1       1.728   9.050  18.695  0.00  0.00    +0.000 A 
ATOM      4  C   UNL     1       2.120  10.229  18.047  0.00  0.00    +0.000 A 
ATOM      5  C   UNL     1       1.453  11.260  18.697  0.00  0.00    +0.000 A 
ENDROOT
BRANCH   5   6
ATOM      6  C   UNL     1       1.715  12.698  18.574  0.00  0.00    +0.000 A 
ATOM      7  C   UNL     1       0.678  13.618  18.806  0.00  0.00    +0.000 A 
ATOM      8  C   UNL     1       0.917  14.993  18.717  0.00  0.00    +0.000 A 
ATOM      9  C   UNL     1       2.195  15.458  18.422  0.00  0.00    +0.000 A 
ATOM     10 CL   UNL     1       2.504  17.147  18.380  0.00  0.00    +0.000 Cl
ATOM     11  C   UNL     1       3.227  14.562  18.162  0.00  0.00    +0.000 A 
ATOM     12  C   UNL     1       2.974  13.189  18.198  0.00  0.00    +0.000 A 
ENDBRANCH   5   6
BRANCH   1  18
ATOM     13  C   UNL     1      -1.718  11.592  20.020  0.00  0.00    +0.000 A 
ATOM     14  C   UNL     1      -2.574  12.227  20.938  0.00  0.00    +0.000 A 
ATOM     15  C   UNL     1      -2.184  12.446  22.260  0.00  0.00    +0.000 A 
ATOM     16  C   UNL     1      -0.946  11.990  22.699  0.00  0.00    +0.000 A 
ATOM     17  C   UNL     1      -0.089  11.344  21.807  0.00  0.00    +0.000 A 
ATOM     18  C   UNL     1      -0.442  11.178  20.452  0.00  0.00    +0.000 A 
BRANCH  13  20
ATOM     19  C   UNL     1      -3.422  11.691  18.351  0.00  0.00    +0.000 C 
ATOM     20  O   UNL     1      -2.109  11.295  18.740  0.00  0.00    +0.000 OA
ENDBRANCH  13  20
ENDBRANCH   1  18
BRANCH   3  21
ATOM     21  C   UNL     1       2.180   7.639  18.512  0.00  0.00    +0.000 C 
ATOM     22  C   UNL     1       3.584   7.531  17.920  0.00  0.00    +0.000 C 
ATOM     23  C   UNL     1       3.695   6.145  17.308  0.00  0.00    +0.000 C 
ATOM     24  N   UNL     1       3.503   5.077  18.343  0.00  0.00    +0.000 NA
ATOM     25  C   UNL     1       2.302   5.272  19.237  0.00  0.00    +0.000 C 
ATOM     26  C   UNL     1       2.151   6.718  19.729  0.00  0.00    +0.000 C 
BRANCH  24  27
ATOM     27  S   UNL     1       3.484   3.473  17.627  0.00  0.00    +0.000 S 
ATOM     28  O   UNL     1       2.173   3.336  17.013  0.00  0.00    +0.000 OA
ATOM     29  O   UNL     1       4.667   3.413  16.789  0.00  0.00    +0.000 OA
BRANCH  27  30
ATOM     30  C   UNL     1       3.640   2.289  19.081  0.00  0.00    +0.000 C 
ATOM     31  F   UNL     1       2.483   2.186  19.797  0.00  0.00    +0.000 F 
ATOM     32  F   UNL     1       3.969   1.027  18.687  0.00  0.00    +0.000 F 
ATOM     33  F   UNL     1       4.603   2.692  19.959  0.00  0.00    +0.000 F 
ENDBRANCH  27  30
ENDBRANCH  24  27
ENDBRANCH   3  21
TORSDOF 6
ENDMDL
MODEL 3
REMARK VINA RESULT:      -8.1      2.269      3.197
REMARK  Name = 
REMARK  7 active torsions:
REMARK  status: ('A' for Active; 'I' for Inactive)
REMARK    1  A    between atoms: C_1  and  O_2
REMARK    2  A    between atoms: O_2  and  C_3
REMARK    3  A    between atoms: C_8  and  N_9
REMARK    4  A    between atoms: C_11  and  C_12
REMARK    5  A    between atoms: N_15  and  S_16
REMARK    6  A    between atoms: S_16  and  C_19
REMARK    7  A    between atoms: C_26  and  C_27
REMARK                            x       y       z     vdW  Elec       q    Type
REMARK                         _______ _______ _______ _____ _____    ______ ____
ROOT
ATOM      1  N   UNL     1      -1.352  11.254  18.470  0.00  0.00    +0.000 N 
ATOM      2  N   UNL     1      -0.863   9.979  18.460  0.00  0.00    +0.000 NA
ATOM      3  C   UNL     1       0.447  10.083  18.697  0.00  0.00    +0.000 A 
ATOM      4  C   UNL     1       0.813  11.412  18.946  0.00  0.00    +0.000 A 
ATOM      5  C   UNL     1      -0.367  12.145  18.913  0.00  0.00    +0.000 A 
ENDROOT
BRANCH   5   6
ATOM      6  C   UNL     1      -0.563  13.527  19.365  0.00  0.00    +0.000 A 
ATOM      7  C   UNL     1      -0.200  14.593  18.524  0.00  0.00    +0.000 A 
ATOM      8  C   UNL     1      -0.403  15.916  18.929  0.00  0.00    +0.000 A 
ATOM      9  C   UNL     1      -0.991  16.182  20.163  0.00  0.00    +0.000 A 
ATOM     10 CL   UNL     1      -1.303  17.805  20.632  0.00  0.00    +0.000 Cl
ATOM     11  C   UNL     1      -1.330  15.140  21.020  0.00  0.00    +0.000 A 
ATOM     12  C   UNL     1      -1.078  13.821  20.637  0.00  0.00    +0.000 A 
ENDBRANCH   5   6
BRANCH   1  18
ATOM     13  C   UNL     1      -3.278  11.381  16.863  0.00  0.00    +0.000 A 
ATOM     14  C   UNL     1      -4.628  11.721  16.664  0.00  0.00    +0.000 A 
ATOM     15  C   UNL     1      -5.438  12.120  17.727  0.00  0.00    +0.000 A 
ATOM     16  C   UNL     1      -4.924  12.140  19.018  0.00  0.00    +0.000 A 
ATOM     17  C   UNL     1      -3.591  11.791  19.238  0.00  0.00    +0.000 A 
ATOM     18  C   UNL     1      -2.741  11.453  18.164  0.00  0.00    +0.000 A 
BRANCH  13  20
ATOM     19  C   UNL     1      -3.120  10.154  14.822  0.00  0.00    +0.000 C 
ATOM     20  O   UNL     1      -2.484  10.910  15.850  0.00  0.00    +0.000 OA
ENDBRANCH  13  20
ENDBRANCH   1  18
BRANCH   3  21
ATOM     21  C   UNL     1       1.258   8.829  18.702  0.00  0.00    +0.000 C 
ATOM     22  C   UNL     1       2.523   8.930  17.854  0.00  0.00    +0.000 C 
ATOM     23  C   UNL     1       2.939   7.508  17.518  0.00  0.00    +0.000 C 
ATOM     24  N   UNL     1       3.229   6.719  18.760  0.00  0.00    +0.000 NA
ATOM     25  C   UNL     1       2.175   6.826  19.837  0.00  0.00    +0.000 C 
ATOM     26  C   UNL     1       1.686   8.264  20.054  0.00  0.00    +0.000 C 
BRANCH  24  27
ATOM     27  S   UNL     1       3.570   5.035  18.396  0.00  0.00    +0.000 S 
ATOM     28  O   UNL     1       4.326   5.051  17.154  0.00  0.00    +0.000 OA
ATOM     29  O   UNL     1       4.189   4.501  19.594  0.00  0.00    +0.000 OA
BRANCH  27  30
ATOM     30  C   UNL     1       1.885   4.248  18.112  0.00  0.00    +0.000 C 
ATOM     31  F   UNL     1       1.202   4.040  19.274  0.00  0.00    +0.000 F 
ATOM     32  F   UNL     1       1.083   5.015  17.320  0.00  0.00    +0.000 F 
ATOM     33  F   UNL     1       1.992   3.031  17.504  0.00  0.00    +0.000 F 
ENDBRANCH  27  30
ENDBRANCH  24  27
ENDBRANCH   3  21
TORSDOF 6
ENDMDL
MODEL 4
REMARK VINA RESULT:      -8.0      2.213      3.119
REMARK  Name = 
REMARK  7 active torsions:
REMARK  status: ('A' for Active; 'I' for Inactive)
REMARK    1  A    between atoms: C_1  and  O_2
REMARK    2  A    between atoms: O_2  and  C_3
REMARK    3  A    between atoms: C_8  and  N_9
REMARK    4  A    between atoms: C_11  and  C_12
REMARK    5  A    between atoms: N_15  and  S_16
REMARK    6  A    between atoms: S_16  and  C_19
REMARK    7  A    between atoms: C_26  and  C_27
REMARK                            x       y       z     vdW  Elec       q    Type
REMARK                         _______ _______ _______ _____ _____    ______ ____
ROOT
ATOM      1  N   UNL     1      -1.186  11.226  18.492  0.00  0.00    +0.000 N 
ATOM      2  N   UNL     1      -0.714   9.945  18.474  0.00  0.00    +0.000 NA
ATOM      3  C   UNL     1       0.597  10.030  18.714  0.00  0.00    +0.000 A 
ATOM      4  C   UNL     1       0.980  11.353  18.974  0.00  0.00    +0.000 A 
ATOM      5  C   UNL     1      -0.190  12.101  18.945  0.00  0.00    +0.000 A 
ENDROOT
BRANCH   5   6
ATOM      6  C   UNL     1      -0.369  13.482  19.406  0.00  0.00    +0.000 A 
ATOM      7  C   UNL     1      -0.701  13.731  20.749  0.00  0.00    +0.000 A 
ATOM      8  C   UNL     1      -0.850  15.043  21.210  0.00  0.00    +0.000 A 
ATOM      9  C   UNL     1      -0.645  16.112  20.342  0.00  0.00    +0.000 A 
ATOM     10 CL   UNL     1      -0.761  17.724  20.926  0.00  0.00    +0.000 Cl
ATOM     11  C   UNL     1      -0.343  15.883  19.004  0.00  0.00    +0.000 A 
ATOM     12  C   UNL     1      -0.248  14.573  18.532  0.00  0.00    +0.000 A 
ENDBRANCH   5   6
BRANCH   1  18
ATOM     13  C   UNL     1      -3.132  11.257  16.906  0.00  0.00    +0.000 A 
ATOM     14  C   UNL     1      -4.472  11.626  16.688  0.00  0.00    +0.000 A 
ATOM     15  C   UNL     1      -5.249  12.168  17.712  0.00  0.00    +0.000 A 
ATOM     16  C   UNL     1      -4.712  12.305  18.988  0.00  0.00    +0.000 A 
ATOM     17  C   UNL     1      -3.389  11.930  19.227  0.00  0.00    +0.000 A 
ATOM     18  C   UNL     1      -2.572  11.447  18.185  0.00  0.00    +0.000 A 
BRANCH  13  20
ATOM     19  C   UNL     1      -3.047  10.218  14.758  0.00  0.00    +0.000 C 
ATOM     20  O   UNL     1      -2.374  10.650  15.938  0.00  0.00    +0.000 OA
ENDBRANCH  13  20
ENDBRANCH   1  18
BRANCH   3  21
ATOM     21  C   UNL     1       1.391   8.766  18.712  0.00  0.00    +0.000 C 
ATOM     22  C   UNL     1       2.693   8.878  17.923  0.00  0.00    +0.000 C 
ATOM     23  C   UNL     1       3.106   7.462  17.557  0.00  0.00    +0.000 C 
ATOM     24  N   UNL     1       3.332   6.628  18.783  0.00  0.00    +0.000 NA
ATOM     25  C   UNL     1       2.234   6.714  19.817  0.00  0.00    +0.000 C 
ATOM     26  C   UNL     1       1.754   8.151  20.061  0.00  0.00    +0.000 C 
BRANCH  24  27
ATOM     27  S   UNL     1       3.667   4.952  18.377  0.00  0.00    +0.000 S 
ATOM     28  O   UNL     1       4.484   5.000  17.175  0.00  0.00    +0.000 OA
ATOM     29  O   UNL     1       4.219   4.368  19.585  0.00  0.00    +0.000 OA
BRANCH  27  30
ATOM     30  C   UNL     1       1.988   4.202  17.984  0.00  0.00    +0.000 C 
ATOM     31  F   UNL     1       2.075   3.148  17.121  0.00  0.00    +0.000 F 
ATOM     32  F   UNL     1       1.354   3.741  19.099  0.00  0.00    +0.000 F 
ATOM     33  F   UNL     1       1.153   5.110  17.401  0.00  0.00    +0.000 F 
ENDBRANCH  27  30
ENDBRANCH  24  27
ENDBRANCH   3  21
TORSDOF 6
ENDMDL
MODEL 5
REMARK VINA RESULT:      -8.0      1.502      1.930
REMARK  Name = 
REMARK  7 active torsions:
REMARK  status: ('A' for Active; 'I' for Inactive)
REMARK    1  A    between atoms: C_1  and  O_2
REMARK    2  A    between atoms: O_2  and  C_3
REMARK    3  A    between atoms: C_8  and  N_9
REMARK    4  A    between atoms: C_11  and  C_12
REMARK    5  A    between atoms: N_15  and  S_16
REMARK    6  A    between atoms: S_16  and  C_19
REMARK    7  A    between atoms: C_26  and  C_27
REMARK                            x       y       z     vdW  Elec       q    Type
REMARK                         _______ _______ _______ _____ _____    ______ ____
ROOT
ATOM      1  N   UNL     1      -0.430  11.158  19.124  0.00  0.00    +0.000 N 
ATOM      2  N   UNL     1      -0.107   9.844  19.309  0.00  0.00    +0.000 NA
ATOM      3  C   UNL     1       1.118   9.689  18.803  0.00  0.00    +0.000 A 
ATOM      4  C   UNL     1       1.642  10.910  18.359  0.00  0.00    +0.000 A 
ATOM      5  C   UNL     1       0.689  11.870  18.674  0.00  0.00    +0.000 A 
ENDROOT
BRANCH   5   6
ATOM      6  C   UNL     1       0.862  13.327  18.654  0.00  0.00    +0.000 A 
ATOM      7  C   UNL     1       2.154  13.875  18.585  0.00  0.00    +0.000 A 
ATOM      8  C   UNL     1       2.334  15.261  18.540  0.00  0.00    +0.000 A 
ATOM      9  C   UNL     1       1.227  16.106  18.539  0.00  0.00    +0.000 A 
ATOM     10 CL   UNL     1       1.446  17.806  18.416  0.00  0.00    +0.000 Cl
ATOM     11  C   UNL     1      -0.058  15.582  18.635  0.00  0.00    +0.000 A 
ATOM     12  C   UNL     1      -0.234  14.200  18.734  0.00  0.00    +0.000 A 
ENDBRANCH   5   6
BRANCH   1  18
ATOM     13  C   UNL     1      -2.857  11.595  18.650  0.00  0.00    +0.000 A 
ATOM     14  C   UNL     1      -4.061  12.170  19.094  0.00  0.00    +0.000 A 
ATOM     15  C   UNL     1      -4.167  12.735  20.365  0.00  0.00    +0.000 A 
ATOM     16  C   UNL     1      -3.083  12.692  21.234  0.00  0.00    +0.000 A 
ATOM     17  C   UNL     1      -1.884  12.111  20.817  0.00  0.00    +0.000 A 
ATOM     18  C   UNL     1      -1.740  11.600  19.511  0.00  0.00    +0.000 A 
BRANCH  13  20
ATOM     19  C   UNL     1      -3.873  11.040  16.563  0.00  0.00    +0.000 C 
ATOM     20  O   UNL     1      -2.750  10.964  17.438  0.00  0.00    +0.000 OA
ENDBRANCH  13  20
ENDBRANCH   1  18
BRANCH   3  21
ATOM     21  C   UNL     1       1.718   8.322  18.832  0.00  0.00    +0.000 C 
ATOM     22  C   UNL     1       3.012   8.218  18.030  0.00  0.00    +0.000 C 
ATOM     23  C   UNL     1       3.208   6.747  17.702  0.00  0.00    +0.000 C 
ATOM     24  N   UNL     1       3.322   5.923  18.950  0.00  0.00    +0.000 NA
ATOM     25  C   UNL     1       2.261   6.198  19.989  0.00  0.00    +0.000 C 
ATOM     26  C   UNL     1       2.001   7.697  20.195  0.00  0.00    +0.000 C 
BRANCH  24  27
ATOM     27  S   UNL     1       3.402   4.205  18.591  0.00  0.00    +0.000 S 
ATOM     28  O   UNL     1       4.135   4.104  17.338  0.00  0.00    +0.000 OA
ATOM     29  O   UNL     1       3.952   3.589  19.783  0.00  0.00    +0.000 OA
BRANCH  27  30
ATOM     30  C   UNL     1       1.615   3.678  18.334  0.00  0.00    +0.000 C 
ATOM     31  F   UNL     1       0.891   3.703  19.490  0.00  0.00    +0.000 F 
ATOM     32  F   UNL     1       0.962   4.481  17.447  0.00  0.00    +0.000 F 
ATOM     33  F   UNL     1       1.528   2.405  17.852  0.00  0.00    +0.000 F 
ENDBRANCH  27  30
ENDBRANCH  24  27
ENDBRANCH   3  21
TORSDOF 6
ENDMDL
MODEL 6
REMARK VINA RESULT:      -8.0      1.910      2.858
REMARK  Name = 
REMARK  7 active torsions:
REMARK  status: ('A' for Active; 'I' for Inactive)
REMARK    1  A    between atoms: C_1  and  O_2
REMARK    2  A    between atoms: O_2  and  C_3
REMARK    3  A    between atoms: C_8  and  N_9
REMARK    4  A    between atoms: C_11  and  C_12
REMARK    5  A    between atoms: N_15  and  S_16
REMARK    6  A    between atoms: S_16  and  C_19
REMARK    7  A    between atoms: C_26  and  C_27
REMARK                            x       y       z     vdW  Elec       q    Type
REMARK                         _______ _______ _______ _____ _____    ______ ____
ROOT
ATOM      1  N   UNL     1      -0.582  10.877  18.267  0.00  0.00    +0.000 N 
ATOM      2  N   UNL     1      -0.206   9.564  18.276  0.00  0.00    +0.000 NA
ATOM      3  C   UNL     1       1.100   9.554  18.553  0.00  0.00    +0.000 A 
ATOM      4  C   UNL     1       1.573  10.848  18.810  0.00  0.00    +0.000 A 
ATOM      5  C   UNL     1       0.463  11.681  18.738  0.00  0.00    +0.000 A 
ENDROOT
BRANCH   5   6
ATOM      6  C   UNL     1       0.375  13.077  19.179  0.00  0.00    +0.000 A 
ATOM      7  C   UNL     1       0.811  13.430  20.468  0.00  0.00    +0.000 A 
ATOM      8  C   UNL     1       0.756  14.761  20.895  0.00  0.00    +0.000 A 
ATOM      9  C   UNL     1       0.292  15.749  20.031  0.00  0.00    +0.000 A 
ATOM     10 CL   UNL     1       0.289  17.392  20.531  0.00  0.00    +0.000 Cl
ATOM     11  C   UNL     1      -0.170  15.413  18.762  0.00  0.00    +0.000 A 
ATOM     12  C   UNL     1      -0.166  14.077  18.357  0.00  0.00    +0.000 A 
ENDBRANCH   5   6
BRANCH   1  18
ATOM     13  C   UNL     1      -2.907  11.630  18.843  0.00  0.00    +0.000 A 
ATOM     14  C   UNL     1      -4.237  11.789  18.413  0.00  0.00    +0.000 A 
ATOM     15  C   UNL     1      -4.607  11.530  17.093  0.00  0.00    +0.000 A 
ATOM     16  C   UNL     1      -3.641  11.153  16.166  0.00  0.00    +0.000 A 
ATOM     17  C   UNL     1      -2.313  11.005  16.571  0.00  0.00    +0.000 A 
ATOM     18  C   UNL     1      -1.938  11.195  17.917  0.00  0.00    +0.000 A 
BRANCH  13  20
ATOM     19  C   UNL     1      -2.970  13.190  20.648  0.00  0.00    +0.000 C 
ATOM     20  O   UNL     1      -2.505  11.953  20.113  0.00  0.00    +0.000 OA
ENDBRANCH  13  20
ENDBRANCH   1  18
BRANCH   3  21
ATOM     21  C   UNL     1       1.797   8.235  18.588  0.00  0.00    +0.000 C 
ATOM     22  C   UNL     1       3.142   8.249  17.864  0.00  0.00    +0.000 C 
ATOM     23  C   UNL     1       3.466   6.806  17.517  0.00  0.00    +0.000 C 
ATOM     24  N   UNL     1       3.568   5.959  18.750  0.00  0.00    +0.000 NA
ATOM     25  C   UNL     1       2.430   6.127  19.729  0.00  0.00    +0.000 C 
ATOM     26  C   UNL     1       2.046   7.596  19.952  0.00  0.00    +0.000 C 
BRANCH  24  27
ATOM     27  S   UNL     1       3.799   4.263  18.358  0.00  0.00    +0.000 S 
ATOM     28  O   UNL     1       4.589   4.250  17.137  0.00  0.00    +0.000 OA
ATOM     29  O   UNL     1       4.344   3.661  19.560  0.00  0.00    +0.000 OA
BRANCH  27  30
ATOM     30  C   UNL     1       2.071   3.604  18.012  0.00  0.00    +0.000 C 
ATOM     31  F   UNL     1       1.380   3.322  19.154  0.00  0.00    +0.000 F 
ATOM     32  F   UNL     1       1.312   4.490  17.306  0.00  0.00    +0.000 F 
ATOM     33  F   UNL     1       2.106   2.449  17.287  0.00  0.00    +0.000 F 
ENDBRANCH  27  30
ENDBRANCH  24  27
ENDBRANCH   3  21
TORSDOF 6
ENDMDL
MODEL 7
REMARK VINA RESULT:      -8.0      1.978      2.926
REMARK  Name = 
REMARK  7 active torsions:
REMARK  status: ('A' for Active; 'I' for Inactive)
REMARK    1  A    between atoms: C_1  and  O_2
REMARK    2  A    between atoms: O_2  and  C_3
REMARK    3  A    between atoms: C_8  and  N_9
REMARK    4  A    between atoms: C_11  and  C_12
REMARK    5  A    between atoms: N_15  and  S_16
REMARK    6  A    between atoms: S_16  and  C_19
REMARK    7  A    between atoms: C_26  and  C_27
REMARK                            x       y       z     vdW  Elec       q    Type
REMARK                         _______ _______ _______ _____ _____    ______ ____
ROOT
ATOM      1  N   UNL     1      -0.671  10.875  18.250  0.00  0.00    +0.000 N 
ATOM      2  N   UNL     1      -0.280   9.567  18.239  0.00  0.00    +0.000 NA
ATOM      3  C   UNL     1       1.010   9.563  18.584  0.00  0.00    +0.000 A 
ATOM      4  C   UNL     1       1.453  10.853  18.904  0.00  0.00    +0.000 A 
ATOM      5  C   UNL     1       0.338  11.675  18.800  0.00  0.00    +0.000 A 
ENDROOT
BRANCH   5   6
ATOM      6  C   UNL     1       0.211  13.056  19.278  0.00  0.00    +0.000 A 
ATOM      7  C   UNL     1      -0.149  14.075  18.379  0.00  0.00    +0.000 A 
ATOM      8  C   UNL     1      -0.299  15.392  18.824  0.00  0.00    +0.000 A 
ATOM      9  C   UNL     1      -0.116  15.696  20.171  0.00  0.00    +0.000 A 
ATOM     10 CL   UNL     1      -0.367  17.301  20.729  0.00  0.00    +0.000 Cl
ATOM     11  C   UNL     1       0.267  14.705  21.069  0.00  0.00    +0.000 A 
ATOM     12  C   UNL     1       0.469  13.401  20.614  0.00  0.00    +0.000 A 
ENDBRANCH   5   6
BRANCH   1  18
ATOM     13  C   UNL     1      -3.014  11.649  18.717  0.00  0.00    +0.000 A 
ATOM     14  C   UNL     1      -4.324  11.802  18.231  0.00  0.00    +0.000 A 
ATOM     15  C   UNL     1      -4.643  11.515  16.903  0.00  0.00    +0.000 A 
ATOM     16  C   UNL     1      -3.643  11.114  16.025  0.00  0.00    +0.000 A 
ATOM     17  C   UNL     1      -2.333  10.971  16.485  0.00  0.00    +0.000 A 
ATOM     18  C   UNL     1      -2.011  11.190  17.840  0.00  0.00    +0.000 A 
BRANCH  13  20
ATOM     19  C   UNL     1      -3.280  13.160  20.546  0.00  0.00    +0.000 C 
ATOM     20  O   UNL     1      -2.661  12.000  19.994  0.00  0.00    +0.000 OA
ENDBRANCH  13  20
ENDBRANCH   1  18
BRANCH   3  21
ATOM     21  C   UNL     1       1.721   8.250  18.615  0.00  0.00    +0.000 C 
ATOM     22  C   UNL     1       3.033   8.261  17.836  0.00  0.00    +0.000 C 
ATOM     23  C   UNL     1       3.357   6.814  17.503  0.00  0.00    +0.000 C 
ATOM     24  N   UNL     1       3.518   5.993  18.747  0.00  0.00    +0.000 NA
ATOM     25  C   UNL     1       2.421   6.171  19.770  0.00  0.00    +0.000 C 
ATOM     26  C   UNL     1       2.033   7.641  19.980  0.00  0.00    +0.000 C 
BRANCH  24  27
ATOM     27  S   UNL     1       3.748   4.291  18.379  0.00  0.00    +0.000 S 
ATOM     28  O   UNL     1       4.525   4.261  17.150  0.00  0.00    +0.000 OA
ATOM     29  O   UNL     1       4.308   3.710  19.585  0.00  0.00    +0.000 OA
BRANCH  27  30
ATOM     30  C   UNL     1       2.018   3.625  18.062  0.00  0.00    +0.000 C 
ATOM     31  F   UNL     1       2.031   2.423  17.415  0.00  0.00    +0.000 F 
ATOM     32  F   UNL     1       1.316   3.440  19.215  0.00  0.00    +0.000 F 
ATOM     33  F   UNL     1       1.285   4.473  17.284  0.00  0.00    +0.000 F 
ENDBRANCH  27  30
ENDBRANCH  24  27
ENDBRANCH   3  21
TORSDOF 6
ENDMDL
MODEL 8
REMARK VINA RESULT:      -8.0      2.869      4.419
REMARK  Name = 
REMARK  7 active torsions:
REMARK  status: ('A' for Active; 'I' for Inactive)
REMARK    1  A    between atoms: C_1  and  O_2
REMARK    2  A    between atoms: O_2  and  C_3
REMARK    3  A    between atoms: C_8  and  N_9
REMARK    4  A    between atoms: C_11  and  C_12
REMARK    5  A    between atoms: N_15  and  S_16
REMARK    6  A    between atoms: S_16  and  C_19
REMARK    7  A    between atoms: C_26  and  C_27
REMARK                            x       y       z     vdW  Elec       q    Type
REMARK                         _______ _______ _______ _____ _____    ______ ____
ROOT
ATOM      1  N   UNL     1       0.815  10.923  19.101  0.00  0.00    +0.000 N 
ATOM      2  N   UNL     1       1.967  10.191  19.051  0.00  0.00    +0.000 NA
ATOM      3  C   UNL     1       1.604   8.952  18.710  0.00  0.00    +0.000 A 
ATOM      4  C   UNL     1       0.229   8.879  18.454  0.00  0.00    +0.000 A 
ATOM      5  C   UNL     1      -0.254  10.175  18.593  0.00  0.00    +0.000 A 
ENDROOT
BRANCH   5   6
ATOM      6  C   UNL     1      -1.569  10.678  18.181  0.00  0.00    +0.000 A 
ATOM      7  C   UNL     1      -2.083  10.333  16.920  0.00  0.00    +0.000 A 
ATOM      8  C   UNL     1      -3.346  10.784  16.522  0.00  0.00    +0.000 A 
ATOM      9  C   UNL     1      -4.111  11.559  17.389  0.00  0.00    +0.000 A 
ATOM     10 CL   UNL     1      -5.690  12.056  16.927  0.00  0.00    +0.000 Cl
ATOM     11  C   UNL     1      -3.606  11.933  18.630  0.00  0.00    +0.000 A 
ATOM     12  C   UNL     1      -2.324  11.527  19.004  0.00  0.00    +0.000 A 
ENDBRANCH   5   6
BRANCH   1  18
ATOM     13  C   UNL     1       0.654  12.726  20.841  0.00  0.00    +0.000 A 
ATOM     14  C   UNL     1       0.635  14.106  21.112  0.00  0.00    +0.000 A 
ATOM     15  C   UNL     1       0.857  15.045  20.104  0.00  0.00    +0.000 A 
ATOM     16  C   UNL     1       1.150  14.617  18.814  0.00  0.00    +0.000 A 
ATOM     17  C   UNL     1       1.188  13.252  18.529  0.00  0.00    +0.000 A 
ATOM     18  C   UNL     1       0.897  12.294  19.522  0.00  0.00    +0.000 A 
BRANCH  13  20
ATOM     19  C   UNL     1      -0.766  11.657  22.434  0.00  0.00    +0.000 C 
ATOM     20  O   UNL     1       0.518  11.785  21.828  0.00  0.00    +0.000 OA
ENDBRANCH  13  20
ENDBRANCH   1  18
BRANCH   3  21
ATOM     21  C   UNL     1       2.671   7.912  18.619  0.00  0.00    +0.000 C 
ATOM     22  C   UNL     1       2.197   6.527  19.055  0.00  0.00    +0.000 C 
ATOM     23  C   UNL     1       3.440   5.734  19.420  0.00  0.00    +0.000 C 
ATOM     24  N   UNL     1       4.365   5.602  18.247  0.00  0.00    +0.000 NA
ATOM     25  C   UNL     1       4.639   6.891  17.509  0.00  0.00    +0.000 C 
ATOM     26  C   UNL     1       3.372   7.726  17.276  0.00  0.00    +0.000 C 
BRANCH  24  27
ATOM     27  S   UNL     1       5.870   4.814  18.691  0.00  0.00    +0.000 S 
ATOM     28  O   UNL     1       6.492   5.689  19.673  0.00  0.00    +0.000 OA
ATOM     29  O   UNL     1       5.498   3.466  19.079  0.00  0.00    +0.000 OA
BRANCH  27  30
ATOM     30  C   UNL     1       6.892   4.792  17.112  0.00  0.00    +0.000 C 
ATOM     31  F   UNL     1       7.205   6.045  16.673  0.00  0.00    +0.000 F 
ATOM     32  F   UNL     1       8.071   4.127  17.268  0.00  0.00    +0.000 F 
ATOM     33  F   UNL     1       6.227   4.180  16.089  0.00  0.00    +0.000 F 
ENDBRANCH  27  30
ENDBRANCH  24  27
ENDBRANCH   3  21
TORSDOF 6
ENDMDL
MODEL 9
REMARK VINA RESULT:      -7.9      5.569      9.160
REMARK  Name = 
REMARK  7 active torsions:
REMARK  status: ('A' for Active; 'I' for Inactive)
REMARK    1  A    between atoms: C_1  and  O_2
REMARK    2  A    between atoms: O_2  and  C_3
REMARK    3  A    between atoms: C_8  and  N_9
REMARK    4  A    between atoms: C_11  and  C_12
REMARK    5  A    between atoms: N_15  and  S_16
REMARK    6  A    between atoms: S_16  and  C_19
REMARK    7  A    between atoms: C_26  and  C_27
REMARK                            x       y       z     vdW  Elec       q    Type
REMARK                         _______ _______ _______ _____ _____    ______ ____
ROOT
ATOM      1  N   UNL     1       2.157   6.084  20.068  0.00  0.00    +0.000 N 
ATOM      2  N   UNL     1       1.201   6.900  20.603  0.00  0.00    +0.000 NA
ATOM      3  C   UNL     1       1.600   8.149  20.354  0.00  0.00    +0.000 A 
ATOM      4  C   UNL     1       2.771   8.164  19.585  0.00  0.00    +0.000 A 
ATOM      5  C   UNL     1       3.060   6.834  19.305  0.00  0.00    +0.000 A 
ENDROOT
BRANCH   5   6
ATOM      6  C   UNL     1       4.027   6.326  18.326  0.00  0.00    +0.000 A 
ATOM      7  C   UNL     1       4.915   5.299  18.690  0.00  0.00    +0.000 A 
ATOM      8  C   UNL     1       5.826   4.787  17.761  0.00  0.00    +0.000 A 
ATOM      9  C   UNL     1       5.839   5.278  16.458  0.00  0.00    +0.000 A 
ATOM     10 CL   UNL     1       6.911   4.601  15.298  0.00  0.00    +0.000 Cl
ATOM     11  C   UNL     1       4.987   6.313  16.088  0.00  0.00    +0.000 A 
ATOM     12  C   UNL     1       4.115   6.861  17.031  0.00  0.00    +0.000 A 
ENDBRANCH   5   6
BRANCH   1  18
ATOM     13  C   UNL     1       1.580   3.779  19.254  0.00  0.00    +0.000 A 
ATOM     14  C   UNL     1       1.366   2.430  19.586  0.00  0.00    +0.000 A 
ATOM     15  C   UNL     1       1.590   1.958  20.880  0.00  0.00    +0.000 A 
ATOM     16  C   UNL     1       2.080   2.821  21.854  0.00  0.00    +0.000 A 
ATOM     17  C   UNL     1       2.314   4.160  21.539  0.00  0.00    +0.000 A 
ATOM     18  C   UNL     1       2.025   4.666  20.255  0.00  0.00    +0.000 A 
BRANCH  13  20
ATOM     19  C   UNL     1       2.199   3.596  16.956  0.00  0.00    +0.000 C 
ATOM     20  O   UNL     1       1.443   4.248  17.973  0.00  0.00    +0.000 OA
ENDBRANCH  13  20
ENDBRANCH   1  18
BRANCH   3  21
ATOM     21  C   UNL     1       0.756   9.268  20.868  0.00  0.00    +0.000 C 
ATOM     22  C   UNL     1      -0.092   9.927  19.783  0.00  0.00    +0.000 C 
ATOM     23  C   UNL     1      -0.457  11.311  20.293  0.00  0.00    +0.000 C 
ATOM     24  N   UNL     1      -1.244  11.231  21.567  0.00  0.00    +0.000 NA
ATOM     25  C   UNL     1      -0.663  10.311  22.613  0.00  0.00    +0.000 C 
ATOM     26  C   UNL     1      -0.185   8.972  22.033  0.00  0.00    +0.000 C 
BRANCH  24  27
ATOM     27  S   UNL     1      -1.548  12.822  22.245  0.00  0.00    +0.000 S 
ATOM     28  O   UNL     1      -0.543  13.002  23.281  0.00  0.00    +0.000 OA
ATOM     29  O   UNL     1      -1.565  13.727  21.111  0.00  0.00    +0.000 OA
BRANCH  27  30
ATOM     30  C   UNL     1      -3.257  12.701  23.023  0.00  0.00    +0.000 C 
ATOM     31  F   UNL     1      -3.312  11.775  24.023  0.00  0.00    +0.000 F 
ATOM     32  F   UNL     1      -3.664  13.884  23.564  0.00  0.00    +0.000 F 
ATOM     33  F   UNL     1      -4.203  12.339  22.109  0.00  0.00    +0.000 F 
ENDBRANCH  27  30
ENDBRANCH  24  27
ENDBRANCH   3  21
TORSDOF 6
ENDMDL
