MODEL 1
REMARK VINA RESULT:      -8.0      0.000      0.000
REMARK  Name = 
REMARK  6 active torsions:
REMARK  status: ('A' for Active; 'I' for Inactive)
REMARK    1  A    between atoms: C_1  and  O_2
REMARK    2  A    between atoms: O_2  and  C_3
REMARK    3  A    between atoms: N_14  and  C_15
REMARK    4  A    between atoms: C_15  and  C_16
REMARK    5  A    between atoms: C_16  and  C_17
REMARK    6  A    between atoms: C_17  and  C_18
REMARK                            x       y       z     vdW  Elec       q    Type
REMARK                         _______ _______ _______ _____ _____    ______ ____
ROOT
ATOM      1  C   UNL     1       2.303   6.509  20.345  0.00  0.00    +0.000 C 
ATOM      2  C   UNL     1       1.359   5.299  20.436  0.00  0.00    +0.000 C 
ATOM      3  C   UNL     1       1.662   4.190  19.460  0.00  0.00    +0.000 A 
ATOM      4  C   UNL     1       1.154   2.902  19.687  0.00  0.00    +0.000 A 
ATOM      5  C   UNL     1       1.439   1.861  18.804  0.00  0.00    +0.000 A 
ATOM      6  C   UNL     1       2.185   2.109  17.658  0.00  0.00    +0.000 A 
ATOM      7  C   UNL     1       2.687   3.387  17.416  0.00  0.00    +0.000 A 
ATOM      8  C   UNL     1       2.471   4.436  18.332  0.00  0.00    +0.000 A 
ATOM      9  C   UNL     1       3.378   5.675  18.348  0.00  0.00    +0.000 C 
ATOM     10  C   UNL     1       4.584   5.165  19.125  0.00  0.00    +0.000 C 
ATOM     11  C   UNL     1       5.759   6.094  19.138  0.00  0.00    +0.000 C 
ATOM     12  N   UNL     1       6.228   6.654  17.891  0.00  0.00    +0.000 NA
ATOM     13  C   UNL     1       5.112   7.112  17.049  0.00  0.00    +0.000 C 
ATOM     14  C   UNL     1       3.875   6.186  16.971  0.00  0.00    +0.000 C 
ATOM     15  O   UNL     1       2.718   6.773  19.003  0.00  0.00    +0.000 OA
ENDROOT
BRANCH   1  17
ATOM     16  C   UNL     1       1.515   8.701  19.951  0.00  0.00    +0.000 C 
ATOM     17  O   UNL     1       1.623   7.646  20.898  0.00  0.00    +0.000 OA
ENDBRANCH   1  17
BRANCH  12  18
ATOM     18  C   UNL     1       7.318   5.925  17.223  0.00  0.00    +0.000 C 
BRANCH  18  19
ATOM     19  C   UNL     1       7.105   4.403  16.893  0.00  0.00    +0.000 C 
BRANCH  19  20
ATOM     20  C   UNL     1       6.051   4.010  15.841  0.00  0.00    +0.000 C 
BRANCH  20  21
ATOM     21  C   UNL     1       6.475   4.121  14.408  0.00  0.00    +0.000 A 
ATOM     22  C   UNL     1       5.857   3.320  13.439  0.00  0.00    +0.000 A 
ATOM     23  C   UNL     1       6.201   3.448  12.104  0.00  0.00    +0.000 A 
ATOM     24  C   UNL     1       7.174   4.373  11.719  0.00  0.00    +0.000 A 
ATOM     25  C   UNL     1       7.785   5.172  12.683  0.00  0.00    +0.000 A 
ATOM     26  C   UNL     1       7.445   5.057  14.024  0.00  0.00    +0.000 A 
ENDBRANCH  20  21
ENDBRANCH  19  20
ENDBRANCH  18  19
ENDBRANCH  12  18
TORSDOF 5
ENDMDL
MODEL 2
REMARK VINA RESULT:      -7.8      3.473      7.349
REMARK  Name = 
REMARK  6 active torsions:
REMARK  status: ('A' for Active; 'I' for Inactive)
REMARK    1  A    between atoms: C_1  and  O_2
REMARK    2  A    between atoms: O_2  and  C_3
REMARK    3  A    between atoms: N_14  and  C_15
REMARK    4  A    between atoms: C_15  and  C_16
REMARK    5  A    between atoms: C_16  and  C_17
REMARK    6  A    between atoms: C_17  and  C_18
REMARK                            x       y       z     vdW  Elec       q    Type
REMARK                         _______ _______ _______ _____ _____    ______ ____
ROOT
ATOM      1  C   UNL     1       5.205   5.170  19.139  0.00  0.00    +0.000 C 
ATOM      2  C   UNL     1       4.960   3.666  18.932  0.00  0.00    +0.000 C 
ATOM      3  C   UNL     1       3.506   3.272  18.852  0.00  0.00    +0.000 A 
ATOM      4  C   UNL     1       3.147   2.039  18.287  0.00  0.00    +0.000 A 
ATOM      5  C   UNL     1       1.807   1.666  18.189  0.00  0.00    +0.000 A 
ATOM      6  C   UNL     1       0.818   2.494  18.706  0.00  0.00    +0.000 A 
ATOM      7  C   UNL     1       1.162   3.717  19.280  0.00  0.00    +0.000 A 
ATOM      8  C   UNL     1       2.504   4.145  19.324  0.00  0.00    +0.000 A 
ATOM      9  C   UNL     1       2.859   5.629  19.492  0.00  0.00    +0.000 C 
ATOM     10  C   UNL     1       2.676   6.154  18.075  0.00  0.00    +0.000 C 
ATOM     11  C   UNL     1       2.751   7.644  17.944  0.00  0.00    +0.000 C 
ATOM     12  N   UNL     1       1.969   8.470  18.836  0.00  0.00    +0.000 NA
ATOM     13  C   UNL     1       2.042   7.986  20.224  0.00  0.00    +0.000 C 
ATOM     14  C   UNL     1       1.945   6.456  20.432  0.00  0.00    +0.000 C 
ATOM     15  O   UNL     1       4.209   5.773  19.967  0.00  0.00    +0.000 OA
ENDROOT
BRANCH   1  17
ATOM     16  C   UNL     1       7.524   5.339  18.717  0.00  0.00    +0.000 C 
ATOM     17  O   UNL     1       6.510   5.332  19.714  0.00  0.00    +0.000 OA
ENDBRANCH   1  17
BRANCH  12  18
ATOM     18  C   UNL     1       0.651   8.892  18.340  0.00  0.00    +0.000 C 
BRANCH  18  19
ATOM     19  C   UNL     1       0.218  10.388  18.549  0.00  0.00    +0.000 C 
BRANCH  19  20
ATOM     20  C   UNL     1      -1.246  10.695  18.914  0.00  0.00    +0.000 C 
BRANCH  20  21
ATOM     21  C   UNL     1      -2.227  10.674  17.781  0.00  0.00    +0.000 A 
ATOM     22  C   UNL     1      -3.418  11.404  17.882  0.00  0.00    +0.000 A 
ATOM     23  C   UNL     1      -4.310  11.436  16.824  0.00  0.00    +0.000 A 
ATOM     24  C   UNL     1      -4.029  10.732  15.652  0.00  0.00    +0.000 A 
ATOM     25  C   UNL     1      -2.842  10.010  15.550  0.00  0.00    +0.000 A 
ATOM     26  C   UNL     1      -1.938   9.973  16.602  0.00  0.00    +0.000 A 
ENDBRANCH  20  21
ENDBRANCH  19  20
ENDBRANCH  18  19
ENDBRANCH  12  18
TORSDOF 5
ENDMDL
MODEL 3
REMARK VINA RESULT:      -7.7      0.905      1.420
REMARK  Name = 
REMARK  6 active torsions:
REMARK  status: ('A' for Active; 'I' for Inactive)
REMARK    1  A    between atoms: C_1  and  O_2
REMARK    2  A    between atoms: O_2  and  C_3
REMARK    3  A    between atoms: N_14  and  C_15
REMARK    4  A    between atoms: C_15  and  C_16
REMARK    5  A    between atoms: C_16  and  C_17
REMARK    6  A    between atoms: C_17  and  C_18
REMARK                            x       y       z     vdW  Elec       q    Type
REMARK                         _______ _______ _______ _____ _____    ______ ____
ROOT
ATOM      1  C   UNL     1       2.464   7.033  19.973  0.00  0.00    +0.000 C 
ATOM      2  C   UNL     1       1.457   5.982  20.466  0.00  0.00    +0.000 C 
ATOM      3  C   UNL     1       1.648   4.606  19.880  0.00  0.00    +0.000 A 
ATOM      4  C   UNL     1       1.078   3.491  20.514  0.00  0.00    +0.000 A 
ATOM      5  C   UNL     1       1.259   2.210  19.994  0.00  0.00    +0.000 A 
ATOM      6  C   UNL     1       1.961   2.036  18.808  0.00  0.00    +0.000 A 
ATOM      7  C   UNL     1       2.523   3.135  18.163  0.00  0.00    +0.000 A 
ATOM      8  C   UNL     1       2.413   4.430  18.708  0.00  0.00    +0.000 A 
ATOM      9  C   UNL     1       3.390   5.546  18.309  0.00  0.00    +0.000 C 
ATOM     10  C   UNL     1       4.601   5.220  19.172  0.00  0.00    +0.000 C 
ATOM     11  C   UNL     1       5.827   6.022  18.859  0.00  0.00    +0.000 C 
ATOM     12  N   UNL     1       6.266   6.131  17.486  0.00  0.00    +0.000 NA
ATOM     13  C   UNL     1       5.137   6.382  16.575  0.00  0.00    +0.000 C 
ATOM     14  C   UNL     1       3.847   5.566  16.828  0.00  0.00    +0.000 C 
ATOM     15  O   UNL     1       2.827   6.837  18.605  0.00  0.00    +0.000 OA
ENDROOT
BRANCH   1  17
ATOM     16  C   UNL     1       1.179   8.416  21.395  0.00  0.00    +0.000 C 
ATOM     17  O   UNL     1       1.879   8.331  20.160  0.00  0.00    +0.000 OA
ENDBRANCH   1  17
BRANCH  12  18
ATOM     18  C   UNL     1       7.277   5.156  17.050  0.00  0.00    +0.000 C 
BRANCH  18  19
ATOM     19  C   UNL     1       6.943   4.231  15.824  0.00  0.00    +0.000 C 
BRANCH  19  20
ATOM     20  C   UNL     1       7.142   4.781  14.400  0.00  0.00    +0.000 C 
BRANCH  20  21
ATOM     21  C   UNL     1       6.452   4.032  13.300  0.00  0.00    +0.000 A 
ATOM     22  C   UNL     1       7.210   3.288  12.387  0.00  0.00    +0.000 A 
ATOM     23  C   UNL     1       6.584   2.550  11.397  0.00  0.00    +0.000 A 
ATOM     24  C   UNL     1       5.191   2.551  11.300  0.00  0.00    +0.000 A 
ATOM     25  C   UNL     1       4.438   3.289  12.211  0.00  0.00    +0.000 A 
ATOM     26  C   UNL     1       5.053   4.029  13.211  0.00  0.00    +0.000 A 
ENDBRANCH  20  21
ENDBRANCH  19  20
ENDBRANCH  18  19
ENDBRANCH  12  18
TORSDOF 5
ENDMDL
MODEL 4
REMARK VINA RESULT:      -7.7      3.400      7.483
REMARK  Name = 
REMARK  6 active torsions:
REMARK  status: ('A' for Active; 'I' for Inactive)
REMARK    1  A    between atoms: C_1  and  O_2
REMARK    2  A    between atoms: O_2  and  C_3
REMARK    3  A    between atoms: N_14  and  C_15
REMARK    4  A    between atoms: C_15  and  C_16
REMARK    5  A    between atoms: C_16  and  C_17
REMARK    6  A    between atoms: C_17  and  C_18
REMARK                            x       y       z     vdW  Elec       q    Type
REMARK                         _______ _______ _______ _____ _____    ______ ____
ROOT
ATOM      1  C   UNL     1       5.348   4.796  19.049  0.00  0.00    +0.000 C 
ATOM      2  C   UNL     1       4.958   3.310  19.030  0.00  0.00    +0.000 C 
ATOM      3  C   UNL     1       3.473   3.051  18.978  0.00  0.00    +0.000 A 
ATOM      4  C   UNL     1       2.997   1.796  18.567  0.00  0.00    +0.000 A 
ATOM      5  C   UNL     1       1.627   1.546  18.498  0.00  0.00    +0.000 A 
ATOM      6  C   UNL     1       0.722   2.524  18.891  0.00  0.00    +0.000 A 
ATOM      7  C   UNL     1       1.182   3.771  19.311  0.00  0.00    +0.000 A 
ATOM      8  C   UNL     1       2.560   4.069  19.321  0.00  0.00    +0.000 A 
ATOM      9  C   UNL     1       3.057   5.522  19.306  0.00  0.00    +0.000 C 
ATOM     10  C   UNL     1       2.931   5.877  17.831  0.00  0.00    +0.000 C 
ATOM     11  C   UNL     1       3.151   7.324  17.515  0.00  0.00    +0.000 C 
ATOM     12  N   UNL     1       2.452   8.328  18.284  0.00  0.00    +0.000 NA
ATOM     13  C   UNL     1       2.473   8.020  19.723  0.00  0.00    +0.000 C 
ATOM     14  C   UNL     1       2.226   6.545  20.121  0.00  0.00    +0.000 C 
ATOM     15  O   UNL     1       4.414   5.593  19.780  0.00  0.00    +0.000 OA
ENDROOT
BRANCH   1  17
ATOM     16  C   UNL     1       7.444   5.885  18.949  0.00  0.00    +0.000 C 
ATOM     17  O   UNL     1       6.661   4.904  19.619  0.00  0.00    +0.000 OA
ENDBRANCH   1  17
BRANCH  12  18
ATOM     18  C   UNL     1       1.182   8.809  17.719  0.00  0.00    +0.000 C 
BRANCH  18  19
ATOM     19  C   UNL     1       0.607  10.179  18.233  0.00  0.00    +0.000 C 
BRANCH  19  20
ATOM     20  C   UNL     1      -0.761  10.193  18.939  0.00  0.00    +0.000 C 
BRANCH  20  21
ATOM     21  C   UNL     1      -0.732  10.212  20.437  0.00  0.00    +0.000 A 
ATOM     22  C   UNL     1      -0.453   9.032  21.139  0.00  0.00    +0.000 A 
ATOM     23  C   UNL     1      -0.372   9.044  22.521  0.00  0.00    +0.000 A 
ATOM     24  C   UNL     1      -0.575  10.234  23.222  0.00  0.00    +0.000 A 
ATOM     25  C   UNL     1      -0.847  11.408  22.523  0.00  0.00    +0.000 A 
ATOM     26  C   UNL     1      -0.928  11.410  21.137  0.00  0.00    +0.000 A 
ENDBRANCH  20  21
ENDBRANCH  19  20
ENDBRANCH  18  19
ENDBRANCH  12  18
TORSDOF 5
ENDMDL
MODEL 5
REMARK VINA RESULT:      -7.7      3.450      7.541
REMARK  Name = 
REMARK  6 active torsions:
REMARK  status: ('A' for Active; 'I' for Inactive)
REMARK    1  A    between atoms: C_1  and  O_2
REMARK    2  A    between atoms: O_2  and  C_3
REMARK    3  A    between atoms: N_14  and  C_15
REMARK    4  A    between atoms: C_15  and  C_16
REMARK    5  A    between atoms: C_16  and  C_17
REMARK    6  A    between atoms: C_17  and  C_18
REMARK                            x       y       z     vdW  Elec       q    Type
REMARK                         _______ _______ _______ _____ _____    ______ ____
ROOT
ATOM      1  C   UNL     1       5.169   5.125  19.120  0.00  0.00    +0.000 C 
ATOM      2  C   UNL     1       4.869   3.625  18.973  0.00  0.00    +0.000 C 
ATOM      3  C   UNL     1       3.402   3.281  18.908  0.00  0.00    +0.000 A 
ATOM      4  C   UNL     1       2.998   2.040  18.393  0.00  0.00    +0.000 A 
ATOM      5  C   UNL     1       1.645   1.713  18.309  0.00  0.00    +0.000 A 
ATOM      6  C   UNL     1       0.687   2.596  18.792  0.00  0.00    +0.000 A 
ATOM      7  C   UNL     1       1.076   3.828  19.316  0.00  0.00    +0.000 A 
ATOM      8  C   UNL     1       2.433   4.208  19.344  0.00  0.00    +0.000 A 
ATOM      9  C   UNL     1       2.842   5.684  19.453  0.00  0.00    +0.000 C 
ATOM     10  C   UNL     1       2.677   6.158  18.016  0.00  0.00    +0.000 C 
ATOM     11  C   UNL     1       2.806   7.638  17.826  0.00  0.00    +0.000 C 
ATOM     12  N   UNL     1       2.056   8.527  18.684  0.00  0.00    +0.000 NA
ATOM     13  C   UNL     1       2.112   8.096  20.090  0.00  0.00    +0.000 C 
ATOM     14  C   UNL     1       1.959   6.580  20.359  0.00  0.00    +0.000 C 
ATOM     15  O   UNL     1       4.197   5.797  19.923  0.00  0.00    +0.000 OA
ENDROOT
BRANCH   1  17
ATOM     16  C   UNL     1       7.382   5.883  18.781  0.00  0.00    +0.000 C 
ATOM     17  O   UNL     1       6.479   5.263  19.689  0.00  0.00    +0.000 OA
ENDBRANCH   1  17
BRANCH  12  18
ATOM     18  C   UNL     1       0.753   8.976  18.170  0.00  0.00    +0.000 C 
BRANCH  18  19
ATOM     19  C   UNL     1      -0.132   9.899  19.084  0.00  0.00    +0.000 C 
BRANCH  19  20
ATOM     20  C   UNL     1      -0.649  11.234  18.516  0.00  0.00    +0.000 C 
BRANCH  20  21
ATOM     21  C   UNL     1      -2.021  11.208  17.915  0.00  0.00    +0.000 A 
ATOM     22  C   UNL     1      -2.218  10.617  16.660  0.00  0.00    +0.000 A 
ATOM     23  C   UNL     1      -3.488  10.540  16.115  0.00  0.00    +0.000 A 
ATOM     24  C   UNL     1      -4.580  11.060  16.812  0.00  0.00    +0.000 A 
ATOM     25  C   UNL     1      -4.384  11.645  18.062  0.00  0.00    +0.000 A 
ATOM     26  C   UNL     1      -3.117  11.724  18.621  0.00  0.00    +0.000 A 
ENDBRANCH  20  21
ENDBRANCH  19  20
ENDBRANCH  18  19
ENDBRANCH  12  18
TORSDOF 5
ENDMDL
MODEL 6
REMARK VINA RESULT:      -7.6      4.210      6.992
REMARK  Name = 
REMARK  6 active torsions:
REMARK  status: ('A' for Active; 'I' for Inactive)
REMARK    1  A    between atoms: C_1  and  O_2
REMARK    2  A    between atoms: O_2  and  C_3
REMARK    3  A    between atoms: N_14  and  C_15
REMARK    4  A    between atoms: C_15  and  C_16
REMARK    5  A    between atoms: C_16  and  C_17
REMARK    6  A    between atoms: C_17  and  C_18
REMARK                            x       y       z     vdW  Elec       q    Type
REMARK                         _______ _______ _______ _____ _____    ______ ____
ROOT
ATOM      1  C   UNL     1       0.496  12.273  20.007  0.00  0.00    +0.000 C 
ATOM      2  C   UNL     1      -0.920  12.699  19.588  0.00  0.00    +0.000 C 
ATOM      3  C   UNL     1      -1.676  11.668  18.789  0.00  0.00    +0.000 A 
ATOM      4  C   UNL     1      -3.073  11.753  18.683  0.00  0.00    +0.000 A 
ATOM      5  C   UNL     1      -3.789  10.797  17.963  0.00  0.00    +0.000 A 
ATOM      6  C   UNL     1      -3.114   9.782  17.296  0.00  0.00    +0.000 A 
ATOM      7  C   UNL     1      -1.726   9.692  17.385  0.00  0.00    +0.000 A 
ATOM      8  C   UNL     1      -0.990  10.605  18.165  0.00  0.00    +0.000 A 
ATOM      9  C   UNL     1       0.422  10.264  18.666  0.00  0.00    +0.000 C 
ATOM     10  C   UNL     1       0.119   9.386  19.871  0.00  0.00    +0.000 C 
ATOM     11  C   UNL     1       1.314   8.711  20.471  0.00  0.00    +0.000 C 
ATOM     12  N   UNL     1       2.225   7.995  19.607  0.00  0.00    +0.000 NA
ATOM     13  C   UNL     1       2.518   8.754  18.381  0.00  0.00    +0.000 C 
ATOM     14  C   UNL     1       1.322   9.456  17.696  0.00  0.00    +0.000 C 
ATOM     15  O   UNL     1       1.134  11.464  19.017  0.00  0.00    +0.000 OA
ENDROOT
BRANCH   1  17
ATOM     16  C   UNL     1       2.439  13.504  19.464  0.00  0.00    +0.000 C 
ATOM     17  O   UNL     1       1.261  13.461  20.260  0.00  0.00    +0.000 OA
ENDBRANCH   1  17
BRANCH  12  18
ATOM     18  C   UNL     1       1.981   6.552  19.462  0.00  0.00    +0.000 C 
BRANCH  18  19
ATOM     19  C   UNL     1       1.515   5.743  20.726  0.00  0.00    +0.000 C 
BRANCH  19  20
ATOM     20  C   UNL     1       1.064   4.281  20.549  0.00  0.00    +0.000 C 
BRANCH  20  21
ATOM     21  C   UNL     1       1.946   3.416  19.702  0.00  0.00    +0.000 A 
ATOM     22  C   UNL     1       3.157   2.942  20.222  0.00  0.00    +0.000 A 
ATOM     23  C   UNL     1       3.958   2.099  19.470  0.00  0.00    +0.000 A 
ATOM     24  C   UNL     1       3.564   1.724  18.184  0.00  0.00    +0.000 A 
ATOM     25  C   UNL     1       2.357   2.193  17.669  0.00  0.00    +0.000 A 
ATOM     26  C   UNL     1       1.543   3.034  18.415  0.00  0.00    +0.000 A 
ENDBRANCH  20  21
ENDBRANCH  19  20
ENDBRANCH  18  19
ENDBRANCH  12  18
TORSDOF 5
ENDMDL
MODEL 7
REMARK VINA RESULT:      -7.5      3.250      6.255
REMARK  Name = 
REMARK  6 active torsions:
REMARK  status: ('A' for Active; 'I' for Inactive)
REMARK    1  A    between atoms: C_1  and  O_2
REMARK    2  A    between atoms: O_2  and  C_3
REMARK    3  A    between atoms: N_14  and  C_15
REMARK    4  A    between atoms: C_15  and  C_16
REMARK    5  A    between atoms: C_16  and  C_17
REMARK    6  A    between atoms: C_17  and  C_18
REMARK                            x       y       z     vdW  Elec       q    Type
REMARK                         _______ _______ _______ _____ _____    ______ ____
ROOT
ATOM      1  C   UNL     1       0.914  11.937  20.475  0.00  0.00    +0.000 C 
ATOM      2  C   UNL     1      -0.455  12.514  20.081  0.00  0.00    +0.000 C 
ATOM      3  C   UNL     1      -1.268  11.635  19.165  0.00  0.00    +0.000 A 
ATOM      4  C   UNL     1      -2.651  11.839  19.046  0.00  0.00    +0.000 A 
ATOM      5  C   UNL     1      -3.420  11.023  18.217  0.00  0.00    +0.000 A 
ATOM      6  C   UNL     1      -2.808  10.035  17.456  0.00  0.00    +0.000 A 
ATOM      7  C   UNL     1      -1.434   9.829  17.556  0.00  0.00    +0.000 A 
ATOM      8  C   UNL     1      -0.649  10.594  18.442  0.00  0.00    +0.000 A 
ATOM      9  C   UNL     1       0.720  10.093  18.925  0.00  0.00    +0.000 C 
ATOM     10  C   UNL     1       0.323   9.119  20.025  0.00  0.00    +0.000 C 
ATOM     11  C   UNL     1       1.448   8.294  20.568  0.00  0.00    +0.000 C 
ATOM     12  N   UNL     1       2.324   7.604  19.647  0.00  0.00    +0.000 NA
ATOM     13  C   UNL     1       2.703   8.463  18.514  0.00  0.00    +0.000 C 
ATOM     14  C   UNL     1       1.579   9.324  17.889  0.00  0.00    +0.000 C 
ATOM     15  O   UNL     1       1.513  11.190  19.414  0.00  0.00    +0.000 OA
ENDROOT
BRANCH   1  17
ATOM     16  C   UNL     1       2.289  13.712  19.736  0.00  0.00    +0.000 C 
ATOM     17  O   UNL     1       1.760  13.028  20.866  0.00  0.00    +0.000 OA
ENDBRANCH   1  17
BRANCH  12  18
ATOM     18  C   UNL     1       1.974   6.208  19.344  0.00  0.00    +0.000 C 
BRANCH  18  19
ATOM     19  C   UNL     1       2.316   5.646  17.916  0.00  0.00    +0.000 C 
BRANCH  19  20
ATOM     20  C   UNL     1       3.547   4.736  17.749  0.00  0.00    +0.000 C 
BRANCH  20  21
ATOM     21  C   UNL     1       4.882   5.391  17.936  0.00  0.00    +0.000 A 
ATOM     22  C   UNL     1       5.687   5.027  19.022  0.00  0.00    +0.000 A 
ATOM     23  C   UNL     1       6.944   5.585  19.178  0.00  0.00    +0.000 A 
ATOM     24  C   UNL     1       7.412   6.523  18.256  0.00  0.00    +0.000 A 
ATOM     25  C   UNL     1       6.612   6.882  17.173  0.00  0.00    +0.000 A 
ATOM     26  C   UNL     1       5.352   6.326  17.003  0.00  0.00    +0.000 A 
ENDBRANCH  20  21
ENDBRANCH  19  20
ENDBRANCH  18  19
ENDBRANCH  12  18
TORSDOF 5
ENDMDL
MODEL 8
REMARK VINA RESULT:      -7.3      3.310      6.050
REMARK  Name = 
REMARK  6 active torsions:
REMARK  status: ('A' for Active; 'I' for Inactive)
REMARK    1  A    between atoms: C_1  and  O_2
REMARK    2  A    between atoms: O_2  and  C_3
REMARK    3  A    between atoms: N_14  and  C_15
REMARK    4  A    between atoms: C_15  and  C_16
REMARK    5  A    between atoms: C_16  and  C_17
REMARK    6  A    between atoms: C_17  and  C_18
REMARK                            x       y       z     vdW  Elec       q    Type
REMARK                         _______ _______ _______ _____ _____    ______ ____
ROOT
ATOM      1  C   UNL     1       1.197  12.046  19.967  0.00  0.00    +0.000 C 
ATOM      2  C   UNL     1      -0.168  12.666  19.631  0.00  0.00    +0.000 C 
ATOM      3  C   UNL     1      -1.123  11.737  18.924  0.00  0.00    +0.000 A 
ATOM      4  C   UNL     1      -2.496  12.026  18.910  0.00  0.00    +0.000 A 
ATOM      5  C   UNL     1      -3.395  11.168  18.275  0.00  0.00    +0.000 A 
ATOM      6  C   UNL     1      -2.926  10.048  17.601  0.00  0.00    +0.000 A 
ATOM      7  C   UNL     1      -1.563   9.756  17.598  0.00  0.00    +0.000 A 
ATOM      8  C   UNL     1      -0.646  10.569  18.293  0.00  0.00    +0.000 A 
ATOM      9  C   UNL     1       0.733  10.036  18.708  0.00  0.00    +0.000 C 
ATOM     10  C   UNL     1       0.394   9.244  19.963  0.00  0.00    +0.000 C 
ATOM     11  C   UNL     1       1.518   8.415  20.504  0.00  0.00    +0.000 C 
ATOM     12  N   UNL     1       2.250   7.550  19.606  0.00  0.00    +0.000 NA
ATOM     13  C   UNL     1       2.561   8.225  18.336  0.00  0.00    +0.000 C 
ATOM     14  C   UNL     1       1.432   9.078  17.710  0.00  0.00    +0.000 C 
ATOM     15  O   UNL     1       1.637  11.125  18.966  0.00  0.00    +0.000 OA
ENDROOT
BRANCH   1  17
ATOM     16  C   UNL     1       1.948  14.133  19.153  0.00  0.00    +0.000 C 
ATOM     17  O   UNL     1       2.144  13.113  20.125  0.00  0.00    +0.000 OA
ENDBRANCH   1  17
BRANCH  12  18
ATOM     18  C   UNL     1       1.788   6.155  19.531  0.00  0.00    +0.000 C 
BRANCH  18  19
ATOM     19  C   UNL     1       2.833   5.042  19.159  0.00  0.00    +0.000 C 
BRANCH  19  20
ATOM     20  C   UNL     1       4.333   5.337  19.344  0.00  0.00    +0.000 C 
BRANCH  20  21
ATOM     21  C   UNL     1       5.225   4.967  18.199  0.00  0.00    +0.000 A 
ATOM     22  C   UNL     1       4.661   4.627  16.962  0.00  0.00    +0.000 A 
ATOM     23  C   UNL     1       5.474   4.332  15.881  0.00  0.00    +0.000 A 
ATOM     24  C   UNL     1       6.863   4.365  16.021  0.00  0.00    +0.000 A 
ATOM     25  C   UNL     1       7.423   4.707  17.250  0.00  0.00    +0.000 A 
ATOM     26  C   UNL     1       6.619   5.009  18.341  0.00  0.00    +0.000 A 
ENDBRANCH  20  21
ENDBRANCH  19  20
ENDBRANCH  18  19
ENDBRANCH  12  18
TORSDOF 5
ENDMDL
MODEL 9
REMARK VINA RESULT:      -7.3      4.245      7.063
REMARK  Name = 
REMARK  6 active torsions:
REMARK  status: ('A' for Active; 'I' for Inactive)
REMARK    1  A    between atoms: C_1  and  O_2
REMARK    2  A    between atoms: O_2  and  C_3
REMARK    3  A    between atoms: N_14  and  C_15
REMARK    4  A    between atoms: C_15  and  C_16
REMARK    5  A    between atoms: C_16  and  C_17
REMARK    6  A    between atoms: C_17  and  C_18
REMARK                            x       y       z     vdW  Elec       q    Type
REMARK                         _______ _______ _______ _____ _____    ______ ____
ROOT
ATOM      1  C   UNL     1      -0.152  12.334  20.244  0.00  0.00    +0.000 C 
ATOM      2  C   UNL     1      -1.550  12.675  19.703  0.00  0.00    +0.000 C 
ATOM      3  C   UNL     1      -2.127  11.646  18.763  0.00  0.00    +0.000 A 
ATOM      4  C   UNL     1      -3.508  11.627  18.513  0.00  0.00    +0.000 A 
ATOM      5  C   UNL     1      -4.061  10.671  17.660  0.00  0.00    +0.000 A 
ATOM      6  C   UNL     1      -3.235   9.764  17.007  0.00  0.00    +0.000 A 
ATOM      7  C   UNL     1      -1.861   9.780  17.239  0.00  0.00    +0.000 A 
ATOM      8  C   UNL     1      -1.291  10.690  18.151  0.00  0.00    +0.000 A 
ATOM      9  C   UNL     1       0.086  10.427  18.778  0.00  0.00    +0.000 C 
ATOM     10  C   UNL     1      -0.260   9.443  19.886  0.00  0.00    +0.000 C 
ATOM     11  C   UNL     1       0.921   8.825  20.567  0.00  0.00    +0.000 C 
ATOM     12  N   UNL     1       1.975   8.248  19.763  0.00  0.00    +0.000 NA
ATOM     13  C   UNL     1       2.325   9.114  18.627  0.00  0.00    +0.000 C 
ATOM     14  C   UNL     1       1.148   9.766  17.863  0.00  0.00    +0.000 C 
ATOM     15  O   UNL     1       0.652  11.652  19.280  0.00  0.00    +0.000 OA
ENDROOT
BRANCH   1  17
ATOM     16  C   UNL     1       1.893  13.476  20.554  0.00  0.00    +0.000 C 
ATOM     17  O   UNL     1       0.477  13.557  20.654  0.00  0.00    +0.000 OA
ENDBRANCH   1  17
BRANCH  12  18
ATOM     18  C   UNL     1       1.874   6.804  19.502  0.00  0.00    +0.000 C 
BRANCH  18  19
ATOM     19  C   UNL     1       1.774   5.828  20.730  0.00  0.00    +0.000 C 
BRANCH  19  20
ATOM     20  C   UNL     1       1.171   4.427  20.519  0.00  0.00    +0.000 C 
BRANCH  20  21
ATOM     21  C   UNL     1       1.977   3.480  19.682  0.00  0.00    +0.000 A 
ATOM     22  C   UNL     1       1.645   3.291  18.335  0.00  0.00    +0.000 A 
ATOM     23  C   UNL     1       2.411   2.459  17.537  0.00  0.00    +0.000 A 
ATOM     24  C   UNL     1       3.516   1.797  18.075  0.00  0.00    +0.000 A 
ATOM     25  C   UNL     1       3.848   1.989  19.415  0.00  0.00    +0.000 A 
ATOM     26  C   UNL     1       3.091   2.823  20.225  0.00  0.00    +0.000 A 
ENDBRANCH  20  21
ENDBRANCH  19  20
ENDBRANCH  18  19
ENDBRANCH  12  18
TORSDOF 5
ENDMDL
