MODEL 1
REMARK VINA RESULT:      -9.4      0.000      0.000
REMARK  Name = 
REMARK  4 active torsions:
REMARK  status: ('A' for Active; 'I' for Inactive)
REMARK    1  A    between atoms: C_1  and  C_2
REMARK    2  A    between atoms: C_8  and  C_9
REMARK    3  A    between atoms: C_15  and  C_16
REMARK    4  A    between atoms: C_22  and  C_23
REMARK                            x       y       z     vdW  Elec       q    Type
REMARK                         _______ _______ _______ _____ _____    ______ ____
ROOT
ATOM      1  C   UNL     1       1.695   8.330  20.570  0.00  0.00    +0.000 C 
ATOM      2  C   UNL     1       1.117   9.403  19.993  0.00  0.00    +0.000 C 
ATOM      3  C   UNL     1       0.535   9.429  18.614  0.00  0.00    +0.000 C 
ATOM      4  N   UNL     1       0.815  10.698  17.950  0.00  0.00    +0.000 NA
ATOM      5  C   UNL     1       0.110  11.752  18.667  0.00  0.00    +0.000 C 
ATOM      6  C   UNL     1       0.636  11.917  20.060  0.00  0.00    +0.000 C 
ATOM      7  C   UNL     1       0.735  13.096  20.709  0.00  0.00    +0.000 C 
ATOM      8  C   UNL     1       1.075  10.679  20.786  0.00  0.00    +0.000 C 
ATOM      9  O   UNL     1       1.390  10.707  21.974  0.00  0.00    +0.000 OA
ATOM     10  H   UNL     1       0.475  10.656  16.991  0.00  0.00    +0.000 HD
ENDROOT
BRANCH   1  18
ATOM     11  C   UNL     1       2.985   3.194  16.730  0.00  0.00    +0.000 C 
ATOM     12  C   UNL     1       2.321   3.297  18.078  0.00  0.00    +0.000 A 
ATOM     13  C   UNL     1       1.843   2.136  18.706  0.00  0.00    +0.000 A 
ATOM     14  C   UNL     1       1.213   2.213  19.944  0.00  0.00    +0.000 A 
ATOM     15  C   UNL     1       1.051   3.452  20.556  0.00  0.00    +0.000 A 
ATOM     16  C   UNL     1       1.525   4.620  19.937  0.00  0.00    +0.000 A 
ATOM     17  C   UNL     1       1.365   5.881  20.535  0.00  0.00    +0.000 A 
ATOM     18  C   UNL     1       1.854   7.029  19.909  0.00  0.00    +0.000 A 
ATOM     19  C   UNL     1       2.503   6.844  18.694  0.00  0.00    +0.000 A 
ATOM     20 CL   UNL     1       3.238   8.139  17.829  0.00  0.00    +0.000 Cl
ATOM     21  N   UNL     1       2.667   5.650  18.085  0.00  0.00    +0.000 NA
ATOM     22  C   UNL     1       2.181   4.550  18.686  0.00  0.00    +0.000 A 
ENDBRANCH   1  18
BRANCH   7  23
ATOM     23  C   UNL     1       0.267  14.365  20.140  0.00  0.00    +0.000 A 
ATOM     24  C   UNL     1       1.105  15.116  19.313  0.00  0.00    +0.000 A 
ATOM     25  C   UNL     1       0.632  16.292  18.705  0.00  0.00    +0.000 A 
ATOM     26  C   UNL     1       1.456  17.065  17.870  0.00  0.00    +0.000 A 
ATOM     27  C   UNL     1       0.969  18.231  17.280  0.00  0.00    +0.000 A 
ATOM     28  C   UNL     1      -0.344  18.622  17.513  0.00  0.00    +0.000 A 
ATOM     29  C   UNL     1      -1.180  17.852  18.337  0.00  0.00    +0.000 A 
ATOM     30  C   UNL     1      -2.604  18.285  18.565  0.00  0.00    +0.000 C 
ATOM     31  C   UNL     1      -0.705  16.685  18.947  0.00  0.00    +0.000 A 
ATOM     32  N   UNL     1      -1.516  15.966  19.742  0.00  0.00    +0.000 NA
ATOM     33  C   UNL     1      -1.025  14.848  20.319  0.00  0.00    +0.000 A 
ATOM     34 CL   UNL     1      -2.194  14.034  21.288  0.00  0.00    +0.000 Cl
ENDBRANCH   7  23
TORSDOF 2
ENDMDL
MODEL 2
REMARK VINA RESULT:      -9.4      1.170      1.910
REMARK  Name = 
REMARK  4 active torsions:
REMARK  status: ('A' for Active; 'I' for Inactive)
REMARK    1  A    between atoms: C_1  and  C_2
REMARK    2  A    between atoms: C_8  and  C_9
REMARK    3  A    between atoms: C_15  and  C_16
REMARK    4  A    between atoms: C_22  and  C_23
REMARK                            x       y       z     vdW  Elec       q    Type
REMARK                         _______ _______ _______ _____ _____    ______ ____
ROOT
ATOM      1  C   UNL     1       1.666   8.348  20.607  0.00  0.00    +0.000 C 
ATOM      2  C   UNL     1       0.988   9.365  20.037  0.00  0.00    +0.000 C 
ATOM      3  C   UNL     1       0.315   9.309  18.701  0.00  0.00    +0.000 C 
ATOM      4  N   UNL     1       0.476  10.568  17.980  0.00  0.00    +0.000 NA
ATOM      5  C   UNL     1      -0.241  11.605  18.709  0.00  0.00    +0.000 C 
ATOM      6  C   UNL     1       0.365  11.848  20.058  0.00  0.00    +0.000 C 
ATOM      7  C   UNL     1       0.438  13.053  20.660  0.00  0.00    +0.000 C 
ATOM      8  C   UNL     1       0.924  10.664  20.791  0.00  0.00    +0.000 C 
ATOM      9  O   UNL     1       1.315  10.752  21.953  0.00  0.00    +0.000 OA
ATOM     10  H   UNL     1       0.075  10.472  17.048  0.00  0.00    +0.000 HD
ENDROOT
BRANCH   1  18
ATOM     11  C   UNL     1       3.088   3.152  16.898  0.00  0.00    +0.000 C 
ATOM     12  C   UNL     1       2.415   3.272  18.240  0.00  0.00    +0.000 A 
ATOM     13  C   UNL     1       1.959   2.116  18.893  0.00  0.00    +0.000 A 
ATOM     14  C   UNL     1       1.321   2.209  20.126  0.00  0.00    +0.000 A 
ATOM     15  C   UNL     1       1.129   3.458  20.707  0.00  0.00    +0.000 A 
ATOM     16  C   UNL     1       1.581   4.621  20.063  0.00  0.00    +0.000 A 
ATOM     17  C   UNL     1       1.390   5.892  20.630  0.00  0.00    +0.000 A 
ATOM     18  C   UNL     1       1.856   7.035  19.978  0.00  0.00    +0.000 A 
ATOM     19  C   UNL     1       2.516   6.836  18.771  0.00  0.00    +0.000 A 
ATOM     20 CL   UNL     1       3.227   8.126  17.878  0.00  0.00    +0.000 Cl
ATOM     21  N   UNL     1       2.709   5.631  18.191  0.00  0.00    +0.000 NA
ATOM     22  C   UNL     1       2.244   4.535  18.817  0.00  0.00    +0.000 A 
ENDBRANCH   1  18
BRANCH   7  23
ATOM     23  C   UNL     1      -0.141  14.273  20.085  0.00  0.00    +0.000 A 
ATOM     24  C   UNL     1      -1.335  14.790  20.589  0.00  0.00    +0.000 A 
ATOM     25  C   UNL     1      -1.850  16.000  20.092  0.00  0.00    +0.000 A 
ATOM     26  C   UNL     1      -3.050  16.541  20.584  0.00  0.00    +0.000 A 
ATOM     27  C   UNL     1      -3.546  17.739  20.074  0.00  0.00    +0.000 A 
ATOM     28  C   UNL     1      -2.841  18.408  19.080  0.00  0.00    +0.000 A 
ATOM     29  C   UNL     1      -1.635  17.883  18.589  0.00  0.00    +0.000 A 
ATOM     30  C   UNL     1      -0.877  18.630  17.523  0.00  0.00    +0.000 C 
ATOM     31  C   UNL     1      -1.128  16.674  19.080  0.00  0.00    +0.000 A 
ATOM     32  N   UNL     1       0.023  16.181  18.590  0.00  0.00    +0.000 NA
ATOM     33  C   UNL     1       0.482  15.011  19.083  0.00  0.00    +0.000 A 
ATOM     34 CL   UNL     1       1.972  14.529  18.365  0.00  0.00    +0.000 Cl
ENDBRANCH   7  23
TORSDOF 2
ENDMDL
MODEL 3
REMARK VINA RESULT:      -9.3      1.578      2.349
REMARK  Name = 
REMARK  4 active torsions:
REMARK  status: ('A' for Active; 'I' for Inactive)
REMARK    1  A    between atoms: C_1  and  C_2
REMARK    2  A    between atoms: C_8  and  C_9
REMARK    3  A    between atoms: C_15  and  C_16
REMARK    4  A    between atoms: C_22  and  C_23
REMARK                            x       y       z     vdW  Elec       q    Type
REMARK                         _______ _______ _______ _____ _____    ______ ____
ROOT
ATOM      1  C   UNL     1       1.895   7.758  20.204  0.00  0.00    +0.000 C 
ATOM      2  C   UNL     1       1.456   8.917  19.672  0.00  0.00    +0.000 C 
ATOM      3  C   UNL     1       1.492   9.263  18.216  0.00  0.00    +0.000 C 
ATOM      4  N   UNL     1       1.833  10.669  18.020  0.00  0.00    +0.000 NA
ATOM      5  C   UNL     1       0.753  11.480  18.564  0.00  0.00    +0.000 C 
ATOM      6  C   UNL     1       0.632  11.312  20.048  0.00  0.00    +0.000 C 
ATOM      7  C   UNL     1       0.287  12.294  20.906  0.00  0.00    +0.000 C 
ATOM      8  C   UNL     1       0.910   9.951  20.616  0.00  0.00    +0.000 C 
ATOM      9  O   UNL     1       0.703   9.693  21.800  0.00  0.00    +0.000 OA
ATOM     10  H   UNL     1       1.925  10.854  17.023  0.00  0.00    +0.000 HD
ENDROOT
BRANCH   1  18
ATOM     11  C   UNL     1       3.886   2.169  17.450  0.00  0.00    +0.000 C 
ATOM     12  C   UNL     1       4.199   3.609  17.137  0.00  0.00    +0.000 A 
ATOM     13  C   UNL     1       5.081   3.915  16.088  0.00  0.00    +0.000 A 
ATOM     14  C   UNL     1       5.394   5.238  15.794  0.00  0.00    +0.000 A 
ATOM     15  C   UNL     1       4.833   6.260  16.553  0.00  0.00    +0.000 A 
ATOM     16  C   UNL     1       3.951   5.967  17.605  0.00  0.00    +0.000 A 
ATOM     17  C   UNL     1       3.380   6.985  18.386  0.00  0.00    +0.000 A 
ATOM     18  C   UNL     1       2.496   6.672  19.420  0.00  0.00    +0.000 A 
ATOM     19  C   UNL     1       2.215   5.324  19.610  0.00  0.00    +0.000 A 
ATOM     20 CL   UNL     1       1.083   4.769  20.784  0.00  0.00    +0.000 Cl
ATOM     21  N   UNL     1       2.751   4.318  18.885  0.00  0.00    +0.000 NA
ATOM     22  C   UNL     1       3.614   4.626  17.900  0.00  0.00    +0.000 A 
ENDBRANCH   1  18
BRANCH   7  23
ATOM     23  C   UNL     1      -0.085  13.645  20.470  0.00  0.00    +0.000 A 
ATOM     24  C   UNL     1       0.829  14.434  19.769  0.00  0.00    +0.000 A 
ATOM     25  C   UNL     1       0.449  15.697  19.283  0.00  0.00    +0.000 A 
ATOM     26  C   UNL     1       1.351  16.509  18.575  0.00  0.00    +0.000 A 
ATOM     27  C   UNL     1       0.956  17.761  18.106  0.00  0.00    +0.000 A 
ATOM     28  C   UNL     1      -0.343  18.201  18.331  0.00  0.00    +0.000 A 
ATOM     29  C   UNL     1      -1.256  17.394  19.028  0.00  0.00    +0.000 A 
ATOM     30  C   UNL     1      -2.664  17.882  19.249  0.00  0.00    +0.000 C 
ATOM     31  C   UNL     1      -0.873  16.139  19.517  0.00  0.00    +0.000 A 
ATOM     32  N   UNL     1      -1.758  15.384  20.192  0.00  0.00    +0.000 NA
ATOM     33  C   UNL     1      -1.356  14.181  20.654  0.00  0.00    +0.000 A 
ATOM     34 CL   UNL     1      -2.610  13.334  21.477  0.00  0.00    +0.000 Cl
ENDBRANCH   7  23
TORSDOF 2
ENDMDL
MODEL 4
REMARK VINA RESULT:      -9.2      3.009     10.355
REMARK  Name = 
REMARK  4 active torsions:
REMARK  status: ('A' for Active; 'I' for Inactive)
REMARK    1  A    between atoms: C_1  and  C_2
REMARK    2  A    between atoms: C_8  and  C_9
REMARK    3  A    between atoms: C_15  and  C_16
REMARK    4  A    between atoms: C_22  and  C_23
REMARK                            x       y       z     vdW  Elec       q    Type
REMARK                         _______ _______ _______ _____ _____    ______ ____
ROOT
ATOM      1  C   UNL     1      -0.758  11.450  22.476  0.00  0.00    +0.000 C 
ATOM      2  C   UNL     1      -0.166  10.827  21.437  0.00  0.00    +0.000 C 
ATOM      3  C   UNL     1      -0.300  11.232  20.001  0.00  0.00    +0.000 C 
ATOM      4  N   UNL     1      -0.383  10.062  19.132  0.00  0.00    +0.000 NA
ATOM      5  C   UNL     1       0.888   9.354  19.198  0.00  0.00    +0.000 C 
ATOM      6  C   UNL     1       1.142   8.804  20.568  0.00  0.00    +0.000 C 
ATOM      7  C   UNL     1       1.765   7.635  20.823  0.00  0.00    +0.000 C 
ATOM      8  C   UNL     1       0.673   9.617  21.739  0.00  0.00    +0.000 C 
ATOM      9  O   UNL     1       0.959   9.307  22.894  0.00  0.00    +0.000 OA
ATOM     10  H   UNL     1      -0.550  10.368  18.175  0.00  0.00    +0.000 HD
ENDROOT
BRANCH   1  18
ATOM     11  C   UNL     1      -3.628  17.288  21.792  0.00  0.00    +0.000 C 
ATOM     12  C   UNL     1      -4.197  15.898  21.908  0.00  0.00    +0.000 A 
ATOM     13  C   UNL     1      -5.588  15.714  21.892  0.00  0.00    +0.000 A 
ATOM     14  C   UNL     1      -6.133  14.439  22.013  0.00  0.00    +0.000 A 
ATOM     15  C   UNL     1      -5.288  13.344  22.160  0.00  0.00    +0.000 A 
ATOM     16  C   UNL     1      -3.894  13.515  22.179  0.00  0.00    +0.000 A 
ATOM     17  C   UNL     1      -3.025  12.423  22.334  0.00  0.00    +0.000 A 
ATOM     18  C   UNL     1      -1.642  12.614  22.338  0.00  0.00    +0.000 A 
ATOM     19  C   UNL     1      -1.195  13.919  22.170  0.00  0.00    +0.000 A 
ATOM     20 CL   UNL     1       0.476  14.321  22.068  0.00  0.00    +0.000 Cl
ATOM     21  N   UNL     1      -2.000  14.994  22.028  0.00  0.00    +0.000 NA
ATOM     22  C   UNL     1      -3.332  14.805  22.040  0.00  0.00    +0.000 A 
ENDBRANCH   1  18
BRANCH   7  23
ATOM     23  C   UNL     1       2.339   6.787  19.771  0.00  0.00    +0.000 A 
ATOM     24  C   UNL     1       3.183   7.339  18.806  0.00  0.00    +0.000 A 
ATOM     25  C   UNL     1       3.795   6.516  17.845  0.00  0.00    +0.000 A 
ATOM     26  C   UNL     1       4.649   7.047  16.864  0.00  0.00    +0.000 A 
ATOM     27  C   UNL     1       5.242   6.215  15.916  0.00  0.00    +0.000 A 
ATOM     28  C   UNL     1       4.995   4.847  15.953  0.00  0.00    +0.000 A 
ATOM     29  C   UNL     1       4.153   4.303  16.935  0.00  0.00    +0.000 A 
ATOM     30  C   UNL     1       3.909   2.817  16.967  0.00  0.00    +0.000 C 
ATOM     31  C   UNL     1       3.538   5.126  17.886  0.00  0.00    +0.000 A 
ATOM     32  N   UNL     1       2.726   4.589  18.814  0.00  0.00    +0.000 NA
ATOM     33  C   UNL     1       2.146   5.410  19.714  0.00  0.00    +0.000 A 
ATOM     34 CL   UNL     1       1.154   4.565  20.840  0.00  0.00    +0.000 Cl
ENDBRANCH   7  23
TORSDOF 2
ENDMDL
MODEL 5
REMARK VINA RESULT:      -9.2      4.075     10.515
REMARK  Name = 
REMARK  4 active torsions:
REMARK  status: ('A' for Active; 'I' for Inactive)
REMARK    1  A    between atoms: C_1  and  C_2
REMARK    2  A    between atoms: C_8  and  C_9
REMARK    3  A    between atoms: C_15  and  C_16
REMARK    4  A    between atoms: C_22  and  C_23
REMARK                            x       y       z     vdW  Elec       q    Type
REMARK                         _______ _______ _______ _____ _____    ______ ____
ROOT
ATOM      1  C   UNL     1       1.346   7.955  20.527  0.00  0.00    +0.000 C 
ATOM      2  C   UNL     1       2.206   7.932  19.490  0.00  0.00    +0.000 C 
ATOM      3  C   UNL     1       2.421   9.055  18.523  0.00  0.00    +0.000 C 
ATOM      4  N   UNL     1       2.610   8.550  17.167  0.00  0.00    +0.000 NA
ATOM      5  C   UNL     1       3.854   7.794  17.132  0.00  0.00    +0.000 C 
ATOM      6  C   UNL     1       3.779   6.571  17.996  0.00  0.00    +0.000 C 
ATOM      7  C   UNL     1       4.370   5.392  17.710  0.00  0.00    +0.000 C 
ATOM      8  C   UNL     1       2.995   6.671  19.271  0.00  0.00    +0.000 C 
ATOM      9  O   UNL     1       2.995   5.762  20.100  0.00  0.00    +0.000 OA
ATOM     10  H   UNL     1       2.676   9.337  16.524  0.00  0.00    +0.000 HD
ENDROOT
BRANCH   1  18
ATOM     11  C   UNL     1      -2.073  12.907  23.093  0.00  0.00    +0.000 C 
ATOM     12  C   UNL     1      -1.994  12.363  21.691  0.00  0.00    +0.000 A 
ATOM     13  C   UNL     1      -2.769  12.946  20.676  0.00  0.00    +0.000 A 
ATOM     14  C   UNL     1      -2.721  12.448  19.378  0.00  0.00    +0.000 A 
ATOM     15  C   UNL     1      -1.905  11.358  19.092  0.00  0.00    +0.000 A 
ATOM     16  C   UNL     1      -1.126  10.766  20.098  0.00  0.00    +0.000 A 
ATOM     17  C   UNL     1      -0.302   9.661  19.830  0.00  0.00    +0.000 A 
ATOM     18  C   UNL     1       0.473   9.094  20.843  0.00  0.00    +0.000 A 
ATOM     19  C   UNL     1       0.388   9.688  22.097  0.00  0.00    +0.000 A 
ATOM     20 CL   UNL     1       1.338   9.169  23.436  0.00  0.00    +0.000 Cl
ATOM     21  N   UNL     1      -0.400  10.744  22.394  0.00  0.00    +0.000 NA
ATOM     22  C   UNL     1      -1.156  11.276  21.417  0.00  0.00    +0.000 A 
ENDBRANCH   1  18
BRANCH   7  23
ATOM     23  C   UNL     1       5.227   5.189  16.536  0.00  0.00    +0.000 A 
ATOM     24  C   UNL     1       4.773   4.427  15.458  0.00  0.00    +0.000 A 
ATOM     25  C   UNL     1       5.561   4.296  14.302  0.00  0.00    +0.000 A 
ATOM     26  C   UNL     1       5.126   3.534  13.204  0.00  0.00    +0.000 A 
ATOM     27  C   UNL     1       5.925   3.412  12.068  0.00  0.00    +0.000 A 
ATOM     28  C   UNL     1       7.153   4.060  12.019  0.00  0.00    +0.000 A 
ATOM     29  C   UNL     1       7.594   4.833  13.104  0.00  0.00    +0.000 A 
ATOM     30  C   UNL     1       8.921   5.539  13.026  0.00  0.00    +0.000 C 
ATOM     31  C   UNL     1       6.811   4.956  14.259  0.00  0.00    +0.000 A 
ATOM     32  N   UNL     1       7.253   5.692  15.294  0.00  0.00    +0.000 NA
ATOM     33  C   UNL     1       6.475   5.787  16.393  0.00  0.00    +0.000 A 
ATOM     34 CL   UNL     1       7.175   6.778  17.616  0.00  0.00    +0.000 Cl
ENDBRANCH   7  23
TORSDOF 2
ENDMDL
MODEL 6
REMARK VINA RESULT:      -9.2      4.114      6.023
REMARK  Name = 
REMARK  4 active torsions:
REMARK  status: ('A' for Active; 'I' for Inactive)
REMARK    1  A    between atoms: C_1  and  C_2
REMARK    2  A    between atoms: C_8  and  C_9
REMARK    3  A    between atoms: C_15  and  C_16
REMARK    4  A    between atoms: C_22  and  C_23
REMARK                            x       y       z     vdW  Elec       q    Type
REMARK                         _______ _______ _______ _____ _____    ______ ____
ROOT
ATOM      1  C   UNL     1       4.406   5.640  17.822  0.00  0.00    +0.000 C 
ATOM      2  C   UNL     1       3.529   6.653  17.973  0.00  0.00    +0.000 C 
ATOM      3  C   UNL     1       3.244   7.705  16.946  0.00  0.00    +0.000 C 
ATOM      4  N   UNL     1       3.055   9.010  17.572  0.00  0.00    +0.000 NA
ATOM      5  C   UNL     1       1.848   8.955  18.385  0.00  0.00    +0.000 C 
ATOM      6  C   UNL     1       1.996   7.994  19.526  0.00  0.00    +0.000 C 
ATOM      7  C   UNL     1       1.458   8.167  20.750  0.00  0.00    +0.000 C 
ATOM      8  C   UNL     1       2.797   6.748  19.283  0.00  0.00    +0.000 C 
ATOM      9  O   UNL     1       2.855   5.847  20.117  0.00  0.00    +0.000 OA
ATOM     10  H   UNL     1       2.940   9.715  16.846  0.00  0.00    +0.000 HD
ENDROOT
BRANCH   1  18
ATOM     11  C   UNL     1       8.892   5.493  13.064  0.00  0.00    +0.000 C 
ATOM     12  C   UNL     1       7.558   4.808  13.206  0.00  0.00    +0.000 A 
ATOM     13  C   UNL     1       7.094   3.975  12.177  0.00  0.00    +0.000 A 
ATOM     14  C   UNL     1       5.857   3.346  12.284  0.00  0.00    +0.000 A 
ATOM     15  C   UNL     1       5.077   3.555  13.416  0.00  0.00    +0.000 A 
ATOM     16  C   UNL     1       5.530   4.388  14.452  0.00  0.00    +0.000 A 
ATOM     17  C   UNL     1       4.754   4.617  15.599  0.00  0.00    +0.000 A 
ATOM     18  C   UNL     1       5.229   5.439  16.622  0.00  0.00    +0.000 A 
ATOM     19  C   UNL     1       6.492   5.990  16.441  0.00  0.00    +0.000 A 
ATOM     20 CL   UNL     1       7.263   6.958  17.638  0.00  0.00    +0.000 Cl
ATOM     21  N   UNL     1       7.262   5.799  15.348  0.00  0.00    +0.000 NA
ATOM     22  C   UNL     1       6.793   5.018  14.359  0.00  0.00    +0.000 A 
ENDBRANCH   1  18
BRANCH   7  23
ATOM     23  C   UNL     1       0.591   9.301  21.091  0.00  0.00    +0.000 A 
ATOM     24  C   UNL     1      -0.193   9.907  20.108  0.00  0.00    +0.000 A 
ATOM     25  C   UNL     1      -1.081  10.942  20.447  0.00  0.00    +0.000 A 
ATOM     26  C   UNL     1      -1.881  11.568  19.475  0.00  0.00    +0.000 A 
ATOM     27  C   UNL     1      -2.752  12.596  19.832  0.00  0.00    +0.000 A 
ATOM     28  C   UNL     1      -2.837  12.994  21.161  0.00  0.00    +0.000 A 
ATOM     29  C   UNL     1      -2.052  12.369  22.142  0.00  0.00    +0.000 A 
ATOM     30  C   UNL     1      -2.170  12.805  23.579  0.00  0.00    +0.000 C 
ATOM     31  C   UNL     1      -1.162  11.344  21.801  0.00  0.00    +0.000 A 
ATOM     32  N   UNL     1      -0.410  10.763  22.752  0.00  0.00    +0.000 NA
ATOM     33  C   UNL     1       0.440   9.780  22.389  0.00  0.00    +0.000 A 
ATOM     34 CL   UNL     1       1.313   9.131  23.725  0.00  0.00    +0.000 Cl
ENDBRANCH   7  23
TORSDOF 2
ENDMDL
MODEL 7
REMARK VINA RESULT:      -9.0      1.825     10.621
REMARK  Name = 
REMARK  4 active torsions:
REMARK  status: ('A' for Active; 'I' for Inactive)
REMARK    1  A    between atoms: C_1  and  C_2
REMARK    2  A    between atoms: C_8  and  C_9
REMARK    3  A    between atoms: C_15  and  C_16
REMARK    4  A    between atoms: C_22  and  C_23
REMARK                            x       y       z     vdW  Elec       q    Type
REMARK                         _______ _______ _______ _____ _____    ______ ____
ROOT
ATOM      1  C   UNL     1      -0.261  12.033  21.403  0.00  0.00    +0.000 C 
ATOM      2  C   UNL     1       0.329  11.250  20.479  0.00  0.00    +0.000 C 
ATOM      3  C   UNL     1       0.375  11.537  19.010  0.00  0.00    +0.000 C 
ATOM      4  N   UNL     1       0.211  10.313  18.231  0.00  0.00    +0.000 NA
ATOM      5  C   UNL     1       1.366   9.461  18.475  0.00  0.00    +0.000 C 
ATOM      6  C   UNL     1       1.425   9.008  19.902  0.00  0.00    +0.000 C 
ATOM      7  C   UNL     1       1.862   7.798  20.306  0.00  0.00    +0.000 C 
ATOM      8  C   UNL     1       0.970   9.976  20.955  0.00  0.00    +0.000 C 
ATOM      9  O   UNL     1       1.111   9.738  22.152  0.00  0.00    +0.000 OA
ATOM     10  H   UNL     1       0.170  10.551  17.241  0.00  0.00    +0.000 HD
ENDROOT
BRANCH   1  18
ATOM     11  C   UNL     1      -4.263  17.175  20.825  0.00  0.00    +0.000 C 
ATOM     12  C   UNL     1      -2.926  16.870  20.202  0.00  0.00    +0.000 A 
ATOM     13  C   UNL     1      -2.352  17.786  19.307  0.00  0.00    +0.000 A 
ATOM     14  C   UNL     1      -1.125  17.514  18.710  0.00  0.00    +0.000 A 
ATOM     15  C   UNL     1      -0.471  16.321  18.999  0.00  0.00    +0.000 A 
ATOM     16  C   UNL     1      -1.036  15.396  19.892  0.00  0.00    +0.000 A 
ATOM     17  C   UNL     1      -0.395  14.183  20.191  0.00  0.00    +0.000 A 
ATOM     18  C   UNL     1      -0.968  13.282  21.090  0.00  0.00    +0.000 A 
ATOM     19  C   UNL     1      -2.175  13.662  21.665  0.00  0.00    +0.000 A 
ATOM     20 CL   UNL     1      -2.975  12.710  22.856  0.00  0.00    +0.000 Cl
ATOM     21  N   UNL     1      -2.824  14.814  21.395  0.00  0.00    +0.000 NA
ATOM     22  C   UNL     1      -2.275  15.671  20.516  0.00  0.00    +0.000 A 
ENDBRANCH   1  18
BRANCH   7  23
ATOM     23  C   UNL     1       2.406   6.794  19.385  0.00  0.00    +0.000 A 
ATOM     24  C   UNL     1       3.322   7.167  18.399  0.00  0.00    +0.000 A 
ATOM     25  C   UNL     1       3.903   6.195  17.566  0.00  0.00    +0.000 A 
ATOM     26  C   UNL     1       4.826   6.545  16.567  0.00  0.00    +0.000 A 
ATOM     27  C   UNL     1       5.387   5.567  15.748  0.00  0.00    +0.000 A 
ATOM     28  C   UNL     1       5.037   4.234  15.932  0.00  0.00    +0.000 A 
ATOM     29  C   UNL     1       4.124   3.870  16.934  0.00  0.00    +0.000 A 
ATOM     30  C   UNL     1       3.769   2.419  17.127  0.00  0.00    +0.000 C 
ATOM     31  C   UNL     1       3.541   4.841  17.757  0.00  0.00    +0.000 A 
ATOM     32  N   UNL     1       2.660   4.475  18.705  0.00  0.00    +0.000 NA
ATOM     33  C   UNL     1       2.113   5.437  19.479  0.00  0.00    +0.000 A 
ATOM     34 CL   UNL     1       1.023   4.802  20.652  0.00  0.00    +0.000 Cl
ENDBRANCH   7  23
TORSDOF 2
ENDMDL
MODEL 8
REMARK VINA RESULT:      -8.9      3.307      3.960
REMARK  Name = 
REMARK  4 active torsions:
REMARK  status: ('A' for Active; 'I' for Inactive)
REMARK    1  A    between atoms: C_1  and  C_2
REMARK    2  A    between atoms: C_8  and  C_9
REMARK    3  A    between atoms: C_15  and  C_16
REMARK    4  A    between atoms: C_22  and  C_23
REMARK                            x       y       z     vdW  Elec       q    Type
REMARK                         _______ _______ _______ _____ _____    ______ ____
ROOT
ATOM      1  C   UNL     1       1.860   8.460  19.189  0.00  0.00    +0.000 C 
ATOM      2  C   UNL     1       1.201   9.088  20.184  0.00  0.00    +0.000 C 
ATOM      3  C   UNL     1       0.867   8.483  21.512  0.00  0.00    +0.000 C 
ATOM      4  N   UNL     1      -0.457   8.903  21.961  0.00  0.00    +0.000 NA
ATOM      5  C   UNL     1      -0.419  10.337  22.210  0.00  0.00    +0.000 C 
ATOM      6  C   UNL     1      -0.173  11.109  20.950  0.00  0.00    +0.000 C 
ATOM      7  C   UNL     1      -0.713  12.313  20.669  0.00  0.00    +0.000 C 
ATOM      8  C   UNL     1       0.746  10.499  19.932  0.00  0.00    +0.000 C 
ATOM      9  O   UNL     1       1.108  11.122  18.936  0.00  0.00    +0.000 OA
ATOM     10  H   UNL     1      -0.686   8.416  22.825  0.00  0.00    +0.000 HD
ENDROOT
BRANCH   1  18
ATOM     11  C   UNL     1       4.617   2.568  18.511  0.00  0.00    +0.000 C 
ATOM     12  C   UNL     1       3.664   3.116  19.541  0.00  0.00    +0.000 A 
ATOM     13  C   UNL     1       3.212   2.288  20.579  0.00  0.00    +0.000 A 
ATOM     14  C   UNL     1       2.320   2.773  21.530  0.00  0.00    +0.000 A 
ATOM     15  C   UNL     1       1.869   4.086  21.441  0.00  0.00    +0.000 A 
ATOM     16  C   UNL     1       2.313   4.924  20.406  0.00  0.00    +0.000 A 
ATOM     17  C   UNL     1       1.864   6.250  20.295  0.00  0.00    +0.000 A 
ATOM     18  C   UNL     1       2.327   7.070  19.265  0.00  0.00    +0.000 A 
ATOM     19  C   UNL     1       3.247   6.507  18.388  0.00  0.00    +0.000 A 
ATOM     20 CL   UNL     1       3.982   7.401  17.113  0.00  0.00    +0.000 Cl
ATOM     21  N   UNL     1       3.694   5.234  18.458  0.00  0.00    +0.000 NA
ATOM     22  C   UNL     1       3.233   4.445  19.444  0.00  0.00    +0.000 A 
ENDBRANCH   1  18
BRANCH   7  23
ATOM     23  C   UNL     1      -1.562  13.050  21.612  0.00  0.00    +0.000 A 
ATOM     24  C   UNL     1      -0.997  13.680  22.722  0.00  0.00    +0.000 A 
ATOM     25  C   UNL     1      -1.797  14.451  23.583  0.00  0.00    +0.000 A 
ATOM     26  C   UNL     1      -1.252  15.095  24.707  0.00  0.00    +0.000 A 
ATOM     27  C   UNL     1      -2.064  15.851  25.551  0.00  0.00    +0.000 A 
ATOM     28  C   UNL     1      -3.419  15.976  25.271  0.00  0.00    +0.000 A 
ATOM     29  C   UNL     1      -3.974  15.346  24.145  0.00  0.00    +0.000 A 
ATOM     30  C   UNL     1      -5.441  15.506  23.850  0.00  0.00    +0.000 C 
ATOM     31  C   UNL     1      -3.176  14.573  23.293  0.00  0.00    +0.000 A 
ATOM     32  N   UNL     1      -3.726  13.968  22.225  0.00  0.00    +0.000 NA
ATOM     33  C   UNL     1      -2.930  13.226  21.426  0.00  0.00    +0.000 A 
ATOM     34 CL   UNL     1      -3.782  12.537  20.097  0.00  0.00    +0.000 Cl
ENDBRANCH   7  23
TORSDOF 2
ENDMDL
MODEL 9
REMARK VINA RESULT:      -8.9      2.041      3.247
REMARK  Name = 
REMARK  4 active torsions:
REMARK  status: ('A' for Active; 'I' for Inactive)
REMARK    1  A    between atoms: C_1  and  C_2
REMARK    2  A    between atoms: C_8  and  C_9
REMARK    3  A    between atoms: C_15  and  C_16
REMARK    4  A    between atoms: C_22  and  C_23
REMARK                            x       y       z     vdW  Elec       q    Type
REMARK                         _______ _______ _______ _____ _____    ______ ____
ROOT
ATOM      1  C   UNL     1       1.873   7.801  20.311  0.00  0.00    +0.000 C 
ATOM      2  C   UNL     1       1.264   8.915  19.857  0.00  0.00    +0.000 C 
ATOM      3  C   UNL     1       1.098   9.278  18.414  0.00  0.00    +0.000 C 
ATOM      4  N   UNL     1       1.275  10.713  18.211  0.00  0.00    +0.000 NA
ATOM      5  C   UNL     1       0.190  11.406  18.891  0.00  0.00    +0.000 C 
ATOM      6  C   UNL     1       0.257  11.211  20.375  0.00  0.00    +0.000 C 
ATOM      7  C   UNL     1      -0.082  12.145  21.288  0.00  0.00    +0.000 C 
ATOM      8  C   UNL     1       0.731   9.880  20.879  0.00  0.00    +0.000 C 
ATOM      9  O   UNL     1       0.688   9.591  22.073  0.00  0.00    +0.000 OA
ATOM     10  H   UNL     1       1.233  10.916  17.214  0.00  0.00    +0.000 HD
ENDROOT
BRANCH   1  18
ATOM     11  C   UNL     1       3.927   2.474  17.118  0.00  0.00    +0.000 C 
ATOM     12  C   UNL     1       4.215   3.939  16.915  0.00  0.00    +0.000 A 
ATOM     13  C   UNL     1       5.083   4.339  15.887  0.00  0.00    +0.000 A 
ATOM     14  C   UNL     1       5.373   5.686  15.694  0.00  0.00    +0.000 A 
ATOM     15  C   UNL     1       4.803   6.638  16.533  0.00  0.00    +0.000 A 
ATOM     16  C   UNL     1       3.934   6.249  17.566  0.00  0.00    +0.000 A 
ATOM     17  C   UNL     1       3.355   7.194  18.428  0.00  0.00    +0.000 A 
ATOM     18  C   UNL     1       2.485   6.788  19.441  0.00  0.00    +0.000 A 
ATOM     19  C   UNL     1       2.226   5.425  19.528  0.00  0.00    +0.000 A 
ATOM     20 CL   UNL     1       1.114   4.762  20.664  0.00  0.00    +0.000 Cl
ATOM     21  N   UNL     1       2.772   4.488  18.724  0.00  0.00    +0.000 NA
ATOM     22  C   UNL     1       3.621   4.884  17.759  0.00  0.00    +0.000 A 
ENDBRANCH   1  18
BRANCH   7  23
ATOM     23  C   UNL     1      -0.633  13.456  20.926  0.00  0.00    +0.000 A 
ATOM     24  C   UNL     1      -2.004  13.694  21.023  0.00  0.00    +0.000 A 
ATOM     25  C   UNL     1      -2.524  14.971  20.752  0.00  0.00    +0.000 A 
ATOM     26  C   UNL     1      -3.901  15.236  20.842  0.00  0.00    +0.000 A 
ATOM     27  C   UNL     1      -4.397  16.508  20.564  0.00  0.00    +0.000 A 
ATOM     28  C   UNL     1      -3.519  17.524  20.206  0.00  0.00    +0.000 A 
ATOM     29  C   UNL     1      -2.140  17.276  20.122  0.00  0.00    +0.000 A 
ATOM     30  C   UNL     1      -1.203  18.394  19.747  0.00  0.00    +0.000 C 
ATOM     31  C   UNL     1      -1.626  16.001  20.386  0.00  0.00    +0.000 A 
ATOM     32  N   UNL     1      -0.303  15.778  20.291  0.00  0.00    +0.000 NA
ATOM     33  C   UNL     1       0.160  14.536  20.548  0.00  0.00    +0.000 A 
ATOM     34 CL   UNL     1       1.872  14.424  20.401  0.00  0.00    +0.000 Cl
ENDBRANCH   7  23
TORSDOF 2
ENDMDL
