MODEL 1
REMARK VINA RESULT:      -6.8      0.000      0.000
REMARK  Name = 
REMARK  4 active torsions:
REMARK  status: ('A' for Active; 'I' for Inactive)
REMARK    1  A    between atoms: C_1  and  C_2
REMARK    2  A    between atoms: C_6  and  C_7
REMARK    3  A    between atoms: N_11  and  C_12
REMARK    4  A    between atoms: C_12  and  C_13
REMARK                            x       y       z     vdW  Elec       q    Type
REMARK                         _______ _______ _______ _____ _____    ______ ____
ROOT
ATOM      1  C   UNL     1       2.552   4.747  18.275  0.00  0.00    +0.000 C 
ATOM      2  C   UNL     1       1.741   3.499  18.592  0.00  0.00    +0.000 C 
ATOM      3  C   UNL     1       2.365   2.468  17.682  0.00  0.00    +0.000 C 
ATOM      4  C   UNL     1       3.835   2.853  17.651  0.00  0.00    +0.000 C 
ATOM      5  N   UNL     1       3.954   4.275  18.079  0.00  0.00    +0.000 NA
ENDROOT
BRANCH   1  11
ATOM      6  C   UNL     1       2.837   7.987  17.762  0.00  0.00    +0.000 C 
ATOM      7  C   UNL     1       2.395   7.287  18.992  0.00  0.00    +0.000 A 
ATOM      8  C   UNL     1       1.928   7.876  20.150  0.00  0.00    +0.000 A 
ATOM      9  N   UNL     1       1.595   6.859  20.988  0.00  0.00    +0.000 N 
ATOM     10  N   UNL     1       1.822   5.643  20.475  0.00  0.00    +0.000 NA
ATOM     11  C   UNL     1       2.304   5.882  19.242  0.00  0.00    +0.000 A 
ATOM     12  H   UNL     1       1.189   6.919  21.915  0.00  0.00    +0.000 HD
ENDBRANCH   1  11
BRANCH   5  13
ATOM     13  C   UNL     1       4.819   4.364  19.276  0.00  0.00    +0.000 C 
BRANCH  13  14
ATOM     14  C   UNL     1       6.015   5.249  19.016  0.00  0.00    +0.000 A 
ATOM     15  N   UNL     1       7.107   5.366  19.748  0.00  0.00    +0.000 NA
ATOM     16  C   UNL     1       7.954   6.168  19.027  0.00  0.00    +0.000 A 
ATOM     17  C   UNL     1       7.371   6.557  17.846  0.00  0.00    +0.000 A 
ATOM     18  N   UNL     1       6.129   5.986  17.861  0.00  0.00    +0.000 N 
ATOM     19  H   UNL     1       5.434   6.013  17.128  0.00  0.00    +0.000 HD
ENDBRANCH  13  14
ENDBRANCH   5  13
TORSDOF 3
ENDMDL
MODEL 2
REMARK VINA RESULT:      -6.4      1.813      3.937
REMARK  Name = 
REMARK  4 active torsions:
REMARK  status: ('A' for Active; 'I' for Inactive)
REMARK    1  A    between atoms: C_1  and  C_2
REMARK    2  A    between atoms: C_6  and  C_7
REMARK    3  A    between atoms: N_11  and  C_12
REMARK    4  A    between atoms: C_12  and  C_13
REMARK                            x       y       z     vdW  Elec       q    Type
REMARK                         _______ _______ _______ _____ _____    ______ ____
ROOT
ATOM      1  C   UNL     1       3.162   4.565  20.219  0.00  0.00    +0.000 C 
ATOM      2  C   UNL     1       1.661   4.764  20.378  0.00  0.00    +0.000 C 
ATOM      3  C   UNL     1       1.546   6.263  20.512  0.00  0.00    +0.000 C 
ATOM      4  C   UNL     1       2.641   6.795  19.602  0.00  0.00    +0.000 C 
ATOM      5  N   UNL     1       3.630   5.703  19.375  0.00  0.00    +0.000 NA
ENDROOT
BRANCH   1  11
ATOM      6  C   UNL     1       1.423   2.412  18.433  0.00  0.00    +0.000 C 
ATOM      7  C   UNL     1       2.787   2.252  18.994  0.00  0.00    +0.000 A 
ATOM      8  C   UNL     1       3.636   1.182  18.797  0.00  0.00    +0.000 A 
ATOM      9  N   UNL     1       4.787   1.481  19.454  0.00  0.00    +0.000 N 
ATOM     10  N   UNL     1       4.756   2.664  20.082  0.00  0.00    +0.000 NA
ATOM     11  C   UNL     1       3.538   3.161  19.804  0.00  0.00    +0.000 A 
ATOM     12  H   UNL     1       5.642   0.938  19.500  0.00  0.00    +0.000 HD
ENDBRANCH   1  11
BRANCH   5  13
ATOM     13  C   UNL     1       3.726   5.413  17.927  0.00  0.00    +0.000 C 
BRANCH  13  14
ATOM     14  C   UNL     1       5.166   5.414  17.470  0.00  0.00    +0.000 A 
ATOM     15  N   UNL     1       5.848   6.421  16.957  0.00  0.00    +0.000 NA
ATOM     16  C   UNL     1       7.140   5.976  16.845  0.00  0.00    +0.000 A 
ATOM     17  C   UNL     1       7.249   4.678  17.281  0.00  0.00    +0.000 A 
ATOM     18  N   UNL     1       5.982   4.324  17.654  0.00  0.00    +0.000 N 
ATOM     19  H   UNL     1       5.689   3.454  18.075  0.00  0.00    +0.000 HD
ENDBRANCH  13  14
ENDBRANCH   5  13
TORSDOF 3
ENDMDL
MODEL 3
REMARK VINA RESULT:      -6.4      2.790      4.576
REMARK  Name = 
REMARK  4 active torsions:
REMARK  status: ('A' for Active; 'I' for Inactive)
REMARK    1  A    between atoms: C_1  and  C_2
REMARK    2  A    between atoms: C_6  and  C_7
REMARK    3  A    between atoms: N_11  and  C_12
REMARK    4  A    between atoms: C_12  and  C_13
REMARK                            x       y       z     vdW  Elec       q    Type
REMARK                         _______ _______ _______ _____ _____    ______ ____
ROOT
ATOM      1  C   UNL     1       5.118   5.372  18.065  0.00  0.00    +0.000 C 
ATOM      2  C   UNL     1       4.303   4.407  18.915  0.00  0.00    +0.000 C 
ATOM      3  C   UNL     1       3.142   4.079  18.007  0.00  0.00    +0.000 C 
ATOM      4  C   UNL     1       3.755   4.080  16.617  0.00  0.00    +0.000 C 
ATOM      5  N   UNL     1       5.030   4.850  16.669  0.00  0.00    +0.000 NA
ENDROOT
BRANCH   1  11
ATOM      6  C   UNL     1       7.300   7.651  17.121  0.00  0.00    +0.000 C 
ATOM      7  C   UNL     1       7.407   6.684  18.241  0.00  0.00    +0.000 A 
ATOM      8  C   UNL     1       8.424   6.613  19.171  0.00  0.00    +0.000 A 
ATOM      9  N   UNL     1       8.086   5.617  20.032  0.00  0.00    +0.000 N 
ATOM     10  N   UNL     1       6.927   5.016  19.730  0.00  0.00    +0.000 NA
ATOM     11  C   UNL     1       6.486   5.664  18.637  0.00  0.00    +0.000 A 
ATOM     12  H   UNL     1       8.584   5.307  20.858  0.00  0.00    +0.000 HD
ENDBRANCH   1  11
BRANCH   5  13
ATOM     13  C   UNL     1       6.152   3.983  16.251  0.00  0.00    +0.000 C 
BRANCH  13  14
ATOM     14  C   UNL     1       6.581   4.296  14.837  0.00  0.00    +0.000 A 
ATOM     15  N   UNL     1       7.445   5.212  14.440  0.00  0.00    +0.000 NA
ATOM     16  C   UNL     1       7.610   5.010  13.094  0.00  0.00    +0.000 A 
ATOM     17  C   UNL     1       6.828   3.969  12.658  0.00  0.00    +0.000 A 
ATOM     18  N   UNL     1       6.160   3.539  13.771  0.00  0.00    +0.000 N 
ATOM     19  H   UNL     1       5.532   2.751  13.841  0.00  0.00    +0.000 HD
ENDBRANCH  13  14
ENDBRANCH   5  13
TORSDOF 3
ENDMDL
MODEL 4
REMARK VINA RESULT:      -6.2      2.191      4.992
REMARK  Name = 
REMARK  4 active torsions:
REMARK  status: ('A' for Active; 'I' for Inactive)
REMARK    1  A    between atoms: C_1  and  C_2
REMARK    2  A    between atoms: C_6  and  C_7
REMARK    3  A    between atoms: N_11  and  C_12
REMARK    4  A    between atoms: C_12  and  C_13
REMARK                            x       y       z     vdW  Elec       q    Type
REMARK                         _______ _______ _______ _____ _____    ______ ____
ROOT
ATOM      1  C   UNL     1       3.987   4.919  17.282  0.00  0.00    +0.000 C 
ATOM      2  C   UNL     1       3.400   5.865  18.320  0.00  0.00    +0.000 C 
ATOM      3  C   UNL     1       1.918   5.761  18.050  0.00  0.00    +0.000 C 
ATOM      4  C   UNL     1       1.724   4.310  17.641  0.00  0.00    +0.000 C 
ATOM      5  N   UNL     1       3.042   3.767  17.209  0.00  0.00    +0.000 NA
ENDROOT
BRANCH   1  11
ATOM      6  C   UNL     1       6.381   4.642  15.037  0.00  0.00    +0.000 C 
ATOM      7  C   UNL     1       6.491   4.554  16.514  0.00  0.00    +0.000 A 
ATOM      8  C   UNL     1       7.653   4.421  17.245  0.00  0.00    +0.000 A 
ATOM      9  N   UNL     1       7.285   4.430  18.554  0.00  0.00    +0.000 N 
ATOM     10  N   UNL     1       5.964   4.544  18.740  0.00  0.00    +0.000 NA
ATOM     11  C   UNL     1       5.455   4.632  17.498  0.00  0.00    +0.000 A 
ATOM     12  H   UNL     1       7.881   4.384  19.372  0.00  0.00    +0.000 HD
ENDBRANCH   1  11
BRANCH   5  13
ATOM     13  C   UNL     1       3.402   2.606  18.053  0.00  0.00    +0.000 C 
BRANCH  13  14
ATOM     14  C   UNL     1       2.737   2.695  19.407  0.00  0.00    +0.000 A 
ATOM     15  N   UNL     1       1.516   2.313  19.733  0.00  0.00    +0.000 NA
ATOM     16  C   UNL     1       1.432   2.456  21.094  0.00  0.00    +0.000 A 
ATOM     17  C   UNL     1       2.609   2.943  21.607  0.00  0.00    +0.000 A 
ATOM     18  N   UNL     1       3.423   3.114  20.522  0.00  0.00    +0.000 N 
ATOM     19  H   UNL     1       4.389   3.409  20.521  0.00  0.00    +0.000 HD
ENDBRANCH  13  14
ENDBRANCH   5  13
TORSDOF 3
ENDMDL
MODEL 5
REMARK VINA RESULT:      -6.2      1.202      1.546
REMARK  Name = 
REMARK  4 active torsions:
REMARK  status: ('A' for Active; 'I' for Inactive)
REMARK    1  A    between atoms: C_1  and  C_2
REMARK    2  A    between atoms: C_6  and  C_7
REMARK    3  A    between atoms: N_11  and  C_12
REMARK    4  A    between atoms: C_12  and  C_13
REMARK                            x       y       z     vdW  Elec       q    Type
REMARK                         _______ _______ _______ _____ _____    ______ ____
ROOT
ATOM      1  C   UNL     1       2.753   4.472  17.795  0.00  0.00    +0.000 C 
ATOM      2  C   UNL     1       1.769   3.403  18.247  0.00  0.00    +0.000 C 
ATOM      3  C   UNL     1       2.401   2.137  17.719  0.00  0.00    +0.000 C 
ATOM      4  C   UNL     1       3.893   2.393  17.852  0.00  0.00    +0.000 C 
ATOM      5  N   UNL     1       4.107   3.864  17.955  0.00  0.00    +0.000 NA
ENDROOT
BRANCH   1  11
ATOM      6  C   UNL     1       1.661   5.166  20.823  0.00  0.00    +0.000 C 
ATOM      7  C   UNL     1       2.057   6.110  19.749  0.00  0.00    +0.000 A 
ATOM      8  C   UNL     1       2.126   7.485  19.849  0.00  0.00    +0.000 A 
ATOM      9  N   UNL     1       2.577   7.933  18.647  0.00  0.00    +0.000 N 
ATOM     10  N   UNL     1       2.798   6.956  17.758  0.00  0.00    +0.000 NA
ATOM     11  C   UNL     1       2.495   5.824  18.418  0.00  0.00    +0.000 A 
ATOM     12  H   UNL     1       2.779   8.886  18.370  0.00  0.00    +0.000 HD
ENDBRANCH   1  11
BRANCH   5  13
ATOM     13  C   UNL     1       4.789   4.179  19.229  0.00  0.00    +0.000 C 
BRANCH  13  14
ATOM     14  C   UNL     1       5.953   5.114  19.002  0.00  0.00    +0.000 A 
ATOM     15  N   UNL     1       7.061   5.212  19.714  0.00  0.00    +0.000 NA
ATOM     16  C   UNL     1       7.867   6.085  19.030  0.00  0.00    +0.000 A 
ATOM     17  C   UNL     1       7.243   6.539  17.895  0.00  0.00    +0.000 A 
ATOM     18  N   UNL     1       6.017   5.933  17.900  0.00  0.00    +0.000 N 
ATOM     19  H   UNL     1       5.303   5.991  17.188  0.00  0.00    +0.000 HD
ENDBRANCH  13  14
ENDBRANCH   5  13
TORSDOF 3
ENDMDL
MODEL 6
REMARK VINA RESULT:      -6.2      2.870      4.586
REMARK  Name = 
REMARK  4 active torsions:
REMARK  status: ('A' for Active; 'I' for Inactive)
REMARK    1  A    between atoms: C_1  and  C_2
REMARK    2  A    between atoms: C_6  and  C_7
REMARK    3  A    between atoms: N_11  and  C_12
REMARK    4  A    between atoms: C_12  and  C_13
REMARK                            x       y       z     vdW  Elec       q    Type
REMARK                         _______ _______ _______ _____ _____    ______ ____
ROOT
ATOM      1  C   UNL     1       5.373   4.333  18.280  0.00  0.00    +0.000 C 
ATOM      2  C   UNL     1       5.811   5.445  19.222  0.00  0.00    +0.000 C 
ATOM      3  C   UNL     1       7.312   5.432  19.063  0.00  0.00    +0.000 C 
ATOM      4  C   UNL     1       7.519   5.077  17.599  0.00  0.00    +0.000 C 
ATOM      5  N   UNL     1       6.274   4.434  17.094  0.00  0.00    +0.000 NA
ENDROOT
BRANCH   1  11
ATOM      6  C   UNL     1       3.389   1.717  18.022  0.00  0.00    +0.000 C 
ATOM      7  C   UNL     1       3.025   3.155  17.977  0.00  0.00    +0.000 A 
ATOM      8  C   UNL     1       1.751   3.678  17.903  0.00  0.00    +0.000 A 
ATOM      9  N   UNL     1       1.890   5.030  17.934  0.00  0.00    +0.000 N 
ATOM     10  N   UNL     1       3.164   5.437  18.010  0.00  0.00    +0.000 NA
ATOM     11  C   UNL     1       3.880   4.299  18.047  0.00  0.00    +0.000 A 
ATOM     12  H   UNL     1       1.162   5.735  17.930  0.00  0.00    +0.000 HD
ENDBRANCH   1  11
BRANCH   5  13
ATOM     13  C   UNL     1       5.734   5.217  15.961  0.00  0.00    +0.000 C 
BRANCH  13  14
ATOM     14  C   UNL     1       6.351   4.775  14.656  0.00  0.00    +0.000 A 
ATOM     15  N   UNL     1       5.906   3.851  13.825  0.00  0.00    +0.000 NA
ATOM     16  C   UNL     1       6.716   3.920  12.721  0.00  0.00    +0.000 A 
ATOM     17  C   UNL     1       7.677   4.888  12.882  0.00  0.00    +0.000 A 
ATOM     18  N   UNL     1       7.449   5.409  14.125  0.00  0.00    +0.000 N 
ATOM     19  H   UNL     1       7.931   6.181  14.564  0.00  0.00    +0.000 HD
ENDBRANCH  13  14
ENDBRANCH   5  13
TORSDOF 3
ENDMDL
MODEL 7
REMARK VINA RESULT:      -6.2      2.654      5.064
REMARK  Name = 
REMARK  4 active torsions:
REMARK  status: ('A' for Active; 'I' for Inactive)
REMARK    1  A    between atoms: C_1  and  C_2
REMARK    2  A    between atoms: C_6  and  C_7
REMARK    3  A    between atoms: N_11  and  C_12
REMARK    4  A    between atoms: C_12  and  C_13
REMARK                            x       y       z     vdW  Elec       q    Type
REMARK                         _______ _______ _______ _____ _____    ______ ____
ROOT
ATOM      1  C   UNL     1       7.015   4.428  16.336  0.00  0.00    +0.000 C 
ATOM      2  C   UNL     1       7.078   5.303  15.092  0.00  0.00    +0.000 C 
ATOM      3  C   UNL     1       6.250   4.518  14.103  0.00  0.00    +0.000 C 
ATOM      4  C   UNL     1       5.163   3.888  14.958  0.00  0.00    +0.000 C 
ATOM      5  N   UNL     1       5.626   3.884  16.374  0.00  0.00    +0.000 NA
ENDROOT
BRANCH   1  11
ATOM      6  C   UNL     1       6.981   7.631  17.101  0.00  0.00    +0.000 C 
ATOM      7  C   UNL     1       7.497   6.498  17.909  0.00  0.00    +0.000 A 
ATOM      8  C   UNL     1       7.990   6.564  19.196  0.00  0.00    +0.000 A 
ATOM      9  N   UNL     1       8.299   5.289  19.553  0.00  0.00    +0.000 N 
ATOM     10  N   UNL     1       8.058   4.389  18.591  0.00  0.00    +0.000 NA
ATOM     11  C   UNL     1       7.554   5.109  17.573  0.00  0.00    +0.000 A 
ATOM     12  H   UNL     1       8.656   4.957  20.441  0.00  0.00    +0.000 HD
ENDBRANCH   1  11
BRANCH   5  13
ATOM     13  C   UNL     1       4.676   4.648  17.211  0.00  0.00    +0.000 C 
BRANCH  13  14
ATOM     14  C   UNL     1       4.207   3.824  18.387  0.00  0.00    +0.000 A 
ATOM     15  N   UNL     1       2.964   3.589  18.764  0.00  0.00    +0.000 NA
ATOM     16  C   UNL     1       3.050   2.675  19.782  0.00  0.00    +0.000 A 
ATOM     17  C   UNL     1       4.360   2.355  20.042  0.00  0.00    +0.000 A 
ATOM     18  N   UNL     1       5.087   3.110  19.165  0.00  0.00    +0.000 N 
ATOM     19  H   UNL     1       6.089   3.098  19.031  0.00  0.00    +0.000 HD
ENDBRANCH  13  14
ENDBRANCH   5  13
TORSDOF 3
ENDMDL
MODEL 8
REMARK VINA RESULT:      -6.1      1.719      4.671
REMARK  Name = 
REMARK  4 active torsions:
REMARK  status: ('A' for Active; 'I' for Inactive)
REMARK    1  A    between atoms: C_1  and  C_2
REMARK    2  A    between atoms: C_6  and  C_7
REMARK    3  A    between atoms: N_11  and  C_12
REMARK    4  A    between atoms: C_12  and  C_13
REMARK                            x       y       z     vdW  Elec       q    Type
REMARK                         _______ _______ _______ _____ _____    ______ ____
ROOT
ATOM      1  C   UNL     1       4.128   4.175  18.611  0.00  0.00    +0.000 C 
ATOM      2  C   UNL     1       3.764   3.208  17.493  0.00  0.00    +0.000 C 
ATOM      3  C   UNL     1       2.254   3.222  17.532  0.00  0.00    +0.000 C 
ATOM      4  C   UNL     1       1.914   4.655  17.909  0.00  0.00    +0.000 C 
ATOM      5  N   UNL     1       3.117   5.270  18.539  0.00  0.00    +0.000 NA
ENDROOT
BRANCH   1  11
ATOM      6  C   UNL     1       6.250   4.261  16.094  0.00  0.00    +0.000 C 
ATOM      7  C   UNL     1       6.492   4.620  17.513  0.00  0.00    +0.000 A 
ATOM      8  C   UNL     1       7.652   5.150  18.040  0.00  0.00    +0.000 A 
ATOM      9  N   UNL     1       7.408   5.364  19.361  0.00  0.00    +0.000 N 
ATOM     10  N   UNL     1       6.178   5.001  19.746  0.00  0.00    +0.000 NA
ATOM     11  C   UNL     1       5.592   4.550  18.623  0.00  0.00    +0.000 A 
ATOM     12  H   UNL     1       8.025   5.774  20.053  0.00  0.00    +0.000 HD
ENDBRANCH   1  11
BRANCH   5  13
ATOM     13  C   UNL     1       3.532   6.458  17.762  0.00  0.00    +0.000 C 
BRANCH  13  14
ATOM     14  C   UNL     1       2.731   7.674  18.165  0.00  0.00    +0.000 A 
ATOM     15  N   UNL     1       2.373   8.692  17.404  0.00  0.00    +0.000 NA
ATOM     16  C   UNL     1       1.539   9.459  18.177  0.00  0.00    +0.000 A 
ATOM     17  C   UNL     1       1.395   8.913  19.429  0.00  0.00    +0.000 A 
ATOM     18  N   UNL     1       2.177   7.792  19.417  0.00  0.00    +0.000 N 
ATOM     19  H   UNL     1       2.276   7.107  20.153  0.00  0.00    +0.000 HD
ENDBRANCH  13  14
ENDBRANCH   5  13
TORSDOF 3
ENDMDL
MODEL 9
REMARK VINA RESULT:      -6.1      2.584      5.056
REMARK  Name = 
REMARK  4 active torsions:
REMARK  status: ('A' for Active; 'I' for Inactive)
REMARK    1  A    between atoms: C_1  and  C_2
REMARK    2  A    between atoms: C_6  and  C_7
REMARK    3  A    between atoms: N_11  and  C_12
REMARK    4  A    between atoms: C_12  and  C_13
REMARK                            x       y       z     vdW  Elec       q    Type
REMARK                         _______ _______ _______ _____ _____    ______ ____
ROOT
ATOM      1  C   UNL     1       6.736   5.227  16.509  0.00  0.00    +0.000 C 
ATOM      2  C   UNL     1       6.098   5.545  15.164  0.00  0.00    +0.000 C 
ATOM      3  C   UNL     1       5.473   4.224  14.782  0.00  0.00    +0.000 C 
ATOM      4  C   UNL     1       5.021   3.638  16.110  0.00  0.00    +0.000 C 
ATOM      5  N   UNL     1       5.781   4.312  17.200  0.00  0.00    +0.000 NA
ENDROOT
BRANCH   1  11
ATOM      6  C   UNL     1       8.223   5.413  19.441  0.00  0.00    +0.000 C 
ATOM      7  C   UNL     1       7.898   6.516  18.504  0.00  0.00    +0.000 A 
ATOM      8  C   UNL     1       8.241   7.844  18.648  0.00  0.00    +0.000 A 
ATOM      9  N   UNL     1       7.782   8.480  17.538  0.00  0.00    +0.000 N 
ATOM     10  N   UNL     1       7.150   7.671  16.678  0.00  0.00    +0.000 NA
ATOM     11  C   UNL     1       7.218   6.454  17.247  0.00  0.00    +0.000 A 
ATOM     12  H   UNL     1       7.883   9.457  17.288  0.00  0.00    +0.000 HD
ENDBRANCH   1  11
BRANCH   5  13
ATOM     13  C   UNL     1       4.837   4.975  18.127  0.00  0.00    +0.000 C 
BRANCH  13  14
ATOM     14  C   UNL     1       4.329   4.004  19.167  0.00  0.00    +0.000 A 
ATOM     15  N   UNL     1       3.133   3.972  19.724  0.00  0.00    +0.000 NA
ATOM     16  C   UNL     1       3.106   2.830  20.483  0.00  0.00    +0.000 A 
ATOM     17  C   UNL     1       4.303   2.162  20.401  0.00  0.00    +0.000 A 
ATOM     18  N   UNL     1       5.081   2.931  19.581  0.00  0.00    +0.000 N 
ATOM     19  H   UNL     1       6.013   2.724  19.251  0.00  0.00    +0.000 HD
ENDBRANCH  13  14
ENDBRANCH   5  13
TORSDOF 3
ENDMDL
