MODEL 1
REMARK VINA RESULT:      -7.8      0.000      0.000
REMARK  Name = 
REMARK  10 active torsions:
REMARK  status: ('A' for Active; 'I' for Inactive)
REMARK    1  A    between atoms: C_1  and  C_2
REMARK    2  A    between atoms: C_2  and  C_3
REMARK    3  A    between atoms: C_2  and  C_4
REMARK    4  A    between atoms: C_2  and  C_5
REMARK    5  A    between atoms: C_8  and  C_9
REMARK    6  A    between atoms: N_11  and  C_12
REMARK    7  A    between atoms: C_12  and  C_13
REMARK    8  A    between atoms: C_16  and  N_17
REMARK    9  A    between atoms: N_17  and  S_18
REMARK   10  A    between atoms: S_18  and  C_19
REMARK                            x       y       z     vdW  Elec       q    Type
REMARK                         _______ _______ _______ _____ _____    ______ ____
ROOT
ATOM      1  C   UNL     1       1.810   8.838  18.484  0.00  0.00    +0.000 C 
ATOM      2  O   UNL     1       2.288   9.281  17.445  0.00  0.00    +0.000 OA
ATOM      3  N   UNL     1       1.038   9.605  19.327  0.00  0.00    +0.000 N 
ATOM      4  H   UNL     1       0.640   9.224  20.171  0.00  0.00    +0.000 HD
ENDROOT
BRANCH   1   8
ATOM      5  C   UNL     1       2.382   4.716  19.733  0.00  0.00    +0.000 A 
ATOM      6  C   UNL     1       1.917   5.712  20.606  0.00  0.00    +0.000 A 
ATOM      7  C   UNL     1       1.743   7.035  20.177  0.00  0.00    +0.000 A 
ATOM      8  C   UNL     1       2.046   7.408  18.869  0.00  0.00    +0.000 A 
ATOM      9  C   UNL     1       2.545   6.436  17.994  0.00  0.00    +0.000 A 
ATOM     10  C   UNL     1       2.714   5.113  18.426  0.00  0.00    +0.000 A 
BRANCH   5  12
ATOM     11  C   UNL     1       1.495   2.330  19.378  0.00  0.00    +0.000 C 
ATOM     12  C   UNL     1       2.480   3.237  20.149  0.00  0.00    +0.000 C 
ATOM     13  C   UNL     1       2.189   3.069  21.654  0.00  0.00    +0.000 C 
ATOM     14  C   UNL     1       3.906   2.716  19.859  0.00  0.00    +0.000 C 
ENDBRANCH   5  12
ENDBRANCH   1   8
BRANCH   3  15
ATOM     15  C   UNL     1       0.746  10.988  19.042  0.00  0.00    +0.000 C 
BRANCH  15  16
ATOM     16  C   UNL     1      -0.732  11.271  19.037  0.00  0.00    +0.000 A 
ATOM     17  C   UNL     1      -1.310  12.139  19.976  0.00  0.00    +0.000 A 
ATOM     18  C   UNL     1      -2.674  12.453  19.909  0.00  0.00    +0.000 A 
ATOM     19  C   UNL     1      -3.465  11.900  18.899  0.00  0.00    +0.000 A 
ATOM     20  C   UNL     1      -2.917  10.987  18.004  0.00  0.00    +0.000 A 
ATOM     21  C   UNL     1      -1.562  10.682  18.082  0.00  0.00    +0.000 A 
ATOM     22  F   UNL     1      -1.042   9.835  17.180  0.00  0.00    +0.000 F 
BRANCH  19  23
ATOM     23  N   UNL     1      -4.796  12.348  18.674  0.00  0.00    +0.000 N 
ATOM     24  H   UNL     1      -4.931  13.360  18.709  0.00  0.00    +0.000 HD
BRANCH  23  25
ATOM     25  S   UNL     1      -6.094  11.555  19.393  0.00  0.00    +0.000 S 
ATOM     26  C   UNL     1      -7.448  12.583  18.865  0.00  0.00    +0.000 C 
ATOM     27  O   UNL     1      -6.254  10.233  18.828  0.00  0.00    +0.000 OA
ATOM     28  O   UNL     1      -5.927  11.757  20.815  0.00  0.00    +0.000 OA
ENDBRANCH  23  25
ENDBRANCH  19  23
ENDBRANCH  15  16
ENDBRANCH   3  15
TORSDOF 6
ENDMDL
MODEL 2
REMARK VINA RESULT:      -7.7      6.943     10.114
REMARK  Name = 
REMARK  10 active torsions:
REMARK  status: ('A' for Active; 'I' for Inactive)
REMARK    1  A    between atoms: C_1  and  C_2
REMARK    2  A    between atoms: C_2  and  C_3
REMARK    3  A    between atoms: C_2  and  C_4
REMARK    4  A    between atoms: C_2  and  C_5
REMARK    5  A    between atoms: C_8  and  C_9
REMARK    6  A    between atoms: N_11  and  C_12
REMARK    7  A    between atoms: C_12  and  C_13
REMARK    8  A    between atoms: C_16  and  N_17
REMARK    9  A    between atoms: N_17  and  S_18
REMARK   10  A    between atoms: S_18  and  C_19
REMARK                            x       y       z     vdW  Elec       q    Type
REMARK                         _______ _______ _______ _____ _____    ______ ____
ROOT
ATOM      1  C   UNL     1       8.230   8.320  18.171  0.00  0.00    +0.000 C 
ATOM      2  O   UNL     1       8.613   7.459  18.957  0.00  0.00    +0.000 OA
ATOM      3  N   UNL     1       7.435   8.030  17.087  0.00  0.00    +0.000 N 
ATOM      4  H   UNL     1       7.117   8.750  16.457  0.00  0.00    +0.000 HD
ENDROOT
BRANCH   1   8
ATOM      5  C   UNL     1       9.480  12.420  18.884  0.00  0.00    +0.000 A 
ATOM      6  C   UNL     1       9.840  11.362  19.734  0.00  0.00    +0.000 A 
ATOM      7  C   UNL     1       9.422  10.049  19.481  0.00  0.00    +0.000 A 
ATOM      8  C   UNL     1       8.616   9.755  18.384  0.00  0.00    +0.000 A 
ATOM      9  C   UNL     1       8.216  10.802  17.545  0.00  0.00    +0.000 A 
ATOM     10  C   UNL     1       8.641  12.114  17.799  0.00  0.00    +0.000 A 
BRANCH   5  12
ATOM     11  C   UNL     1      10.683  14.059  20.457  0.00  0.00    +0.000 C 
ATOM     12  C   UNL     1      10.014  13.851  19.080  0.00  0.00    +0.000 C 
ATOM     13  C   UNL     1       8.877  14.885  18.952  0.00  0.00    +0.000 C 
ATOM     14  C   UNL     1      11.081  14.152  18.003  0.00  0.00    +0.000 C 
ENDBRANCH   5  12
ENDBRANCH   1   8
BRANCH   3  15
ATOM     15  C   UNL     1       7.002   6.685  16.801  0.00  0.00    +0.000 C 
BRANCH  15  16
ATOM     16  C   UNL     1       5.757   6.310  17.559  0.00  0.00    +0.000 A 
ATOM     17  C   UNL     1       4.507   6.848  17.217  0.00  0.00    +0.000 A 
ATOM     18  C   UNL     1       3.347   6.429  17.882  0.00  0.00    +0.000 A 
ATOM     19  C   UNL     1       3.434   5.467  18.891  0.00  0.00    +0.000 A 
ATOM     20  C   UNL     1       4.675   4.976  19.281  0.00  0.00    +0.000 A 
ATOM     21  C   UNL     1       5.820   5.400  18.616  0.00  0.00    +0.000 A 
ATOM     22  F   UNL     1       7.003   4.880  18.977  0.00  0.00    +0.000 F 
BRANCH  19  23
ATOM     23  N   UNL     1       2.268   4.870  19.445  0.00  0.00    +0.000 N 
ATOM     24  H   UNL     1       2.297   4.702  20.453  0.00  0.00    +0.000 HD
BRANCH  23  25
ATOM     25  S   UNL     1       1.510   3.592  18.655  0.00  0.00    +0.000 S 
ATOM     26  C   UNL     1       2.901   2.528  18.332  0.00  0.00    +0.000 C 
ATOM     27  O   UNL     1       0.594   2.918  19.549  0.00  0.00    +0.000 OA
ATOM     28  O   UNL     1       1.074   4.130  17.386  0.00  0.00    +0.000 OA
ENDBRANCH  23  25
ENDBRANCH  19  23
ENDBRANCH  15  16
ENDBRANCH   3  15
TORSDOF 6
ENDMDL
MODEL 3
REMARK VINA RESULT:      -7.7      0.240      1.266
REMARK  Name = 
REMARK  10 active torsions:
REMARK  status: ('A' for Active; 'I' for Inactive)
REMARK    1  A    between atoms: C_1  and  C_2
REMARK    2  A    between atoms: C_2  and  C_3
REMARK    3  A    between atoms: C_2  and  C_4
REMARK    4  A    between atoms: C_2  and  C_5
REMARK    5  A    between atoms: C_8  and  C_9
REMARK    6  A    between atoms: N_11  and  C_12
REMARK    7  A    between atoms: C_12  and  C_13
REMARK    8  A    between atoms: C_16  and  N_17
REMARK    9  A    between atoms: N_17  and  S_18
REMARK   10  A    between atoms: S_18  and  C_19
REMARK                            x       y       z     vdW  Elec       q    Type
REMARK                         _______ _______ _______ _____ _____    ______ ____
ROOT
ATOM      1  C   UNL     1       1.833   8.639  18.524  0.00  0.00    +0.000 C 
ATOM      2  O   UNL     1       2.391   9.048  17.511  0.00  0.00    +0.000 OA
ATOM      3  N   UNL     1       1.019   9.439  19.293  0.00  0.00    +0.000 N 
ATOM      4  H   UNL     1       0.557   9.085  20.116  0.00  0.00    +0.000 HD
ENDROOT
BRANCH   1   8
ATOM      5  C   UNL     1       2.460   4.487  19.641  0.00  0.00    +0.000 A 
ATOM      6  C   UNL     1       2.631   4.950  18.326  0.00  0.00    +0.000 A 
ATOM      7  C   UNL     1       2.421   6.295  17.993  0.00  0.00    +0.000 A 
ATOM      8  C   UNL     1       2.015   7.214  18.958  0.00  0.00    +0.000 A 
ATOM      9  C   UNL     1       1.803   6.764  20.266  0.00  0.00    +0.000 A 
ATOM     10  C   UNL     1       2.019   5.418  20.596  0.00  0.00    +0.000 A 
BRANCH   5  12
ATOM     11  C   UNL     1       2.426   2.739  21.525  0.00  0.00    +0.000 C 
ATOM     12  C   UNL     1       2.788   3.040  20.053  0.00  0.00    +0.000 C 
ATOM     13  C   UNL     1       4.290   2.743  19.871  0.00  0.00    +0.000 C 
ATOM     14  C   UNL     1       1.979   2.060  19.173  0.00  0.00    +0.000 C 
ENDBRANCH   5  12
ENDBRANCH   1   8
BRANCH   3  15
ATOM     15  C   UNL     1       0.773  10.819  18.958  0.00  0.00    +0.000 C 
BRANCH  15  16
ATOM     16  C   UNL     1      -0.692  11.162  18.984  0.00  0.00    +0.000 A 
ATOM     17  C   UNL     1      -1.216  12.046  19.940  0.00  0.00    +0.000 A 
ATOM     18  C   UNL     1      -2.567  12.415  19.902  0.00  0.00    +0.000 A 
ATOM     19  C   UNL     1      -3.399  11.903  18.904  0.00  0.00    +0.000 A 
ATOM     20  C   UNL     1      -2.905  10.976  17.991  0.00  0.00    +0.000 A 
ATOM     21  C   UNL     1      -1.564  10.615  18.040  0.00  0.00    +0.000 A 
ATOM     22  F   UNL     1      -1.096   9.754  17.123  0.00  0.00    +0.000 F 
BRANCH  19  23
ATOM     23  N   UNL     1      -4.715  12.406  18.708  0.00  0.00    +0.000 N 
ATOM     24  H   UNL     1      -4.816  13.419  18.799  0.00  0.00    +0.000 HD
BRANCH  23  25
ATOM     25  S   UNL     1      -6.037  11.618  19.387  0.00  0.00    +0.000 S 
ATOM     26  C   UNL     1      -7.361  12.701  18.892  0.00  0.00    +0.000 C 
ATOM     27  O   UNL     1      -6.226  10.324  18.769  0.00  0.00    +0.000 OA
ATOM     28  O   UNL     1      -5.875  11.760  20.816  0.00  0.00    +0.000 OA
ENDBRANCH  23  25
ENDBRANCH  19  23
ENDBRANCH  15  16
ENDBRANCH   3  15
TORSDOF 6
ENDMDL
MODEL 4
REMARK VINA RESULT:      -7.6      6.942     10.093
REMARK  Name = 
REMARK  10 active torsions:
REMARK  status: ('A' for Active; 'I' for Inactive)
REMARK    1  A    between atoms: C_1  and  C_2
REMARK    2  A    between atoms: C_2  and  C_3
REMARK    3  A    between atoms: C_2  and  C_4
REMARK    4  A    between atoms: C_2  and  C_5
REMARK    5  A    between atoms: C_8  and  C_9
REMARK    6  A    between atoms: N_11  and  C_12
REMARK    7  A    between atoms: C_12  and  C_13
REMARK    8  A    between atoms: C_16  and  N_17
REMARK    9  A    between atoms: N_17  and  S_18
REMARK   10  A    between atoms: S_18  and  C_19
REMARK                            x       y       z     vdW  Elec       q    Type
REMARK                         _______ _______ _______ _____ _____    ______ ____
ROOT
ATOM      1  C   UNL     1       8.203   8.182  18.114  0.00  0.00    +0.000 C 
ATOM      2  O   UNL     1       8.579   7.321  18.903  0.00  0.00    +0.000 OA
ATOM      3  N   UNL     1       7.438   7.887  17.009  0.00  0.00    +0.000 N 
ATOM      4  H   UNL     1       7.125   8.607  16.376  0.00  0.00    +0.000 HD
ENDROOT
BRANCH   1   8
ATOM      5  C   UNL     1       9.382  12.294  18.875  0.00  0.00    +0.000 A 
ATOM      6  C   UNL     1       9.779  11.229  19.700  0.00  0.00    +0.000 A 
ATOM      7  C   UNL     1       9.383   9.912  19.432  0.00  0.00    +0.000 A 
ATOM      8  C   UNL     1       8.563   9.620  18.344  0.00  0.00    +0.000 A 
ATOM      9  C   UNL     1       8.127  10.674  17.532  0.00  0.00    +0.000 A 
ATOM     10  C   UNL     1       8.529  11.989  17.801  0.00  0.00    +0.000 A 
BRANCH   5  12
ATOM     11  C   UNL     1      11.260  13.988  18.417  0.00  0.00    +0.000 C 
ATOM     12  C   UNL     1       9.891  13.732  19.086  0.00  0.00    +0.000 C 
ATOM     13  C   UNL     1      10.038  14.049  20.588  0.00  0.00    +0.000 C 
ATOM     14  C   UNL     1       8.884  14.728  18.467  0.00  0.00    +0.000 C 
ENDBRANCH   5  12
ENDBRANCH   1   8
BRANCH   3  15
ATOM     15  C   UNL     1       7.031   6.539  16.704  0.00  0.00    +0.000 C 
BRANCH  15  16
ATOM     16  C   UNL     1       5.951   6.043  17.627  0.00  0.00    +0.000 A 
ATOM     17  C   UNL     1       6.238   5.144  18.666  0.00  0.00    +0.000 A 
ATOM     18  C   UNL     1       5.236   4.754  19.565  0.00  0.00    +0.000 A 
ATOM     19  C   UNL     1       3.943   5.264  19.429  0.00  0.00    +0.000 A 
ATOM     20  C   UNL     1       3.633   6.104  18.364  0.00  0.00    +0.000 A 
ATOM     21  C   UNL     1       4.635   6.482  17.477  0.00  0.00    +0.000 A 
ATOM     22  F   UNL     1       4.326   7.329  16.483  0.00  0.00    +0.000 F 
BRANCH  19  23
ATOM     23  N   UNL     1       2.956   5.055  20.432  0.00  0.00    +0.000 N 
ATOM     24  H   UNL     1       3.112   5.553  21.311  0.00  0.00    +0.000 HD
BRANCH  23  25
ATOM     25  S   UNL     1       2.355   3.512  20.725  0.00  0.00    +0.000 S 
ATOM     26  C   UNL     1       0.700   3.672  20.087  0.00  0.00    +0.000 C 
ATOM     27  O   UNL     1       3.073   2.532  19.941  0.00  0.00    +0.000 OA
ATOM     28  O   UNL     1       2.254   3.406  22.164  0.00  0.00    +0.000 OA
ENDBRANCH  23  25
ENDBRANCH  19  23
ENDBRANCH  15  16
ENDBRANCH   3  15
TORSDOF 6
ENDMDL
MODEL 5
REMARK VINA RESULT:      -7.5      6.844     10.122
REMARK  Name = 
REMARK  10 active torsions:
REMARK  status: ('A' for Active; 'I' for Inactive)
REMARK    1  A    between atoms: C_1  and  C_2
REMARK    2  A    between atoms: C_2  and  C_3
REMARK    3  A    between atoms: C_2  and  C_4
REMARK    4  A    between atoms: C_2  and  C_5
REMARK    5  A    between atoms: C_8  and  C_9
REMARK    6  A    between atoms: N_11  and  C_12
REMARK    7  A    between atoms: C_12  and  C_13
REMARK    8  A    between atoms: C_16  and  N_17
REMARK    9  A    between atoms: N_17  and  S_18
REMARK   10  A    between atoms: S_18  and  C_19
REMARK                            x       y       z     vdW  Elec       q    Type
REMARK                         _______ _______ _______ _____ _____    ______ ____
ROOT
ATOM      1  C   UNL     1       8.196   8.198  18.154  0.00  0.00    +0.000 C 
ATOM      2  O   UNL     1       8.570   7.273  18.868  0.00  0.00    +0.000 OA
ATOM      3  N   UNL     1       7.380   8.004  17.063  0.00  0.00    +0.000 N 
ATOM      4  H   UNL     1       7.070   8.775  16.492  0.00  0.00    +0.000 HD
ENDROOT
BRANCH   1   8
ATOM      5  C   UNL     1       9.283  12.328  18.950  0.00  0.00    +0.000 A 
ATOM      6  C   UNL     1       8.580  11.941  17.799  0.00  0.00    +0.000 A 
ATOM      7  C   UNL     1       8.243  10.601  17.566  0.00  0.00    +0.000 A 
ATOM      8  C   UNL     1       8.615   9.604  18.466  0.00  0.00    +0.000 A 
ATOM      9  C   UNL     1       9.348   9.966  19.601  0.00  0.00    +0.000 A 
ATOM     10  C   UNL     1       9.679  11.309  19.833  0.00  0.00    +0.000 A 
BRANCH   5  12
ATOM     11  C   UNL     1       9.712  14.685  18.020  0.00  0.00    +0.000 C 
ATOM     12  C   UNL     1       9.571  13.804  19.281  0.00  0.00    +0.000 C 
ATOM     13  C   UNL     1      10.875  13.941  20.094  0.00  0.00    +0.000 C 
ATOM     14  C   UNL     1       8.405  14.380  20.115  0.00  0.00    +0.000 C 
ENDBRANCH   5  12
ENDBRANCH   1   8
BRANCH   3  15
ATOM     15  C   UNL     1       6.915   6.693  16.684  0.00  0.00    +0.000 C 
BRANCH  15  16
ATOM     16  C   UNL     1       5.735   6.246  17.502  0.00  0.00    +0.000 A 
ATOM     17  C   UNL     1       4.482   6.864  17.372  0.00  0.00    +0.000 A 
ATOM     18  C   UNL     1       3.374   6.384  18.083  0.00  0.00    +0.000 A 
ATOM     19  C   UNL     1       3.516   5.282  18.928  0.00  0.00    +0.000 A 
ATOM     20  C   UNL     1       4.767   4.703  19.116  0.00  0.00    +0.000 A 
ATOM     21  C   UNL     1       5.860   5.188  18.406  0.00  0.00    +0.000 A 
ATOM     22  F   UNL     1       7.049   4.587  18.565  0.00  0.00    +0.000 F 
BRANCH  19  23
ATOM     23  N   UNL     1       2.385   4.642  19.506  0.00  0.00    +0.000 N 
ATOM     24  H   UNL     1       2.453   4.448  20.508  0.00  0.00    +0.000 HD
BRANCH  23  25
ATOM     25  S   UNL     1       1.629   3.367  18.709  0.00  0.00    +0.000 S 
ATOM     26  C   UNL     1       2.864   2.094  18.870  0.00  0.00    +0.000 C 
ATOM     27  O   UNL     1       0.436   2.964  19.419  0.00  0.00    +0.000 OA
ATOM     28  O   UNL     1       1.589   3.756  17.317  0.00  0.00    +0.000 OA
ENDBRANCH  23  25
ENDBRANCH  19  23
ENDBRANCH  15  16
ENDBRANCH   3  15
TORSDOF 6
ENDMDL
MODEL 6
REMARK VINA RESULT:      -7.5      7.042     10.156
REMARK  Name = 
REMARK  10 active torsions:
REMARK  status: ('A' for Active; 'I' for Inactive)
REMARK    1  A    between atoms: C_1  and  C_2
REMARK    2  A    between atoms: C_2  and  C_3
REMARK    3  A    between atoms: C_2  and  C_4
REMARK    4  A    between atoms: C_2  and  C_5
REMARK    5  A    between atoms: C_8  and  C_9
REMARK    6  A    between atoms: N_11  and  C_12
REMARK    7  A    between atoms: C_12  and  C_13
REMARK    8  A    between atoms: C_16  and  N_17
REMARK    9  A    between atoms: N_17  and  S_18
REMARK   10  A    between atoms: S_18  and  C_19
REMARK                            x       y       z     vdW  Elec       q    Type
REMARK                         _______ _______ _______ _____ _____    ______ ____
ROOT
ATOM      1  C   UNL     1       8.207   8.326  18.171  0.00  0.00    +0.000 C 
ATOM      2  O   UNL     1       8.623   7.445  18.916  0.00  0.00    +0.000 OA
ATOM      3  N   UNL     1       7.351   8.066  17.126  0.00  0.00    +0.000 N 
ATOM      4  H   UNL     1       7.006   8.803  16.530  0.00  0.00    +0.000 HD
ENDROOT
BRANCH   1   8
ATOM      5  C   UNL     1       9.532  12.398  18.908  0.00  0.00    +0.000 A 
ATOM      6  C   UNL     1       9.853  11.333  19.764  0.00  0.00    +0.000 A 
ATOM      7  C   UNL     1       9.411  10.029  19.504  0.00  0.00    +0.000 A 
ATOM      8  C   UNL     1       8.620   9.752  18.391  0.00  0.00    +0.000 A 
ATOM      9  C   UNL     1       8.259  10.808  17.545  0.00  0.00    +0.000 A 
ATOM     10  C   UNL     1       8.707  12.110  17.808  0.00  0.00    +0.000 A 
BRANCH   5  12
ATOM     11  C   UNL     1       9.620  14.813  18.031  0.00  0.00    +0.000 C 
ATOM     12  C   UNL     1      10.093  13.817  19.115  0.00  0.00    +0.000 C 
ATOM     13  C   UNL     1      11.635  13.807  19.098  0.00  0.00    +0.000 C 
ATOM     14  C   UNL     1       9.616  14.364  20.479  0.00  0.00    +0.000 C 
ENDBRANCH   5  12
ENDBRANCH   1   8
BRANCH   3  15
ATOM     15  C   UNL     1       6.888   6.732  16.836  0.00  0.00    +0.000 C 
BRANCH  15  16
ATOM     16  C   UNL     1       5.665   6.365  17.632  0.00  0.00    +0.000 A 
ATOM     17  C   UNL     1       4.399   6.871  17.297  0.00  0.00    +0.000 A 
ATOM     18  C   UNL     1       3.259   6.457  18.000  0.00  0.00    +0.000 A 
ATOM     19  C   UNL     1       3.382   5.533  19.039  0.00  0.00    +0.000 A 
ATOM     20  C   UNL     1       4.639   5.075  19.422  0.00  0.00    +0.000 A 
ATOM     21  C   UNL     1       5.763   5.494  18.719  0.00  0.00    +0.000 A 
ATOM     22  F   UNL     1       6.962   5.006  19.074  0.00  0.00    +0.000 F 
BRANCH  19  23
ATOM     23  N   UNL     1       2.237   4.937  19.638  0.00  0.00    +0.000 N 
ATOM     24  H   UNL     1       2.023   5.252  20.586  0.00  0.00    +0.000 HD
BRANCH  23  25
ATOM     25  S   UNL     1       1.965   3.283  19.490  0.00  0.00    +0.000 S 
ATOM     26  C   UNL     1       2.302   3.043  17.758  0.00  0.00    +0.000 C 
ATOM     27  O   UNL     1       2.930   2.541  20.270  0.00  0.00    +0.000 OA
ATOM     28  O   UNL     1       0.542   3.111  19.680  0.00  0.00    +0.000 OA
ENDBRANCH  23  25
ENDBRANCH  19  23
ENDBRANCH  15  16
ENDBRANCH   3  15
TORSDOF 6
ENDMDL
MODEL 7
REMARK VINA RESULT:      -7.5      6.748     10.055
REMARK  Name = 
REMARK  10 active torsions:
REMARK  status: ('A' for Active; 'I' for Inactive)
REMARK    1  A    between atoms: C_1  and  C_2
REMARK    2  A    between atoms: C_2  and  C_3
REMARK    3  A    between atoms: C_2  and  C_4
REMARK    4  A    between atoms: C_2  and  C_5
REMARK    5  A    between atoms: C_8  and  C_9
REMARK    6  A    between atoms: N_11  and  C_12
REMARK    7  A    between atoms: C_12  and  C_13
REMARK    8  A    between atoms: C_16  and  N_17
REMARK    9  A    between atoms: N_17  and  S_18
REMARK   10  A    between atoms: S_18  and  C_19
REMARK                            x       y       z     vdW  Elec       q    Type
REMARK                         _______ _______ _______ _____ _____    ______ ____
ROOT
ATOM      1  C   UNL     1       8.248   8.212  18.146  0.00  0.00    +0.000 C 
ATOM      2  O   UNL     1       8.640   7.371  18.948  0.00  0.00    +0.000 OA
ATOM      3  N   UNL     1       7.502   7.884  17.038  0.00  0.00    +0.000 N 
ATOM      4  H   UNL     1       7.175   8.588  16.394  0.00  0.00    +0.000 HD
ENDROOT
BRANCH   1   8
ATOM      5  C   UNL     1       9.304  12.363  18.876  0.00  0.00    +0.000 A 
ATOM      6  C   UNL     1       9.698  11.322  19.731  0.00  0.00    +0.000 A 
ATOM      7  C   UNL     1       9.343   9.991  19.473  0.00  0.00    +0.000 A 
ATOM      8  C   UNL     1       8.567   9.662  18.364  0.00  0.00    +0.000 A 
ATOM      9  C   UNL     1       8.133  10.691  17.520  0.00  0.00    +0.000 A 
ATOM     10  C   UNL     1       8.495  12.021  17.779  0.00  0.00    +0.000 A 
BRANCH   5  12
ATOM     11  C   UNL     1       8.606  14.782  19.397  0.00  0.00    +0.000 C 
ATOM     12  C   UNL     1       9.771  13.817  19.079  0.00  0.00    +0.000 C 
ATOM     13  C   UNL     1      10.485  14.346  17.819  0.00  0.00    +0.000 C 
ATOM     14  C   UNL     1      10.755  13.878  20.269  0.00  0.00    +0.000 C 
ENDBRANCH   5  12
ENDBRANCH   1   8
BRANCH   3  15
ATOM     15  C   UNL     1       7.136   6.521  16.744  0.00  0.00    +0.000 C 
BRANCH  15  16
ATOM     16  C   UNL     1       5.972   6.049  17.573  0.00  0.00    +0.000 A 
ATOM     17  C   UNL     1       6.161   5.211  18.683  0.00  0.00    +0.000 A 
ATOM     18  C   UNL     1       5.076   4.845  19.491  0.00  0.00    +0.000 A 
ATOM     19  C   UNL     1       3.797   5.318  19.191  0.00  0.00    +0.000 A 
ATOM     20  C   UNL     1       3.588   6.096  18.057  0.00  0.00    +0.000 A 
ATOM     21  C   UNL     1       4.672   6.451  17.262  0.00  0.00    +0.000 A 
ATOM     22  F   UNL     1       4.457   7.240  16.197  0.00  0.00    +0.000 F 
BRANCH  19  23
ATOM     23  N   UNL     1       2.712   5.139  20.094  0.00  0.00    +0.000 N 
ATOM     24  H   UNL     1       2.882   5.452  21.052  0.00  0.00    +0.000 HD
BRANCH  23  25
ATOM     25  S   UNL     1       1.829   3.708  20.088  0.00  0.00    +0.000 S 
ATOM     26  C   UNL     1       2.451   2.925  21.562  0.00  0.00    +0.000 C 
ATOM     27  O   UNL     1       0.419   3.983  20.257  0.00  0.00    +0.000 OA
ATOM     28  O   UNL     1       2.325   2.955  18.958  0.00  0.00    +0.000 OA
ENDBRANCH  23  25
ENDBRANCH  19  23
ENDBRANCH  15  16
ENDBRANCH   3  15
TORSDOF 6
ENDMDL
MODEL 8
REMARK VINA RESULT:      -7.5      2.166      2.440
REMARK  Name = 
REMARK  10 active torsions:
REMARK  status: ('A' for Active; 'I' for Inactive)
REMARK    1  A    between atoms: C_1  and  C_2
REMARK    2  A    between atoms: C_2  and  C_3
REMARK    3  A    between atoms: C_2  and  C_4
REMARK    4  A    between atoms: C_2  and  C_5
REMARK    5  A    between atoms: C_8  and  C_9
REMARK    6  A    between atoms: N_11  and  C_12
REMARK    7  A    between atoms: C_12  and  C_13
REMARK    8  A    between atoms: C_16  and  N_17
REMARK    9  A    between atoms: N_17  and  S_18
REMARK   10  A    between atoms: S_18  and  C_19
REMARK                            x       y       z     vdW  Elec       q    Type
REMARK                         _______ _______ _______ _____ _____    ______ ____
ROOT
ATOM      1  C   UNL     1       1.917   8.612  18.507  0.00  0.00    +0.000 C 
ATOM      2  O   UNL     1       2.399   9.053  17.469  0.00  0.00    +0.000 OA
ATOM      3  N   UNL     1       1.165   9.387  19.360  0.00  0.00    +0.000 N 
ATOM      4  H   UNL     1       0.763   9.007  20.203  0.00  0.00    +0.000 HD
ENDROOT
BRANCH   1   8
ATOM      5  C   UNL     1       2.420   4.472  19.727  0.00  0.00    +0.000 A 
ATOM      6  C   UNL     1       2.042   5.483  20.625  0.00  0.00    +0.000 A 
ATOM      7  C   UNL     1       1.888   6.811  20.205  0.00  0.00    +0.000 A 
ATOM      8  C   UNL     1       2.126   7.173  18.881  0.00  0.00    +0.000 A 
ATOM      9  C   UNL     1       2.540   6.186  17.979  0.00  0.00    +0.000 A 
ATOM     10  C   UNL     1       2.688   4.857  18.403  0.00  0.00    +0.000 A 
BRANCH   5  12
ATOM     11  C   UNL     1       1.624   2.076  19.245  0.00  0.00    +0.000 C 
ATOM     12  C   UNL     1       2.492   2.990  20.139  0.00  0.00    +0.000 C 
ATOM     13  C   UNL     1       2.021   2.801  21.596  0.00  0.00    +0.000 C 
ATOM     14  C   UNL     1       3.951   2.494  20.022  0.00  0.00    +0.000 C 
ENDBRANCH   5  12
ENDBRANCH   1   8
BRANCH   3  15
ATOM     15  C   UNL     1       0.899  10.777  19.087  0.00  0.00    +0.000 C 
BRANCH  15  16
ATOM     16  C   UNL     1      -0.133  11.356  20.018  0.00  0.00    +0.000 A 
ATOM     17  C   UNL     1      -0.212  10.952  21.359  0.00  0.00    +0.000 A 
ATOM     18  C   UNL     1      -1.126  11.557  22.232  0.00  0.00    +0.000 A 
ATOM     19  C   UNL     1      -1.964  12.571  21.764  0.00  0.00    +0.000 A 
ATOM     20  C   UNL     1      -1.940  12.934  20.421  0.00  0.00    +0.000 A 
ATOM     21  C   UNL     1      -1.030  12.325  19.564  0.00  0.00    +0.000 A 
ATOM     22  F   UNL     1      -0.990  12.721  18.283  0.00  0.00    +0.000 F 
BRANCH  19  23
ATOM     23  N   UNL     1      -2.756  13.346  22.657  0.00  0.00    +0.000 N 
ATOM     24  H   UNL     1      -2.259  13.737  23.459  0.00  0.00    +0.000 HD
BRANCH  23  25
ATOM     25  S   UNL     1      -4.288  12.818  23.112  0.00  0.00    +0.000 S 
ATOM     26  C   UNL     1      -5.013  14.344  23.674  0.00  0.00    +0.000 C 
ATOM     27  O   UNL     1      -5.020  12.341  21.960  0.00  0.00    +0.000 OA
ATOM     28  O   UNL     1      -4.077  11.986  24.275  0.00  0.00    +0.000 OA
ENDBRANCH  23  25
ENDBRANCH  19  23
ENDBRANCH  15  16
ENDBRANCH   3  15
TORSDOF 6
ENDMDL
MODEL 9
REMARK VINA RESULT:      -7.5      0.765      1.551
REMARK  Name = 
REMARK  10 active torsions:
REMARK  status: ('A' for Active; 'I' for Inactive)
REMARK    1  A    between atoms: C_1  and  C_2
REMARK    2  A    between atoms: C_2  and  C_3
REMARK    3  A    between atoms: C_2  and  C_4
REMARK    4  A    between atoms: C_2  and  C_5
REMARK    5  A    between atoms: C_8  and  C_9
REMARK    6  A    between atoms: N_11  and  C_12
REMARK    7  A    between atoms: C_12  and  C_13
REMARK    8  A    between atoms: C_16  and  N_17
REMARK    9  A    between atoms: N_17  and  S_18
REMARK   10  A    between atoms: S_18  and  C_19
REMARK                            x       y       z     vdW  Elec       q    Type
REMARK                         _______ _______ _______ _____ _____    ______ ____
ROOT
ATOM      1  C   UNL     1       1.872   8.606  18.546  0.00  0.00    +0.000 C 
ATOM      2  O   UNL     1       2.553   9.041  17.623  0.00  0.00    +0.000 OA
ATOM      3  N   UNL     1       0.951   9.382  19.213  0.00  0.00    +0.000 N 
ATOM      4  H   UNL     1       0.389   9.007  19.961  0.00  0.00    +0.000 HD
ENDROOT
BRANCH   1   8
ATOM      5  C   UNL     1       2.379   4.434  19.648  0.00  0.00    +0.000 A 
ATOM      6  C   UNL     1       2.521   4.889  18.327  0.00  0.00    +0.000 A 
ATOM      7  C   UNL     1       2.350   6.240  17.999  0.00  0.00    +0.000 A 
ATOM      8  C   UNL     1       2.014   7.175  18.976  0.00  0.00    +0.000 A 
ATOM      9  C   UNL     1       1.833   6.735  20.292  0.00  0.00    +0.000 A 
ATOM     10  C   UNL     1       2.009   5.382  20.616  0.00  0.00    +0.000 A 
BRANCH   5  12
ATOM     11  C   UNL     1       4.154   2.590  19.888  0.00  0.00    +0.000 C 
ATOM     12  C   UNL     1       2.666   2.976  20.051  0.00  0.00    +0.000 C 
ATOM     13  C   UNL     1       1.834   1.996  19.199  0.00  0.00    +0.000 C 
ATOM     14  C   UNL     1       2.301   2.773  21.539  0.00  0.00    +0.000 C 
ENDBRANCH   5  12
ENDBRANCH   1   8
BRANCH   3  15
ATOM     15  C   UNL     1       0.732  10.765  18.871  0.00  0.00    +0.000 C 
BRANCH  15  16
ATOM     16  C   UNL     1      -0.726  11.134  18.885  0.00  0.00    +0.000 A 
ATOM     17  C   UNL     1      -1.232  12.068  19.802  0.00  0.00    +0.000 A 
ATOM     18  C   UNL     1      -2.577  12.459  19.750  0.00  0.00    +0.000 A 
ATOM     19  C   UNL     1      -3.420  11.917  18.778  0.00  0.00    +0.000 A 
ATOM     20  C   UNL     1      -2.945  10.943  17.906  0.00  0.00    +0.000 A 
ATOM     21  C   UNL     1      -1.610  10.561  17.968  0.00  0.00    +0.000 A 
ATOM     22  F   UNL     1      -1.160   9.653  17.089  0.00  0.00    +0.000 F 
BRANCH  19  23
ATOM     23  N   UNL     1      -4.728  12.435  18.562  0.00  0.00    +0.000 N 
ATOM     24  H   UNL     1      -4.776  13.433  18.350  0.00  0.00    +0.000 HD
BRANCH  23  25
ATOM     25  S   UNL     1      -5.997  11.984  19.570  0.00  0.00    +0.000 S 
ATOM     26  C   UNL     1      -6.437  10.408  18.869  0.00  0.00    +0.000 C 
ATOM     27  O   UNL     1      -5.523  11.787  20.922  0.00  0.00    +0.000 OA
ATOM     28  O   UNL     1      -7.071  12.905  19.270  0.00  0.00    +0.000 OA
ENDBRANCH  23  25
ENDBRANCH  19  23
ENDBRANCH  15  16
ENDBRANCH   3  15
TORSDOF 6
ENDMDL
