MODEL 1
REMARK VINA RESULT:      -7.3      0.000      0.000
REMARK  Name = 
REMARK  5 active torsions:
REMARK  status: ('A' for Active; 'I' for Inactive)
REMARK    1  A    between atoms: C_2  and  C_3
REMARK    2  A    between atoms: C_5  and  C_6
REMARK    3  A    between atoms: C_9  and  C_11
REMARK    4  A    between atoms: C_17  and  N_18
REMARK    5  A    between atoms: C_19  and  C_21
REMARK                            x       y       z     vdW  Elec       q    Type
REMARK                         _______ _______ _______ _____ _____    ______ ____
ROOT
ATOM      1  C   UNL     1       1.903   6.093  20.550  0.00  0.00    +0.000 A 
ATOM      2  N   UNL     1       1.299   6.986  21.396  0.00  0.00    +0.000 NA
ATOM      3  C   UNL     1       1.344   8.152  20.780  0.00  0.00    +0.000 A 
ATOM      4  N   UNL     1       1.842   8.030  19.482  0.00  0.00    +0.000 N 
ATOM      5  C   UNL     1       1.931   9.039  18.501  0.00  0.00    +0.000 C 
ATOM      6  O   UNL     1       2.761   8.883  17.610  0.00  0.00    +0.000 OA
ATOM      7  C   UNL     1       2.265   6.699  19.364  0.00  0.00    +0.000 A 
ENDROOT
BRANCH   5   8
ATOM      8  C   UNL     1       1.038  10.223  18.398  0.00  0.00    +0.000 A 
ATOM      9  C   UNL     1      -0.336  10.052  18.180  0.00  0.00    +0.000 A 
ATOM     10  C   UNL     1      -1.186  11.158  18.201  0.00  0.00    +0.000 A 
ATOM     11  C   UNL     1      -0.672  12.431  18.451  0.00  0.00    +0.000 A 
ATOM     12  C   UNL     1       0.694  12.605  18.671  0.00  0.00    +0.000 A 
ATOM     13  C   UNL     1       1.550  11.503  18.655  0.00  0.00    +0.000 A 
ENDBRANCH   5   8
BRANCH   7  14
ATOM     14  N   UNL     1       2.807   6.110  18.221  0.00  0.00    +0.000 N 
ATOM     15  C   UNL     1       4.152   5.735  18.291  0.00  0.00    +0.000 C 
ATOM     16  O   UNL     1       4.840   5.813  19.303  0.00  0.00    +0.000 OA
ATOM     17  H   UNL     1       2.588   6.540  17.327  0.00  0.00    +0.000 HD
BRANCH  15  18
ATOM     18  C   UNL     1       4.749   5.251  17.005  0.00  0.00    +0.000 A 
ATOM     19  C   UNL     1       5.089   6.181  16.012  0.00  0.00    +0.000 A 
ATOM     20  C   UNL     1       5.679   5.754  14.818  0.00  0.00    +0.000 A 
ATOM     21  C   UNL     1       5.939   4.399  14.610  0.00  0.00    +0.000 A 
ATOM     22  C   UNL     1       5.621   3.472  15.600  0.00  0.00    +0.000 A 
ATOM     23  C   UNL     1       5.024   3.892  16.795  0.00  0.00    +0.000 A 
ENDBRANCH  15  18
ENDBRANCH   7  14
BRANCH   1  25
ATOM     24  N   UNL     1       2.088   3.574  21.149  0.00  0.00    +0.000 NA
ATOM     25  C   UNL     1       1.975   4.698  20.874  0.00  0.00    +0.000 C 
ENDBRANCH   1  25
BRANCH   3  26
ATOM     26  C   UNL     1       0.964   9.370  21.423  0.00  0.00    +0.000 C 
ATOM     27  N   UNL     1       0.687  10.364  21.953  0.00  0.00    +0.000 NA
ENDBRANCH   3  26
TORSDOF 5
ENDMDL
MODEL 2
REMARK VINA RESULT:      -7.2      0.963      1.017
REMARK  Name = 
REMARK  5 active torsions:
REMARK  status: ('A' for Active; 'I' for Inactive)
REMARK    1  A    between atoms: C_2  and  C_3
REMARK    2  A    between atoms: C_5  and  C_6
REMARK    3  A    between atoms: C_9  and  C_11
REMARK    4  A    between atoms: C_17  and  N_18
REMARK    5  A    between atoms: C_19  and  C_21
REMARK                            x       y       z     vdW  Elec       q    Type
REMARK                         _______ _______ _______ _____ _____    ______ ____
ROOT
ATOM      1  C   UNL     1       2.390   5.377  20.066  0.00  0.00    +0.000 A 
ATOM      2  N   UNL     1       1.686   6.139  20.963  0.00  0.00    +0.000 NA
ATOM      3  C   UNL     1       1.655   7.356  20.455  0.00  0.00    +0.000 A 
ATOM      4  N   UNL     1       2.204   7.393  19.173  0.00  0.00    +0.000 N 
ATOM      5  C   UNL     1       2.241   8.492  18.289  0.00  0.00    +0.000 C 
ATOM      6  O   UNL     1       3.111   8.484  17.422  0.00  0.00    +0.000 OA
ATOM      7  C   UNL     1       2.740   6.117  18.955  0.00  0.00    +0.000 A 
ENDROOT
BRANCH   5   8
ATOM      8  C   UNL     1       1.258   9.605  18.256  0.00  0.00    +0.000 A 
ATOM      9  C   UNL     1      -0.078   9.354  17.911  0.00  0.00    +0.000 A 
ATOM     10  C   UNL     1      -1.022  10.379  17.995  0.00  0.00    +0.000 A 
ATOM     11  C   UNL     1      -0.639  11.648  18.431  0.00  0.00    +0.000 A 
ATOM     12  C   UNL     1       0.688  11.901  18.776  0.00  0.00    +0.000 A 
ATOM     13  C   UNL     1       1.636  10.880  18.699  0.00  0.00    +0.000 A 
ENDBRANCH   5   8
BRANCH   7  14
ATOM     14  N   UNL     1       3.367   5.679  17.787  0.00  0.00    +0.000 N 
ATOM     15  C   UNL     1       4.749   5.479  17.858  0.00  0.00    +0.000 C 
ATOM     16  O   UNL     1       5.409   5.579  18.887  0.00  0.00    +0.000 OA
ATOM     17  H   UNL     1       3.103   6.136  16.918  0.00  0.00    +0.000 HD
BRANCH  15  18
ATOM     18  C   UNL     1       5.418   5.162  16.556  0.00  0.00    +0.000 A 
ATOM     19  C   UNL     1       6.757   5.530  16.365  0.00  0.00    +0.000 A 
ATOM     20  C   UNL     1       7.412   5.213  15.170  0.00  0.00    +0.000 A 
ATOM     21  C   UNL     1       6.737   4.524  14.162  0.00  0.00    +0.000 A 
ATOM     22  C   UNL     1       5.412   4.138  14.354  0.00  0.00    +0.000 A 
ATOM     23  C   UNL     1       4.748   4.459  15.545  0.00  0.00    +0.000 A 
ENDBRANCH  15  18
ENDBRANCH   7  14
BRANCH   1  25
ATOM     24  N   UNL     1       2.715   2.837  20.487  0.00  0.00    +0.000 NA
ATOM     25  C   UNL     1       2.568   3.969  20.268  0.00  0.00    +0.000 C 
ENDBRANCH   1  25
BRANCH   3  26
ATOM     26  C   UNL     1       1.154   8.475  21.187  0.00  0.00    +0.000 C 
ATOM     27  N   UNL     1       0.734   9.364  21.805  0.00  0.00    +0.000 NA
ENDBRANCH   3  26
TORSDOF 5
ENDMDL
MODEL 3
REMARK VINA RESULT:      -7.1      0.168      1.352
REMARK  Name = 
REMARK  5 active torsions:
REMARK  status: ('A' for Active; 'I' for Inactive)
REMARK    1  A    between atoms: C_2  and  C_3
REMARK    2  A    between atoms: C_5  and  C_6
REMARK    3  A    between atoms: C_9  and  C_11
REMARK    4  A    between atoms: C_17  and  N_18
REMARK    5  A    between atoms: C_19  and  C_21
REMARK                            x       y       z     vdW  Elec       q    Type
REMARK                         _______ _______ _______ _____ _____    ______ ____
ROOT
ATOM      1  C   UNL     1       1.853   6.083  20.601  0.00  0.00    +0.000 A 
ATOM      2  N   UNL     1       1.221   6.928  21.477  0.00  0.00    +0.000 NA
ATOM      3  C   UNL     1       1.257   8.121  20.914  0.00  0.00    +0.000 A 
ATOM      4  N   UNL     1       1.776   8.065  19.621  0.00  0.00    +0.000 N 
ATOM      5  C   UNL     1       1.864   9.119  18.687  0.00  0.00    +0.000 C 
ATOM      6  O   UNL     1       2.711   9.016  17.804  0.00  0.00    +0.000 OA
ATOM      7  C   UNL     1       2.223   6.748  19.450  0.00  0.00    +0.000 A 
ENDROOT
BRANCH   5   8
ATOM      8  C   UNL     1       0.954  10.292  18.624  0.00  0.00    +0.000 A 
ATOM      9  C   UNL     1       1.463  11.588  18.789  0.00  0.00    +0.000 A 
ATOM     10  C   UNL     1       0.626  12.691  18.613  0.00  0.00    +0.000 A 
ATOM     11  C   UNL     1      -0.711  12.505  18.263  0.00  0.00    +0.000 A 
ATOM     12  C   UNL     1      -1.221  11.218  18.096  0.00  0.00    +0.000 A 
ATOM     13  C   UNL     1      -0.390  10.111  18.266  0.00  0.00    +0.000 A 
ENDBRANCH   5   8
BRANCH   7  14
ATOM     14  N   UNL     1       2.792   6.219  18.290  0.00  0.00    +0.000 N 
ATOM     15  C   UNL     1       4.122   5.797  18.384  0.00  0.00    +0.000 C 
ATOM     16  O   UNL     1       4.771   5.784  19.425  0.00  0.00    +0.000 OA
ATOM     17  H   UNL     1       2.622   6.716  17.420  0.00  0.00    +0.000 HD
BRANCH  15  18
ATOM     18  C   UNL     1       4.754   5.381  17.092  0.00  0.00    +0.000 A 
ATOM     19  C   UNL     1       5.023   4.024  16.864  0.00  0.00    +0.000 A 
ATOM     20  C   UNL     1       5.580   3.608  15.651  0.00  0.00    +0.000 A 
ATOM     21  C   UNL     1       5.869   4.543  14.656  0.00  0.00    +0.000 A 
ATOM     22  C   UNL     1       5.586   5.891  14.868  0.00  0.00    +0.000 A 
ATOM     23  C   UNL     1       5.034   6.314  16.083  0.00  0.00    +0.000 A 
ENDBRANCH  15  18
ENDBRANCH   7  14
BRANCH   1  25
ATOM     24  N   UNL     1       2.062   3.534  21.042  0.00  0.00    +0.000 NA
ATOM     25  C   UNL     1       1.943   4.676  20.863  0.00  0.00    +0.000 C 
ENDBRANCH   1  25
BRANCH   3  26
ATOM     26  C   UNL     1       0.848   9.302  21.606  0.00  0.00    +0.000 C 
ATOM     27  N   UNL     1       0.538  10.255  22.191  0.00  0.00    +0.000 NA
ENDBRANCH   3  26
TORSDOF 5
ENDMDL
MODEL 4
REMARK VINA RESULT:      -6.9      0.975      1.482
REMARK  Name = 
REMARK  5 active torsions:
REMARK  status: ('A' for Active; 'I' for Inactive)
REMARK    1  A    between atoms: C_2  and  C_3
REMARK    2  A    between atoms: C_5  and  C_6
REMARK    3  A    between atoms: C_9  and  C_11
REMARK    4  A    between atoms: C_17  and  N_18
REMARK    5  A    between atoms: C_19  and  C_21
REMARK                            x       y       z     vdW  Elec       q    Type
REMARK                         _______ _______ _______ _____ _____    ______ ____
ROOT
ATOM      1  C   UNL     1       2.269   5.248  20.205  0.00  0.00    +0.000 A 
ATOM      2  N   UNL     1       1.530   5.969  21.107  0.00  0.00    +0.000 NA
ATOM      3  C   UNL     1       1.526   7.210  20.658  0.00  0.00    +0.000 A 
ATOM      4  N   UNL     1       2.130   7.306  19.405  0.00  0.00    +0.000 N 
ATOM      5  C   UNL     1       2.209   8.446  18.578  0.00  0.00    +0.000 C 
ATOM      6  O   UNL     1       3.116   8.476  17.750  0.00  0.00    +0.000 OA
ATOM      7  C   UNL     1       2.670   6.039  19.147  0.00  0.00    +0.000 A 
ENDROOT
BRANCH   5   8
ATOM      8  C   UNL     1       1.233   9.565  18.557  0.00  0.00    +0.000 A 
ATOM      9  C   UNL     1       1.626  10.851  18.954  0.00  0.00    +0.000 A 
ATOM     10  C   UNL     1       0.740  11.921  18.822  0.00  0.00    +0.000 A 
ATOM     11  C   UNL     1      -0.531  11.714  18.286  0.00  0.00    +0.000 A 
ATOM     12  C   UNL     1      -0.926  10.437  17.888  0.00  0.00    +0.000 A 
ATOM     13  C   UNL     1      -0.044   9.364  18.013  0.00  0.00    +0.000 A 
ENDBRANCH   5   8
BRANCH   7  14
ATOM     14  N   UNL     1       3.344   5.655  17.988  0.00  0.00    +0.000 N 
ATOM     15  C   UNL     1       4.710   5.386  18.120  0.00  0.00    +0.000 C 
ATOM     16  O   UNL     1       5.313   5.383  19.188  0.00  0.00    +0.000 OA
ATOM     17  H   UNL     1       3.151   6.182  17.140  0.00  0.00    +0.000 HD
BRANCH  15  18
ATOM     18  C   UNL     1       5.439   5.130  16.837  0.00  0.00    +0.000 A 
ATOM     19  C   UNL     1       4.762   4.518  15.773  0.00  0.00    +0.000 A 
ATOM     20  C   UNL     1       5.413   4.300  14.554  0.00  0.00    +0.000 A 
ATOM     21  C   UNL     1       6.741   4.696  14.389  0.00  0.00    +0.000 A 
ATOM     22  C   UNL     1       7.414   5.322  15.436  0.00  0.00    +0.000 A 
ATOM     23  C   UNL     1       6.769   5.536  16.661  0.00  0.00    +0.000 A 
ENDBRANCH  15  18
ENDBRANCH   7  14
BRANCH   1  25
ATOM     24  N   UNL     1       2.552   2.676  20.405  0.00  0.00    +0.000 NA
ATOM     25  C   UNL     1       2.432   3.830  20.346  0.00  0.00    +0.000 C 
ENDBRANCH   1  25
BRANCH   3  26
ATOM     26  C   UNL     1       0.999   8.295  21.422  0.00  0.00    +0.000 C 
ATOM     27  N   UNL     1       0.601   9.187  22.050  0.00  0.00    +0.000 NA
ENDBRANCH   3  26
TORSDOF 5
ENDMDL
MODEL 5
REMARK VINA RESULT:      -6.8      1.105      1.385
REMARK  Name = 
REMARK  5 active torsions:
REMARK  status: ('A' for Active; 'I' for Inactive)
REMARK    1  A    between atoms: C_2  and  C_3
REMARK    2  A    between atoms: C_5  and  C_6
REMARK    3  A    between atoms: C_9  and  C_11
REMARK    4  A    between atoms: C_17  and  N_18
REMARK    5  A    between atoms: C_19  and  C_21
REMARK                            x       y       z     vdW  Elec       q    Type
REMARK                         _______ _______ _______ _____ _____    ______ ____
ROOT
ATOM      1  C   UNL     1       2.376   5.116  19.713  0.00  0.00    +0.000 A 
ATOM      2  N   UNL     1       1.708   5.853  20.656  0.00  0.00    +0.000 NA
ATOM      3  C   UNL     1       1.751   7.102  20.233  0.00  0.00    +0.000 A 
ATOM      4  N   UNL     1       2.314   7.195  18.960  0.00  0.00    +0.000 N 
ATOM      5  C   UNL     1       2.423   8.349  18.155  0.00  0.00    +0.000 C 
ATOM      6  O   UNL     1       3.300   8.351  17.295  0.00  0.00    +0.000 OA
ATOM      7  C   UNL     1       2.779   5.909  18.657  0.00  0.00    +0.000 A 
ENDROOT
BRANCH   5   8
ATOM      8  C   UNL     1       1.504   9.516  18.193  0.00  0.00    +0.000 A 
ATOM      9  C   UNL     1       0.120   9.327  18.076  0.00  0.00    +0.000 A 
ATOM     10  C   UNL     1      -0.745  10.411  18.229  0.00  0.00    +0.000 A 
ATOM     11  C   UNL     1      -0.235  11.679  18.509  0.00  0.00    +0.000 A 
ATOM     12  C   UNL     1       1.141  11.871  18.628  0.00  0.00    +0.000 A 
ATOM     13  C   UNL     1       2.012  10.791  18.480  0.00  0.00    +0.000 A 
ENDBRANCH   5   8
BRANCH   7  14
ATOM     14  N   UNL     1       3.392   5.517  17.466  0.00  0.00    +0.000 N 
ATOM     15  C   UNL     1       4.742   5.163  17.546  0.00  0.00    +0.000 C 
ATOM     16  O   UNL     1       5.377   5.093  18.593  0.00  0.00    +0.000 OA
ATOM     17  H   UNL     1       3.205   6.079  16.640  0.00  0.00    +0.000 HD
BRANCH  15  18
ATOM     18  C   UNL     1       5.413   4.899  16.233  0.00  0.00    +0.000 A 
ATOM     19  C   UNL     1       4.730   4.177  15.246  0.00  0.00    +0.000 A 
ATOM     20  C   UNL     1       5.323   3.949  14.000  0.00  0.00    +0.000 A 
ATOM     21  C   UNL     1       6.600   4.444  13.731  0.00  0.00    +0.000 A 
ATOM     22  C   UNL     1       7.277   5.179  14.702  0.00  0.00    +0.000 A 
ATOM     23  C   UNL     1       6.691   5.405  15.953  0.00  0.00    +0.000 A 
ENDBRANCH  15  18
ENDBRANCH   7  14
BRANCH   1  25
ATOM     24  N   UNL     1       2.498   2.532  19.926  0.00  0.00    +0.000 NA
ATOM     25  C   UNL     1       2.472   3.689  19.817  0.00  0.00    +0.000 C 
ENDBRANCH   1  25
BRANCH   3  26
ATOM     26  C   UNL     1       1.307   8.195  21.038  0.00  0.00    +0.000 C 
ATOM     27  N   UNL     1       0.937   9.061  21.716  0.00  0.00    +0.000 NA
ENDBRANCH   3  26
TORSDOF 5
ENDMDL
MODEL 6
REMARK VINA RESULT:      -6.2      0.968      1.369
REMARK  Name = 
REMARK  5 active torsions:
REMARK  status: ('A' for Active; 'I' for Inactive)
REMARK    1  A    between atoms: C_2  and  C_3
REMARK    2  A    between atoms: C_5  and  C_6
REMARK    3  A    between atoms: C_9  and  C_11
REMARK    4  A    between atoms: C_17  and  N_18
REMARK    5  A    between atoms: C_19  and  C_21
REMARK                            x       y       z     vdW  Elec       q    Type
REMARK                         _______ _______ _______ _____ _____    ______ ____
ROOT
ATOM      1  C   UNL     1       1.899   6.365  20.726  0.00  0.00    +0.000 A 
ATOM      2  N   UNL     1       0.882   7.016  21.377  0.00  0.00    +0.000 NA
ATOM      3  C   UNL     1       0.779   8.195  20.795  0.00  0.00    +0.000 A 
ATOM      4  N   UNL     1       1.612   8.294  19.680  0.00  0.00    +0.000 N 
ATOM      5  C   UNL     1       1.686   9.359  18.758  0.00  0.00    +0.000 C 
ATOM      6  O   UNL     1       2.732   9.481  18.125  0.00  0.00    +0.000 OA
ATOM      7  C   UNL     1       2.386   7.126  19.682  0.00  0.00    +0.000 A 
ENDROOT
BRANCH   5   8
ATOM      8  C   UNL     1       0.573  10.283  18.417  0.00  0.00    +0.000 A 
ATOM      9  C   UNL     1      -0.606   9.784  17.847  0.00  0.00    +0.000 A 
ATOM     10  C   UNL     1      -1.692  10.636  17.637  0.00  0.00    +0.000 A 
ATOM     11  C   UNL     1      -1.607  11.979  18.004  0.00  0.00    +0.000 A 
ATOM     12  C   UNL     1      -0.437  12.479  18.573  0.00  0.00    +0.000 A 
ATOM     13  C   UNL     1       0.651  11.632  18.790  0.00  0.00    +0.000 A 
ENDBRANCH   5   8
BRANCH   7  14
ATOM     14  N   UNL     1       3.343   6.774  18.729  0.00  0.00    +0.000 N 
ATOM     15  C   UNL     1       3.004   5.732  17.861  0.00  0.00    +0.000 C 
ATOM     16  O   UNL     1       1.907   5.185  17.833  0.00  0.00    +0.000 OA
ATOM     17  H   UNL     1       4.306   6.695  19.043  0.00  0.00    +0.000 HD
BRANCH  15  18
ATOM     18  C   UNL     1       4.104   5.271  16.954  0.00  0.00    +0.000 A 
ATOM     19  C   UNL     1       4.328   3.897  16.789  0.00  0.00    +0.000 A 
ATOM     20  C   UNL     1       5.326   3.444  15.921  0.00  0.00    +0.000 A 
ATOM     21  C   UNL     1       6.103   4.358  15.209  0.00  0.00    +0.000 A 
ATOM     22  C   UNL     1       5.873   5.724  15.353  0.00  0.00    +0.000 A 
ATOM     23  C   UNL     1       4.880   6.185  16.226  0.00  0.00    +0.000 A 
ENDBRANCH  15  18
ENDBRANCH   7  14
BRANCH   1  25
ATOM     24  N   UNL     1       2.503   3.904  21.284  0.00  0.00    +0.000 NA
ATOM     25  C   UNL     1       2.248   5.015  21.059  0.00  0.00    +0.000 C 
ENDBRANCH   1  25
BRANCH   3  26
ATOM     26  C   UNL     1      -0.062   9.228  21.310  0.00  0.00    +0.000 C 
ATOM     27  N   UNL     1      -0.722  10.075  21.751  0.00  0.00    +0.000 NA
ENDBRANCH   3  26
TORSDOF 5
ENDMDL
MODEL 7
REMARK VINA RESULT:      -6.2      4.419      6.954
REMARK  Name = 
REMARK  5 active torsions:
REMARK  status: ('A' for Active; 'I' for Inactive)
REMARK    1  A    between atoms: C_2  and  C_3
REMARK    2  A    between atoms: C_5  and  C_6
REMARK    3  A    between atoms: C_9  and  C_11
REMARK    4  A    between atoms: C_17  and  N_18
REMARK    5  A    between atoms: C_19  and  C_21
REMARK                            x       y       z     vdW  Elec       q    Type
REMARK                         _______ _______ _______ _____ _____    ______ ____
ROOT
ATOM      1  C   UNL     1       6.449   4.665  15.902  0.00  0.00    +0.000 A 
ATOM      2  N   UNL     1       5.471   3.709  15.802  0.00  0.00    +0.000 NA
ATOM      3  C   UNL     1       4.958   3.592  17.012  0.00  0.00    +0.000 A 
ATOM      4  N   UNL     1       5.478   4.548  17.886  0.00  0.00    +0.000 N 
ATOM      5  C   UNL     1       5.085   4.792  19.219  0.00  0.00    +0.000 C 
ATOM      6  O   UNL     1       5.905   5.337  19.953  0.00  0.00    +0.000 OA
ATOM      7  C   UNL     1       6.495   5.197  17.174  0.00  0.00    +0.000 A 
ENDROOT
BRANCH   5   8
ATOM      8  C   UNL     1       3.733   4.537  19.780  0.00  0.00    +0.000 A 
ATOM      9  C   UNL     1       2.640   5.307  19.360  0.00  0.00    +0.000 A 
ATOM     10  C   UNL     1       1.355   4.988  19.801  0.00  0.00    +0.000 A 
ATOM     11  C   UNL     1       1.157   3.898  20.648  0.00  0.00    +0.000 A 
ATOM     12  C   UNL     1       2.241   3.128  21.067  0.00  0.00    +0.000 A 
ATOM     13  C   UNL     1       3.528   3.439  20.628  0.00  0.00    +0.000 A 
ENDBRANCH   5   8
BRANCH   7  14
ATOM     14  N   UNL     1       7.277   6.254  17.642  0.00  0.00    +0.000 N 
ATOM     15  C   UNL     1       6.743   7.538  17.493  0.00  0.00    +0.000 C 
ATOM     16  O   UNL     1       5.617   7.773  17.067  0.00  0.00    +0.000 OA
ATOM     17  H   UNL     1       8.267   6.237  17.414  0.00  0.00    +0.000 HD
BRANCH  15  18
ATOM     18  C   UNL     1       7.665   8.661  17.857  0.00  0.00    +0.000 A 
ATOM     19  C   UNL     1       7.487   9.917  17.261  0.00  0.00    +0.000 A 
ATOM     20  C   UNL     1       8.314  10.989  17.612  0.00  0.00    +0.000 A 
ATOM     21  C   UNL     1       9.319  10.815  18.563  0.00  0.00    +0.000 A 
ATOM     22  C   UNL     1       9.490   9.574  19.174  0.00  0.00    +0.000 A 
ATOM     23  C   UNL     1       8.670   8.496  18.821  0.00  0.00    +0.000 A 
ENDBRANCH  15  18
ENDBRANCH   7  14
BRANCH   1  25
ATOM     24  N   UNL     1       7.813   5.473  13.847  0.00  0.00    +0.000 NA
ATOM     25  C   UNL     1       7.182   5.098  14.748  0.00  0.00    +0.000 C 
ENDBRANCH   1  25
BRANCH   3  26
ATOM     26  C   UNL     1       4.023   2.566  17.348  0.00  0.00    +0.000 C 
ATOM     27  N   UNL     1       3.281   1.727  17.650  0.00  0.00    +0.000 NA
ENDBRANCH   3  26
TORSDOF 5
ENDMDL
MODEL 8
REMARK VINA RESULT:      -6.1      0.987      1.366
REMARK  Name = 
REMARK  5 active torsions:
REMARK  status: ('A' for Active; 'I' for Inactive)
REMARK    1  A    between atoms: C_2  and  C_3
REMARK    2  A    between atoms: C_5  and  C_6
REMARK    3  A    between atoms: C_9  and  C_11
REMARK    4  A    between atoms: C_17  and  N_18
REMARK    5  A    between atoms: C_19  and  C_21
REMARK                            x       y       z     vdW  Elec       q    Type
REMARK                         _______ _______ _______ _____ _____    ______ ____
ROOT
ATOM      1  C   UNL     1       1.947   6.178  20.727  0.00  0.00    +0.000 A 
ATOM      2  N   UNL     1       0.929   6.779  21.421  0.00  0.00    +0.000 NA
ATOM      3  C   UNL     1       0.783   7.974  20.881  0.00  0.00    +0.000 A 
ATOM      4  N   UNL     1       1.588   8.131  19.752  0.00  0.00    +0.000 N 
ATOM      5  C   UNL     1       1.614   9.228  18.865  0.00  0.00    +0.000 C 
ATOM      6  O   UNL     1       2.641   9.397  18.213  0.00  0.00    +0.000 OA
ATOM      7  C   UNL     1       2.391   6.984  19.698  0.00  0.00    +0.000 A 
ENDROOT
BRANCH   5   8
ATOM      8  C   UNL     1       0.470  10.132  18.579  0.00  0.00    +0.000 A 
ATOM      9  C   UNL     1       0.533  11.484  18.944  0.00  0.00    +0.000 A 
ATOM     10  C   UNL     1      -0.493  12.353  18.570  0.00  0.00    +0.000 A 
ATOM     11  C   UNL     1      -1.573  11.881  17.825  0.00  0.00    +0.000 A 
ATOM     12  C   UNL     1      -1.639  10.537  17.458  0.00  0.00    +0.000 A 
ATOM     13  C   UNL     1      -0.616   9.663  17.825  0.00  0.00    +0.000 A 
ENDBRANCH   5   8
BRANCH   7  14
ATOM     14  N   UNL     1       3.334   6.689  18.713  0.00  0.00    +0.000 N 
ATOM     15  C   UNL     1       3.013   5.650  17.834  0.00  0.00    +0.000 C 
ATOM     16  O   UNL     1       1.938   5.060  17.825  0.00  0.00    +0.000 OA
ATOM     17  H   UNL     1       4.308   6.643  19.000  0.00  0.00    +0.000 HD
BRANCH  15  18
ATOM     18  C   UNL     1       4.105   5.251  16.890  0.00  0.00    +0.000 A 
ATOM     19  C   UNL     1       4.833   6.245  16.222  0.00  0.00    +0.000 A 
ATOM     20  C   UNL     1       5.880   5.897  15.362  0.00  0.00    +0.000 A 
ATOM     21  C   UNL     1       6.210   4.555  15.168  0.00  0.00    +0.000 A 
ATOM     22  C   UNL     1       5.503   3.563  15.843  0.00  0.00    +0.000 A 
ATOM     23  C   UNL     1       4.449   3.905  16.700  0.00  0.00    +0.000 A 
ENDBRANCH  15  18
ENDBRANCH   7  14
BRANCH   1  25
ATOM     24  N   UNL     1       2.652   3.721  21.180  0.00  0.00    +0.000 NA
ATOM     25  C   UNL     1       2.338   4.827  21.007  0.00  0.00    +0.000 C 
ENDBRANCH   1  25
BRANCH   3  26
ATOM     26  C   UNL     1      -0.072   8.968  21.448  0.00  0.00    +0.000 C 
ATOM     27  N   UNL     1      -0.746   9.776  21.936  0.00  0.00    +0.000 NA
ENDBRANCH   3  26
TORSDOF 5
ENDMDL
MODEL 9
REMARK VINA RESULT:      -6.0      3.088      5.525
REMARK  Name = 
REMARK  5 active torsions:
REMARK  status: ('A' for Active; 'I' for Inactive)
REMARK    1  A    between atoms: C_2  and  C_3
REMARK    2  A    between atoms: C_5  and  C_6
REMARK    3  A    between atoms: C_9  and  C_11
REMARK    4  A    between atoms: C_17  and  N_18
REMARK    5  A    between atoms: C_19  and  C_21
REMARK                            x       y       z     vdW  Elec       q    Type
REMARK                         _______ _______ _______ _____ _____    ______ ____
ROOT
ATOM      1  C   UNL     1      -1.074  11.277  18.260  0.00  0.00    +0.000 A 
ATOM      2  N   UNL     1      -1.356  12.617  18.186  0.00  0.00    +0.000 NA
ATOM      3  C   UNL     1      -0.555  13.201  19.056  0.00  0.00    +0.000 A 
ATOM      4  N   UNL     1       0.352  12.297  19.610  0.00  0.00    +0.000 N 
ATOM      5  C   UNL     1       1.419  12.583  20.487  0.00  0.00    +0.000 C 
ATOM      6  O   UNL     1       1.822  11.665  21.197  0.00  0.00    +0.000 OA
ATOM      7  C   UNL     1      -0.036  11.036  19.138  0.00  0.00    +0.000 A 
ENDROOT
BRANCH   5   8
ATOM      8  C   UNL     1       2.159  13.869  20.553  0.00  0.00    +0.000 A 
ATOM      9  C   UNL     1       2.091  14.663  21.706  0.00  0.00    +0.000 A 
ATOM     10  C   UNL     1       2.879  15.811  21.808  0.00  0.00    +0.000 A 
ATOM     11  C   UNL     1       3.741  16.161  20.769  0.00  0.00    +0.000 A 
ATOM     12  C   UNL     1       3.814  15.373  19.621  0.00  0.00    +0.000 A 
ATOM     13  C   UNL     1       3.032  14.223  19.514  0.00  0.00    +0.000 A 
ENDBRANCH   5   8
BRANCH   7  14
ATOM     14  N   UNL     1       0.604   9.826  19.408  0.00  0.00    +0.000 N 
ATOM     15  C   UNL     1       1.619   9.447  18.525  0.00  0.00    +0.000 C 
ATOM     16  O   UNL     1       2.028  10.144  17.602  0.00  0.00    +0.000 OA
ATOM     17  H   UNL     1       0.018   9.035  19.659  0.00  0.00    +0.000 HD
BRANCH  15  18
ATOM     18  C   UNL     1       2.181   8.076  18.746  0.00  0.00    +0.000 A 
ATOM     19  C   UNL     1       3.031   7.519  17.780  0.00  0.00    +0.000 A 
ATOM     20  C   UNL     1       3.596   6.255  17.982  0.00  0.00    +0.000 A 
ATOM     21  C   UNL     1       3.319   5.542  19.149  0.00  0.00    +0.000 A 
ATOM     22  C   UNL     1       2.490   6.099  20.121  0.00  0.00    +0.000 A 
ATOM     23  C   UNL     1       1.917   7.361  19.922  0.00  0.00    +0.000 A 
ENDBRANCH  15  18
ENDBRANCH   7  14
BRANCH   1  25
ATOM     24  N   UNL     1      -2.290   9.605  16.692  0.00  0.00    +0.000 NA
ATOM     25  C   UNL     1      -1.722  10.334  17.395  0.00  0.00    +0.000 C 
ENDBRANCH   1  25
BRANCH   3  26
ATOM     26  C   UNL     1      -0.673  14.584  19.392  0.00  0.00    +0.000 C 
ATOM     27  N   UNL     1      -0.737  15.713  19.653  0.00  0.00    +0.000 NA
ENDBRANCH   3  26
TORSDOF 5
ENDMDL
