MODEL 1
REMARK VINA RESULT:      -6.9      0.000      0.000
REMARK  Name = 
REMARK  11 active torsions:
REMARK  status: ('A' for Active; 'I' for Inactive)
REMARK    1  A    between atoms: N_1  and  C_2
REMARK    2  A    between atoms: C_2  and  C_3
REMARK    3  A    between atoms: C_3  and  C_4
REMARK    4  A    between atoms: C_4  and  C_5
REMARK    5  A    between atoms: C_5  and  C_6
REMARK    6  A    between atoms: C_6  and  C_7
REMARK    7  A    between atoms: C_6  and  N_15
REMARK    8  A    between atoms: C_17  and  C_18
REMARK    9  A    between atoms: C_18  and  C_19
REMARK   10  A    between atoms: C_19  and  C_20
REMARK   11  A    between atoms: C_20  and  O_22
REMARK                            x       y       z     vdW  Elec       q    Type
REMARK                         _______ _______ _______ _____ _____    ______ ____
ROOT
ATOM      1  C   UNL     1       3.300   6.181  17.962  0.00  0.00    +0.000 C 
ENDROOT
BRANCH   1   2
ATOM      2  C   UNL     1       3.780   5.179  19.024  0.00  0.00    +0.000 C 
ATOM      3  O   UNL     1       4.876   5.346  19.572  0.00  0.00    +0.000 OA
ATOM      4  N   UNL     1       3.034   4.036  19.303  0.00  0.00    +0.000 N 
ATOM      5  C   UNL     1       3.422   3.194  20.441  0.00  0.00    +0.000 C 
ATOM      6  C   UNL     1       2.329   3.228  21.534  0.00  0.00    +0.000 C 
ATOM      7  N   UNL     1       0.990   2.872  21.020  0.00  0.00    +0.000 NA
ATOM      8  C   UNL     1       0.643   3.712  19.857  0.00  0.00    +0.000 C 
ATOM      9  C   UNL     1       1.725   3.658  18.756  0.00  0.00    +0.000 C 
ATOM     10  H   UNL     1       0.303   3.031  21.759  0.00  0.00    +0.000 HD
ENDBRANCH   1   2
BRANCH   1  11
ATOM     11  N   UNL     1       2.426   7.211  18.525  0.00  0.00    +0.000 N 
ATOM     12  C   UNL     1       1.959   8.320  17.874  0.00  0.00    +0.000 A 
ATOM     13  C   UNL     1       1.439   9.102  18.880  0.00  0.00    +0.000 A 
ATOM     14  N   UNL     1       1.566   8.441  20.072  0.00  0.00    +0.000 NA
ATOM     15  N   UNL     1       2.182   7.289  19.845  0.00  0.00    +0.000 NA
BRANCH  13  16
ATOM     16  C   UNL     1       0.878  10.472  18.815  0.00  0.00    +0.000 C 
BRANCH  16  17
ATOM     17  C   UNL     1      -0.567  10.456  18.322  0.00  0.00    +0.000 C 
BRANCH  17  18
ATOM     18  C   UNL     1      -1.218  11.800  18.512  0.00  0.00    +0.000 C 
ATOM     19  O   UNL     1      -1.668  12.222  19.563  0.00  0.00    +0.000 OA
BRANCH  18  20
ATOM     20  O   UNL     1      -1.271  12.514  17.363  0.00  0.00    +0.000 OA
ATOM     21  H   UNL     1      -0.450  12.482  16.835  0.00  0.00    +0.000 HD
ENDBRANCH  18  20
ENDBRANCH  17  18
ENDBRANCH  16  17
ENDBRANCH  13  16
ENDBRANCH   1  11
BRANCH   1  22
ATOM     22  C   UNL     1       4.450   6.926  17.238  0.00  0.00    +0.000 C 
BRANCH  22  23
ATOM     23  C   UNL     1       5.265   6.136  16.209  0.00  0.00    +0.000 C 
BRANCH  23  24
ATOM     24  C   UNL     1       6.746   6.032  16.567  0.00  0.00    +0.000 C 
BRANCH  24  25
ATOM     25  C   UNL     1       7.180   4.579  16.740  0.00  0.00    +0.000 C 
BRANCH  25  26
ATOM     26  N   UNL     1       7.368   4.298  18.158  0.00  0.00    +0.000 NA
ATOM     27  H   UNL     1       8.211   4.768  18.486  0.00  0.00    +0.000 HD
ATOM     28  H   UNL     1       7.528   3.300  18.294  0.00  0.00    +0.000 HD
ENDBRANCH  25  26
ENDBRANCH  24  25
ENDBRANCH  23  24
ENDBRANCH  22  23
ENDBRANCH   1  22
TORSDOF 11
ENDMDL
MODEL 2
REMARK VINA RESULT:      -6.8      2.326      2.620
REMARK  Name = 
REMARK  11 active torsions:
REMARK  status: ('A' for Active; 'I' for Inactive)
REMARK    1  A    between atoms: N_1  and  C_2
REMARK    2  A    between atoms: C_2  and  C_3
REMARK    3  A    between atoms: C_3  and  C_4
REMARK    4  A    between atoms: C_4  and  C_5
REMARK    5  A    between atoms: C_5  and  C_6
REMARK    6  A    between atoms: C_6  and  C_7
REMARK    7  A    between atoms: C_6  and  N_15
REMARK    8  A    between atoms: C_17  and  C_18
REMARK    9  A    between atoms: C_18  and  C_19
REMARK   10  A    between atoms: C_19  and  C_20
REMARK   11  A    between atoms: C_20  and  O_22
REMARK                            x       y       z     vdW  Elec       q    Type
REMARK                         _______ _______ _______ _____ _____    ______ ____
ROOT
ATOM      1  C   UNL     1       3.259   6.086  17.909  0.00  0.00    +0.000 C 
ENDROOT
BRANCH   1   2
ATOM      2  C   UNL     1       3.710   5.191  19.075  0.00  0.00    +0.000 C 
ATOM      3  O   UNL     1       4.744   5.468  19.695  0.00  0.00    +0.000 OA
ATOM      4  N   UNL     1       3.014   4.023  19.377  0.00  0.00    +0.000 N 
ATOM      5  C   UNL     1       3.356   3.287  20.600  0.00  0.00    +0.000 C 
ATOM      6  C   UNL     1       2.176   3.321  21.598  0.00  0.00    +0.000 C 
ATOM      7  N   UNL     1       0.908   2.843  21.007  0.00  0.00    +0.000 NA
ATOM      8  C   UNL     1       0.610   3.578  19.763  0.00  0.00    +0.000 C 
ATOM      9  C   UNL     1       1.781   3.523  18.757  0.00  0.00    +0.000 C 
ATOM     10  H   UNL     1       0.155   3.005  21.676  0.00  0.00    +0.000 HD
ENDBRANCH   1   2
BRANCH   1  11
ATOM     11  N   UNL     1       2.717   7.365  18.368  0.00  0.00    +0.000 N 
ATOM     12  C   UNL     1       2.033   7.584  19.533  0.00  0.00    +0.000 A 
ATOM     13  C   UNL     1       1.497   8.841  19.372  0.00  0.00    +0.000 A 
ATOM     14  N   UNL     1       1.895   9.347  18.165  0.00  0.00    +0.000 NA
ATOM     15  N   UNL     1       2.633   8.431  17.552  0.00  0.00    +0.000 NA
BRANCH  13  16
ATOM     16  C   UNL     1       0.571   9.590  20.255  0.00  0.00    +0.000 C 
BRANCH  16  17
ATOM     17  C   UNL     1       0.186   8.766  21.481  0.00  0.00    +0.000 C 
BRANCH  17  18
ATOM     18  C   UNL     1       0.742   9.378  22.739  0.00  0.00    +0.000 C 
ATOM     19  O   UNL     1       0.085   9.934  23.601  0.00  0.00    +0.000 OA
BRANCH  18  20
ATOM     20  O   UNL     1       2.088   9.260  22.818  0.00  0.00    +0.000 OA
ATOM     21  H   UNL     1       2.495   8.809  22.053  0.00  0.00    +0.000 HD
ENDBRANCH  18  20
ENDBRANCH  17  18
ENDBRANCH  16  17
ENDBRANCH  13  16
ENDBRANCH   1  11
BRANCH   1  22
ATOM     22  C   UNL     1       4.390   6.420  16.903  0.00  0.00    +0.000 C 
BRANCH  22  23
ATOM     23  C   UNL     1       5.247   5.258  16.392  0.00  0.00    +0.000 C 
BRANCH  23  24
ATOM     24  C   UNL     1       5.647   5.407  14.926  0.00  0.00    +0.000 C 
BRANCH  24  25
ATOM     25  C   UNL     1       6.918   4.624  14.609  0.00  0.00    +0.000 C 
BRANCH  25  26
ATOM     26  N   UNL     1       7.887   5.512  13.978  0.00  0.00    +0.000 NA
ATOM     27  H   UNL     1       8.688   5.632  14.597  0.00  0.00    +0.000 HD
ATOM     28  H   UNL     1       7.479   6.439  13.858  0.00  0.00    +0.000 HD
ENDBRANCH  25  26
ENDBRANCH  24  25
ENDBRANCH  23  24
ENDBRANCH  22  23
ENDBRANCH   1  22
TORSDOF 11
ENDMDL
MODEL 3
REMARK VINA RESULT:      -6.8      1.338      1.483
REMARK  Name = 
REMARK  11 active torsions:
REMARK  status: ('A' for Active; 'I' for Inactive)
REMARK    1  A    between atoms: N_1  and  C_2
REMARK    2  A    between atoms: C_2  and  C_3
REMARK    3  A    between atoms: C_3  and  C_4
REMARK    4  A    between atoms: C_4  and  C_5
REMARK    5  A    between atoms: C_5  and  C_6
REMARK    6  A    between atoms: C_6  and  C_7
REMARK    7  A    between atoms: C_6  and  N_15
REMARK    8  A    between atoms: C_17  and  C_18
REMARK    9  A    between atoms: C_18  and  C_19
REMARK   10  A    between atoms: C_19  and  C_20
REMARK   11  A    between atoms: C_20  and  O_22
REMARK                            x       y       z     vdW  Elec       q    Type
REMARK                         _______ _______ _______ _____ _____    ______ ____
ROOT
ATOM      1  C   UNL     1       3.359   6.095  18.002  0.00  0.00    +0.000 C 
ENDROOT
BRANCH   1   2
ATOM      2  C   UNL     1       3.849   5.010  18.974  0.00  0.00    +0.000 C 
ATOM      3  O   UNL     1       4.986   5.088  19.456  0.00  0.00    +0.000 OA
ATOM      4  N   UNL     1       3.059   3.895  19.242  0.00  0.00    +0.000 N 
ATOM      5  C   UNL     1       3.471   2.970  20.305  0.00  0.00    +0.000 C 
ATOM      6  C   UNL     1       2.453   2.999  21.469  0.00  0.00    +0.000 C 
ATOM      7  N   UNL     1       1.066   2.745  21.027  0.00  0.00    +0.000 NA
ATOM      8  C   UNL     1       0.694   3.666  19.937  0.00  0.00    +0.000 C 
ATOM      9  C   UNL     1       1.698   3.618  18.764  0.00  0.00    +0.000 C 
ATOM     10  H   UNL     1       0.439   2.897  21.818  0.00  0.00    +0.000 HD
ENDBRANCH   1   2
BRANCH   1  11
ATOM     11  N   UNL     1       2.493   7.077  18.655  0.00  0.00    +0.000 N 
ATOM     12  C   UNL     1       2.069   8.264  18.122  0.00  0.00    +0.000 A 
ATOM     13  C   UNL     1       1.538   8.940  19.196  0.00  0.00    +0.000 A 
ATOM     14  N   UNL     1       1.618   8.147  20.309  0.00  0.00    +0.000 NA
ATOM     15  N   UNL     1       2.215   7.013  19.969  0.00  0.00    +0.000 NA
BRANCH  13  16
ATOM     16  C   UNL     1       1.009  10.323  19.272  0.00  0.00    +0.000 C 
BRANCH  16  17
ATOM     17  C   UNL     1      -0.117  10.429  20.298  0.00  0.00    +0.000 C 
BRANCH  17  18
ATOM     18  C   UNL     1       0.344  11.153  21.534  0.00  0.00    +0.000 C 
ATOM     19  O   UNL     1       0.016  10.879  22.674  0.00  0.00    +0.000 OA
BRANCH  18  20
ATOM     20  O   UNL     1       1.176  12.182  21.247  0.00  0.00    +0.000 OA
ATOM     21  H   UNL     1       1.931  11.938  20.678  0.00  0.00    +0.000 HD
ENDBRANCH  18  20
ENDBRANCH  17  18
ENDBRANCH  16  17
ENDBRANCH  13  16
ENDBRANCH   1  11
BRANCH   1  22
ATOM     22  C   UNL     1       4.503   6.895  17.328  0.00  0.00    +0.000 C 
BRANCH  22  23
ATOM     23  C   UNL     1       5.258   6.217  16.181  0.00  0.00    +0.000 C 
BRANCH  23  24
ATOM     24  C   UNL     1       6.740   6.005  16.480  0.00  0.00    +0.000 C 
BRANCH  24  25
ATOM     25  C   UNL     1       7.066   4.527  16.680  0.00  0.00    +0.000 C 
BRANCH  25  26
ATOM     26  N   UNL     1       7.585   4.326  18.027  0.00  0.00    +0.000 NA
ATOM     27  H   UNL     1       7.436   3.357  18.305  0.00  0.00    +0.000 HD
ATOM     28  H   UNL     1       7.060   4.896  18.689  0.00  0.00    +0.000 HD
ENDBRANCH  25  26
ENDBRANCH  24  25
ENDBRANCH  23  24
ENDBRANCH  22  23
ENDBRANCH   1  22
TORSDOF 11
ENDMDL
MODEL 4
REMARK VINA RESULT:      -6.8      1.033      1.292
REMARK  Name = 
REMARK  11 active torsions:
REMARK  status: ('A' for Active; 'I' for Inactive)
REMARK    1  A    between atoms: N_1  and  C_2
REMARK    2  A    between atoms: C_2  and  C_3
REMARK    3  A    between atoms: C_3  and  C_4
REMARK    4  A    between atoms: C_4  and  C_5
REMARK    5  A    between atoms: C_5  and  C_6
REMARK    6  A    between atoms: C_6  and  C_7
REMARK    7  A    between atoms: C_6  and  N_15
REMARK    8  A    between atoms: C_17  and  C_18
REMARK    9  A    between atoms: C_18  and  C_19
REMARK   10  A    between atoms: C_19  and  C_20
REMARK   11  A    between atoms: C_20  and  O_22
REMARK                            x       y       z     vdW  Elec       q    Type
REMARK                         _______ _______ _______ _____ _____    ______ ____
ROOT
ATOM      1  C   UNL     1       3.593   5.372  17.710  0.00  0.00    +0.000 C 
ENDROOT
BRANCH   1   2
ATOM      2  C   UNL     1       3.973   4.381  18.821  0.00  0.00    +0.000 C 
ATOM      3  O   UNL     1       5.121   4.385  19.280  0.00  0.00    +0.000 OA
ATOM      4  N   UNL     1       3.060   3.419  19.249  0.00  0.00    +0.000 N 
ATOM      5  C   UNL     1       3.383   2.607  20.428  0.00  0.00    +0.000 C 
ATOM      6  C   UNL     1       2.404   2.922  21.583  0.00  0.00    +0.000 C 
ATOM      7  N   UNL     1       0.987   2.780  21.191  0.00  0.00    +0.000 NA
ATOM      8  C   UNL     1       0.702   3.580  19.985  0.00  0.00    +0.000 C 
ATOM      9  C   UNL     1       1.665   3.247  18.824  0.00  0.00    +0.000 C 
ATOM     10  H   UNL     1       0.401   3.116  21.957  0.00  0.00    +0.000 HD
ENDBRANCH   1   2
BRANCH   1  11
ATOM     11  N   UNL     1       2.817   6.505  18.216  0.00  0.00    +0.000 N 
ATOM     12  C   UNL     1       2.449   7.615  17.505  0.00  0.00    +0.000 A 
ATOM     13  C   UNL     1       2.004   8.493  18.467  0.00  0.00    +0.000 A 
ATOM     14  N   UNL     1       2.077   7.889  19.693  0.00  0.00    +0.000 NA
ATOM     15  N   UNL     1       2.587   6.676  19.529  0.00  0.00    +0.000 NA
BRANCH  13  16
ATOM     16  C   UNL     1       1.567   9.903  18.328  0.00  0.00    +0.000 C 
BRANCH  16  17
ATOM     17  C   UNL     1       0.045  10.016  18.361  0.00  0.00    +0.000 C 
BRANCH  17  18
ATOM     18  C   UNL     1      -0.431  10.513  19.699  0.00  0.00    +0.000 C 
ATOM     19  O   UNL     1      -0.806  11.647  19.937  0.00  0.00    +0.000 OA
BRANCH  18  20
ATOM     20  O   UNL     1      -0.387   9.551  20.651  0.00  0.00    +0.000 OA
ATOM     21  H   UNL     1      -0.331   9.895  21.564  0.00  0.00    +0.000 HD
ENDBRANCH  18  20
ENDBRANCH  17  18
ENDBRANCH  16  17
ENDBRANCH  13  16
ENDBRANCH   1  11
BRANCH   1  22
ATOM     22  C   UNL     1       4.812   5.971  16.962  0.00  0.00    +0.000 C 
BRANCH  22  23
ATOM     23  C   UNL     1       5.285   5.254  15.694  0.00  0.00    +0.000 C 
BRANCH  23  24
ATOM     24  C   UNL     1       6.725   4.755  15.788  0.00  0.00    +0.000 C 
BRANCH  24  25
ATOM     25  C   UNL     1       7.411   5.259  17.056  0.00  0.00    +0.000 C 
BRANCH  25  26
ATOM     26  N   UNL     1       8.062   4.141  17.728  0.00  0.00    +0.000 NA
ATOM     27  H   UNL     1       8.264   4.400  18.693  0.00  0.00    +0.000 HD
ATOM     28  H   UNL     1       8.962   3.951  17.289  0.00  0.00    +0.000 HD
ENDBRANCH  25  26
ENDBRANCH  24  25
ENDBRANCH  23  24
ENDBRANCH  22  23
ENDBRANCH   1  22
TORSDOF 11
ENDMDL
MODEL 5
REMARK VINA RESULT:      -6.7      4.064      5.825
REMARK  Name = 
REMARK  11 active torsions:
REMARK  status: ('A' for Active; 'I' for Inactive)
REMARK    1  A    between atoms: N_1  and  C_2
REMARK    2  A    between atoms: C_2  and  C_3
REMARK    3  A    between atoms: C_3  and  C_4
REMARK    4  A    between atoms: C_4  and  C_5
REMARK    5  A    between atoms: C_5  and  C_6
REMARK    6  A    between atoms: C_6  and  C_7
REMARK    7  A    between atoms: C_6  and  N_15
REMARK    8  A    between atoms: C_17  and  C_18
REMARK    9  A    between atoms: C_18  and  C_19
REMARK   10  A    between atoms: C_19  and  C_20
REMARK   11  A    between atoms: C_20  and  O_22
REMARK                            x       y       z     vdW  Elec       q    Type
REMARK                         _______ _______ _______ _____ _____    ______ ____
ROOT
ATOM      1  C   UNL     1       4.826   4.617  16.674  0.00  0.00    +0.000 C 
ENDROOT
BRANCH   1   2
ATOM      2  C   UNL     1       3.822   3.753  17.455  0.00  0.00    +0.000 C 
ATOM      3  O   UNL     1       3.942   2.522  17.453  0.00  0.00    +0.000 OA
ATOM      4  N   UNL     1       2.728   4.341  18.086  0.00  0.00    +0.000 N 
ATOM      5  C   UNL     1       1.891   3.520  18.969  0.00  0.00    +0.000 C 
ATOM      6  C   UNL     1       2.007   4.011  20.431  0.00  0.00    +0.000 C 
ATOM      7  N   UNL     1       1.714   5.451  20.580  0.00  0.00    +0.000 NA
ATOM      8  C   UNL     1       2.545   6.246  19.656  0.00  0.00    +0.000 C 
ATOM      9  C   UNL     1       2.410   5.770  18.193  0.00  0.00    +0.000 C 
ATOM     10  H   UNL     1       1.925   5.730  21.539  0.00  0.00    +0.000 HD
ENDBRANCH   1   2
BRANCH   1  11
ATOM     11  N   UNL     1       5.861   5.185  17.539  0.00  0.00    +0.000 N 
ATOM     12  C   UNL     1       6.261   6.494  17.569  0.00  0.00    +0.000 A 
ATOM     13  C   UNL     1       7.421   6.469  18.308  0.00  0.00    +0.000 A 
ATOM     14  N   UNL     1       7.660   5.188  18.726  0.00  0.00    +0.000 NA
ATOM     15  N   UNL     1       6.705   4.407  18.239  0.00  0.00    +0.000 NA
BRANCH  13  16
ATOM     16  C   UNL     1       8.373   7.566  18.605  0.00  0.00    +0.000 C 
BRANCH  16  17
ATOM     17  C   UNL     1       8.014   8.835  17.835  0.00  0.00    +0.000 C 
BRANCH  17  18
ATOM     18  C   UNL     1       8.735  10.031  18.397  0.00  0.00    +0.000 C 
ATOM     19  O   UNL     1       8.761  11.138  17.892  0.00  0.00    +0.000 OA
BRANCH  18  20
ATOM     20  O   UNL     1       9.385   9.745  19.550  0.00  0.00    +0.000 OA
ATOM     21  H   UNL     1       9.195   8.855  19.905  0.00  0.00    +0.000 HD
ENDBRANCH  18  20
ENDBRANCH  17  18
ENDBRANCH  16  17
ENDBRANCH  13  16
ENDBRANCH   1  11
BRANCH   1  22
ATOM     22  C   UNL     1       5.565   3.853  15.545  0.00  0.00    +0.000 C 
BRANCH  22  23
ATOM     23  C   UNL     1       5.363   4.347  14.110  0.00  0.00    +0.000 C 
BRANCH  23  24
ATOM     24  C   UNL     1       6.439   3.849  13.147  0.00  0.00    +0.000 C 
BRANCH  24  25
ATOM     25  C   UNL     1       5.864   2.875  12.121  0.00  0.00    +0.000 C 
BRANCH  25  26
ATOM     26  N   UNL     1       4.548   3.339  11.701  0.00  0.00    +0.000 NA
ATOM     27  H   UNL     1       3.879   3.183  12.454  0.00  0.00    +0.000 HD
ATOM     28  H   UNL     1       4.222   2.783  10.911  0.00  0.00    +0.000 HD
ENDBRANCH  25  26
ENDBRANCH  24  25
ENDBRANCH  23  24
ENDBRANCH  22  23
ENDBRANCH   1  22
TORSDOF 11
ENDMDL
MODEL 6
REMARK VINA RESULT:      -6.7      1.912      4.546
REMARK  Name = 
REMARK  11 active torsions:
REMARK  status: ('A' for Active; 'I' for Inactive)
REMARK    1  A    between atoms: N_1  and  C_2
REMARK    2  A    between atoms: C_2  and  C_3
REMARK    3  A    between atoms: C_3  and  C_4
REMARK    4  A    between atoms: C_4  and  C_5
REMARK    5  A    between atoms: C_5  and  C_6
REMARK    6  A    between atoms: C_6  and  C_7
REMARK    7  A    between atoms: C_6  and  N_15
REMARK    8  A    between atoms: C_17  and  C_18
REMARK    9  A    between atoms: C_18  and  C_19
REMARK   10  A    between atoms: C_19  and  C_20
REMARK   11  A    between atoms: C_20  and  O_22
REMARK                            x       y       z     vdW  Elec       q    Type
REMARK                         _______ _______ _______ _____ _____    ______ ____
ROOT
ATOM      1  C   UNL     1       3.234   5.863  19.203  0.00  0.00    +0.000 C 
ENDROOT
BRANCH   1   2
ATOM      2  C   UNL     1       3.623   5.002  17.991  0.00  0.00    +0.000 C 
ATOM      3  O   UNL     1       2.746   4.401  17.359  0.00  0.00    +0.000 OA
ATOM      4  N   UNL     1       4.963   4.821  17.657  0.00  0.00    +0.000 N 
ATOM      5  C   UNL     1       5.297   4.147  16.396  0.00  0.00    +0.000 C 
ATOM      6  C   UNL     1       5.997   5.129  15.429  0.00  0.00    +0.000 C 
ATOM      7  N   UNL     1       7.177   5.786  16.028  0.00  0.00    +0.000 NA
ATOM      8  C   UNL     1       6.817   6.424  17.309  0.00  0.00    +0.000 C 
ATOM      9  C   UNL     1       6.140   5.436  18.284  0.00  0.00    +0.000 C 
ATOM     10  H   UNL     1       7.515   6.502  15.385  0.00  0.00    +0.000 HD
ENDBRANCH   1   2
BRANCH   1  11
ATOM     11  N   UNL     1       2.813   7.210  18.817  0.00  0.00    +0.000 N 
ATOM     12  C   UNL     1       1.901   7.992  19.472  0.00  0.00    +0.000 A 
ATOM     13  C   UNL     1       1.640   9.012  18.586  0.00  0.00    +0.000 A 
ATOM     14  N   UNL     1       2.412   8.843  17.468  0.00  0.00    +0.000 NA
ATOM     15  N   UNL     1       3.119   7.730  17.615  0.00  0.00    +0.000 NA
BRANCH  13  16
ATOM     16  C   UNL     1       0.658  10.118  18.684  0.00  0.00    +0.000 C 
BRANCH  16  17
ATOM     17  C   UNL     1       1.238  11.308  19.445  0.00  0.00    +0.000 C 
BRANCH  17  18
ATOM     18  C   UNL     1       1.657  12.402  18.499  0.00  0.00    +0.000 C 
ATOM     19  O   UNL     1       1.329  13.572  18.587  0.00  0.00    +0.000 OA
BRANCH  18  20
ATOM     20  O   UNL     1       2.447  11.944  17.500  0.00  0.00    +0.000 OA
ATOM     21  H   UNL     1       2.045  12.007  16.612  0.00  0.00    +0.000 HD
ENDBRANCH  18  20
ENDBRANCH  17  18
ENDBRANCH  16  17
ENDBRANCH  13  16
ENDBRANCH   1  11
BRANCH   1  22
ATOM     22  C   UNL     1       2.080   5.266  20.050  0.00  0.00    +0.000 C 
BRANCH  22  23
ATOM     23  C   UNL     1       2.344   3.938  20.766  0.00  0.00    +0.000 C 
BRANCH  23  24
ATOM     24  C   UNL     1       1.136   3.003  20.760  0.00  0.00    +0.000 C 
BRANCH  24  25
ATOM     25  C   UNL     1       0.776   2.562  19.344  0.00  0.00    +0.000 C 
BRANCH  25  26
ATOM     26  N   UNL     1       1.874   1.780  18.788  0.00  0.00    +0.000 NA
ATOM     27  H   UNL     1       2.104   1.020  19.428  0.00  0.00    +0.000 HD
ATOM     28  H   UNL     1       2.710   2.358  18.720  0.00  0.00    +0.000 HD
ENDBRANCH  25  26
ENDBRANCH  24  25
ENDBRANCH  23  24
ENDBRANCH  22  23
ENDBRANCH   1  22
TORSDOF 11
ENDMDL
MODEL 7
REMARK VINA RESULT:      -6.6      1.655      4.300
REMARK  Name = 
REMARK  11 active torsions:
REMARK  status: ('A' for Active; 'I' for Inactive)
REMARK    1  A    between atoms: N_1  and  C_2
REMARK    2  A    between atoms: C_2  and  C_3
REMARK    3  A    between atoms: C_3  and  C_4
REMARK    4  A    between atoms: C_4  and  C_5
REMARK    5  A    between atoms: C_5  and  C_6
REMARK    6  A    between atoms: C_6  and  C_7
REMARK    7  A    between atoms: C_6  and  N_15
REMARK    8  A    between atoms: C_17  and  C_18
REMARK    9  A    between atoms: C_18  and  C_19
REMARK   10  A    between atoms: C_19  and  C_20
REMARK   11  A    between atoms: C_20  and  O_22
REMARK                            x       y       z     vdW  Elec       q    Type
REMARK                         _______ _______ _______ _____ _____    ______ ____
ROOT
ATOM      1  C   UNL     1       2.878   6.128  19.573  0.00  0.00    +0.000 C 
ENDROOT
BRANCH   1   2
ATOM      2  C   UNL     1       3.148   5.350  18.275  0.00  0.00    +0.000 C 
ATOM      3  O   UNL     1       2.202   4.858  17.648  0.00  0.00    +0.000 OA
ATOM      4  N   UNL     1       4.455   5.118  17.852  0.00  0.00    +0.000 N 
ATOM      5  C   UNL     1       4.679   4.534  16.524  0.00  0.00    +0.000 C 
ATOM      6  C   UNL     1       5.390   5.550  15.601  0.00  0.00    +0.000 C 
ATOM      7  N   UNL     1       6.639   6.082  16.184  0.00  0.00    +0.000 NA
ATOM      8  C   UNL     1       6.387   6.631  17.530  0.00  0.00    +0.000 C 
ATOM      9  C   UNL     1       5.699   5.607  18.459  0.00  0.00    +0.000 C 
ATOM     10  H   UNL     1       6.988   6.829  15.582  0.00  0.00    +0.000 HD
ENDBRANCH   1   2
BRANCH   1  11
ATOM     11  N   UNL     1       2.382   7.481  19.318  0.00  0.00    +0.000 N 
ATOM     12  C   UNL     1       1.580   8.218  20.146  0.00  0.00    +0.000 A 
ATOM     13  C   UNL     1       1.164   9.267  19.358  0.00  0.00    +0.000 A 
ATOM     14  N   UNL     1       1.744   9.158  18.123  0.00  0.00    +0.000 NA
ATOM     15  N   UNL     1       2.479   8.054  18.105  0.00  0.00    +0.000 NA
BRANCH  13  16
ATOM     16  C   UNL     1       0.197  10.349  19.662  0.00  0.00    +0.000 C 
BRANCH  16  17
ATOM     17  C   UNL     1       0.416  11.558  18.755  0.00  0.00    +0.000 C 
BRANCH  17  18
ATOM     18  C   UNL     1      -0.832  12.393  18.658  0.00  0.00    +0.000 C 
ATOM     19  O   UNL     1      -1.588  12.640  19.580  0.00  0.00    +0.000 OA
BRANCH  18  20
ATOM     20  O   UNL     1      -1.051  12.848  17.401  0.00  0.00    +0.000 OA
ATOM     21  H   UNL     1      -0.840  12.201  16.700  0.00  0.00    +0.000 HD
ENDBRANCH  18  20
ENDBRANCH  17  18
ENDBRANCH  16  17
ENDBRANCH  13  16
ENDBRANCH   1  11
BRANCH   1  22
ATOM     22  C   UNL     1       1.843   5.448  20.506  0.00  0.00    +0.000 C 
BRANCH  22  23
ATOM     23  C   UNL     1       2.214   4.084  21.096  0.00  0.00    +0.000 C 
BRANCH  23  24
ATOM     24  C   UNL     1       1.233   2.978  20.714  0.00  0.00    +0.000 C 
BRANCH  24  25
ATOM     25  C   UNL     1       1.800   2.079  19.618  0.00  0.00    +0.000 C 
BRANCH  25  26
ATOM     26  N   UNL     1       0.923   2.126  18.454  0.00  0.00    +0.000 NA
ATOM     27  H   UNL     1      -0.013   1.825  18.725  0.00  0.00    +0.000 HD
ATOM     28  H   UNL     1       1.244   1.459  17.753  0.00  0.00    +0.000 HD
ENDBRANCH  25  26
ENDBRANCH  24  25
ENDBRANCH  23  24
ENDBRANCH  22  23
ENDBRANCH   1  22
TORSDOF 11
ENDMDL
MODEL 8
REMARK VINA RESULT:      -6.6      1.832      4.579
REMARK  Name = 
REMARK  11 active torsions:
REMARK  status: ('A' for Active; 'I' for Inactive)
REMARK    1  A    between atoms: N_1  and  C_2
REMARK    2  A    between atoms: C_2  and  C_3
REMARK    3  A    between atoms: C_3  and  C_4
REMARK    4  A    between atoms: C_4  and  C_5
REMARK    5  A    between atoms: C_5  and  C_6
REMARK    6  A    between atoms: C_6  and  C_7
REMARK    7  A    between atoms: C_6  and  N_15
REMARK    8  A    between atoms: C_17  and  C_18
REMARK    9  A    between atoms: C_18  and  C_19
REMARK   10  A    between atoms: C_19  and  C_20
REMARK   11  A    between atoms: C_20  and  O_22
REMARK                            x       y       z     vdW  Elec       q    Type
REMARK                         _______ _______ _______ _____ _____    ______ ____
ROOT
ATOM      1  C   UNL     1       3.213   5.859  19.275  0.00  0.00    +0.000 C 
ENDROOT
BRANCH   1   2
ATOM      2  C   UNL     1       3.721   5.008  18.100  0.00  0.00    +0.000 C 
ATOM      3  O   UNL     1       2.919   4.338  17.438  0.00  0.00    +0.000 OA
ATOM      4  N   UNL     1       5.086   4.914  17.836  0.00  0.00    +0.000 N 
ATOM      5  C   UNL     1       5.528   4.244  16.607  0.00  0.00    +0.000 C 
ATOM      6  C   UNL     1       6.207   5.256  15.656  0.00  0.00    +0.000 C 
ATOM      7  N   UNL     1       7.308   6.002  16.300  0.00  0.00    +0.000 NA
ATOM      8  C   UNL     1       6.841   6.635  17.548  0.00  0.00    +0.000 C 
ATOM      9  C   UNL     1       6.185   5.618  18.508  0.00  0.00    +0.000 C 
ATOM     10  H   UNL     1       7.628   6.730  15.659  0.00  0.00    +0.000 HD
ENDBRANCH   1   2
BRANCH   1  11
ATOM     11  N   UNL     1       2.795   7.196  18.853  0.00  0.00    +0.000 N 
ATOM     12  C   UNL     1       1.843   7.974  19.455  0.00  0.00    +0.000 A 
ATOM     13  C   UNL     1       1.612   8.980  18.545  0.00  0.00    +0.000 A 
ATOM     14  N   UNL     1       2.438   8.808  17.467  0.00  0.00    +0.000 NA
ATOM     15  N   UNL     1       3.151   7.706  17.660  0.00  0.00    +0.000 NA
BRANCH  13  16
ATOM     16  C   UNL     1       0.613  10.074  18.582  0.00  0.00    +0.000 C 
BRANCH  16  17
ATOM     17  C   UNL     1       1.124  11.263  19.394  0.00  0.00    +0.000 C 
BRANCH  17  18
ATOM     18  C   UNL     1       0.424  11.350  20.723  0.00  0.00    +0.000 C 
ATOM     19  O   UNL     1      -0.647  11.896  20.920  0.00  0.00    +0.000 OA
BRANCH  18  20
ATOM     20  O   UNL     1       1.128  10.757  21.716  0.00  0.00    +0.000 OA
ATOM     21  H   UNL     1       2.044  10.522  21.471  0.00  0.00    +0.000 HD
ENDBRANCH  18  20
ENDBRANCH  17  18
ENDBRANCH  16  17
ENDBRANCH  13  16
ENDBRANCH   1  11
BRANCH   1  22
ATOM     22  C   UNL     1       2.008   5.235  20.025  0.00  0.00    +0.000 C 
BRANCH  22  23
ATOM     23  C   UNL     1       2.307   4.142  21.055  0.00  0.00    +0.000 C 
BRANCH  23  24
ATOM     24  C   UNL     1       1.357   2.950  20.957  0.00  0.00    +0.000 C 
BRANCH  24  25
ATOM     25  C   UNL     1       0.807   2.786  19.543  0.00  0.00    +0.000 C 
BRANCH  25  26
ATOM     26  N   UNL     1       1.625   1.822  18.816  0.00  0.00    +0.000 NA
ATOM     27  H   UNL     1       2.357   1.470  19.431  0.00  0.00    +0.000 HD
ATOM     28  H   UNL     1       2.101   2.286  18.043  0.00  0.00    +0.000 HD
ENDBRANCH  25  26
ENDBRANCH  24  25
ENDBRANCH  23  24
ENDBRANCH  22  23
ENDBRANCH   1  22
TORSDOF 11
ENDMDL
MODEL 9
REMARK VINA RESULT:      -6.6      1.878      2.197
REMARK  Name = 
REMARK  11 active torsions:
REMARK  status: ('A' for Active; 'I' for Inactive)
REMARK    1  A    between atoms: N_1  and  C_2
REMARK    2  A    between atoms: C_2  and  C_3
REMARK    3  A    between atoms: C_3  and  C_4
REMARK    4  A    between atoms: C_4  and  C_5
REMARK    5  A    between atoms: C_5  and  C_6
REMARK    6  A    between atoms: C_6  and  C_7
REMARK    7  A    between atoms: C_6  and  N_15
REMARK    8  A    between atoms: C_17  and  C_18
REMARK    9  A    between atoms: C_18  and  C_19
REMARK   10  A    between atoms: C_19  and  C_20
REMARK   11  A    between atoms: C_20  and  O_22
REMARK                            x       y       z     vdW  Elec       q    Type
REMARK                         _______ _______ _______ _____ _____    ______ ____
ROOT
ATOM      1  C   UNL     1       3.495   6.141  18.080  0.00  0.00    +0.000 C 
ENDROOT
BRANCH   1   2
ATOM      2  C   UNL     1       3.940   4.987  18.992  0.00  0.00    +0.000 C 
ATOM      3  O   UNL     1       5.085   4.983  19.459  0.00  0.00    +0.000 OA
ATOM      4  N   UNL     1       3.095   3.902  19.220  0.00  0.00    +0.000 N 
ATOM      5  C   UNL     1       3.472   2.908  20.232  0.00  0.00    +0.000 C 
ATOM      6  C   UNL     1       2.473   2.935  21.412  0.00  0.00    +0.000 C 
ATOM      7  N   UNL     1       1.069   2.774  20.981  0.00  0.00    +0.000 NA
ATOM      8  C   UNL     1       0.731   3.764  19.941  0.00  0.00    +0.000 C 
ATOM      9  C   UNL     1       1.716   3.720  18.752  0.00  0.00    +0.000 C 
ATOM     10  H   UNL     1       0.460   2.921  21.787  0.00  0.00    +0.000 HD
ENDBRANCH   1   2
BRANCH   1  11
ATOM     11  N   UNL     1       2.781   7.187  18.813  0.00  0.00    +0.000 N 
ATOM     12  C   UNL     1       2.265   7.080  20.076  0.00  0.00    +0.000 A 
ATOM     13  C   UNL     1       1.461   8.191  20.201  0.00  0.00    +0.000 A 
ATOM     14  N   UNL     1       1.546   8.936  19.056  0.00  0.00    +0.000 NA
ATOM     15  N   UNL     1       2.348   8.306  18.208  0.00  0.00    +0.000 NA
BRANCH  13  16
ATOM     16  C   UNL     1       0.556   8.580  21.308  0.00  0.00    +0.000 C 
BRANCH  16  17
ATOM     17  C   UNL     1      -0.165   9.890  20.999  0.00  0.00    +0.000 C 
BRANCH  17  18
ATOM     18  C   UNL     1      -0.075  10.843  22.161  0.00  0.00    +0.000 C 
ATOM     19  O   UNL     1       0.010  12.055  22.073  0.00  0.00    +0.000 OA
BRANCH  18  20
ATOM     20  O   UNL     1      -0.083  10.203  23.354  0.00  0.00    +0.000 OA
ATOM     21  H   UNL     1       0.279   9.296  23.323  0.00  0.00    +0.000 HD
ENDBRANCH  18  20
ENDBRANCH  17  18
ENDBRANCH  16  17
ENDBRANCH  13  16
ENDBRANCH   1  11
BRANCH   1  22
ATOM     22  C   UNL     1       4.664   6.840  17.339  0.00  0.00    +0.000 C 
BRANCH  22  23
ATOM     23  C   UNL     1       5.037   6.311  15.951  0.00  0.00    +0.000 C 
BRANCH  23  24
ATOM     24  C   UNL     1       5.167   4.790  15.903  0.00  0.00    +0.000 C 
BRANCH  24  25
ATOM     25  C   UNL     1       6.628   4.356  15.818  0.00  0.00    +0.000 C 
BRANCH  25  26
ATOM     26  N   UNL     1       7.407   5.408  15.178  0.00  0.00    +0.000 NA
ATOM     27  H   UNL     1       8.114   5.748  15.830  0.00  0.00    +0.000 HD
ATOM     28  H   UNL     1       6.807   6.205  14.970  0.00  0.00    +0.000 HD
ENDBRANCH  25  26
ENDBRANCH  24  25
ENDBRANCH  23  24
ENDBRANCH  22  23
ENDBRANCH   1  22
TORSDOF 11
ENDMDL
