MODEL 1
REMARK VINA RESULT:      -8.1      0.000      0.000
REMARK  Name = 
REMARK  7 active torsions:
REMARK  status: ('A' for Active; 'I' for Inactive)
REMARK    1  A    between atoms: C_1  and  C_2
REMARK    2  A    between atoms: C_2  and  N_3
REMARK    3  A    between atoms: C_4  and  S_5
REMARK    4  A    between atoms: S_5  and  C_6
REMARK    5  A    between atoms: C_6  and  C_7
REMARK    6  A    between atoms: C_19  and  S_20
REMARK    7  A    between atoms: S_20  and  N_23
REMARK                            x       y       z     vdW  Elec       q    Type
REMARK                         _______ _______ _______ _____ _____    ______ ____
ROOT
ATOM      1  N   UNL     1       0.785   8.786  20.484  0.00  0.00    +0.000 N 
ATOM      2  C   UNL     1       1.131   9.734  19.552  0.00  0.00    +0.000 A 
ATOM      3  N   UNL     1       1.849   9.216  18.577  0.00  0.00    +0.000 NA
ATOM      4  C   UNL     1       2.079   7.902  18.947  0.00  0.00    +0.000 A 
ATOM      5  C   UNL     1       2.816   6.887  18.311  0.00  0.00    +0.000 A 
ATOM      6  C   UNL     1       2.935   5.644  18.964  0.00  0.00    +0.000 A 
ATOM      7  C   UNL     1       2.344   5.410  20.210  0.00  0.00    +0.000 A 
ATOM      8  C   UNL     1       1.592   6.401  20.833  0.00  0.00    +0.000 A 
ATOM      9  C   UNL     1       1.467   7.626  20.168  0.00  0.00    +0.000 A 
ENDROOT
BRANCH   6  10
ATOM     10  S   UNL     1       3.786   4.283  18.191  0.00  0.00    +0.000 S 
ATOM     11  O   UNL     1       4.251   3.422  19.256  0.00  0.00    +0.000 OA
ATOM     12  O   UNL     1       2.960   3.783  17.115  0.00  0.00    +0.000 OA
BRANCH  10  13
ATOM     13  N   UNL     1       5.111   5.049  17.501  0.00  0.00    +0.000 NA
ATOM     14  C   UNL     1       5.286   5.067  16.037  0.00  0.00    +0.000 C 
ATOM     15  C   UNL     1       6.541   4.274  15.661  0.00  0.00    +0.000 C 
ATOM     16  O   UNL     1       7.695   4.798  16.337  0.00  0.00    +0.000 OA
ATOM     17  C   UNL     1       7.542   4.672  17.761  0.00  0.00    +0.000 C 
ATOM     18  C   UNL     1       6.308   5.424  18.273  0.00  0.00    +0.000 C 
ENDBRANCH  10  13
ENDBRANCH   6  10
BRANCH   1  20
ATOM     19  C   UNL     1       0.717   9.341  22.909  0.00  0.00    +0.000 C 
ATOM     20  C   UNL     1      -0.056   8.930  21.661  0.00  0.00    +0.000 C 
ENDBRANCH   1  20
BRANCH   2  21
ATOM     21  S   UNL     1       0.801  11.419  19.791  0.00  0.00    +0.000 S 
BRANCH  21  22
ATOM     22  C   UNL     1      -0.092  11.890  18.289  0.00  0.00    +0.000 C 
BRANCH  22  23
ATOM     23  C   UNL     1      -1.577  11.850  18.473  0.00  0.00    +0.000 A 
ATOM     24  N   UNL     1      -2.226  12.378  19.493  0.00  0.00    +0.000 NA
ATOM     25  C   UNL     1      -3.584  12.145  19.363  0.00  0.00    +0.000 A 
ATOM     26  C   UNL     1      -4.583  12.523  20.283  0.00  0.00    +0.000 A 
ATOM     27  C   UNL     1      -5.922  12.215  20.021  0.00  0.00    +0.000 A 
ATOM     28  C   UNL     1      -6.276  11.548  18.853  0.00  0.00    +0.000 A 
ATOM     29  C   UNL     1      -5.305  11.168  17.922  0.00  0.00    +0.000 A 
ATOM     30  C   UNL     1      -3.964  11.472  18.201  0.00  0.00    +0.000 A 
ATOM     31  S   UNL     1      -2.561  11.116  17.273  0.00  0.00    +0.000 S 
ENDBRANCH  22  23
ENDBRANCH  21  22
ENDBRANCH   2  21
TORSDOF 6
ENDMDL
MODEL 2
REMARK VINA RESULT:      -8.1      0.729      1.122
REMARK  Name = 
REMARK  7 active torsions:
REMARK  status: ('A' for Active; 'I' for Inactive)
REMARK    1  A    between atoms: C_1  and  C_2
REMARK    2  A    between atoms: C_2  and  N_3
REMARK    3  A    between atoms: C_4  and  S_5
REMARK    4  A    between atoms: S_5  and  C_6
REMARK    5  A    between atoms: C_6  and  C_7
REMARK    6  A    between atoms: C_19  and  S_20
REMARK    7  A    between atoms: S_20  and  N_23
REMARK                            x       y       z     vdW  Elec       q    Type
REMARK                         _______ _______ _______ _____ _____    ______ ____
ROOT
ATOM      1  N   UNL     1       0.705   8.788  20.607  0.00  0.00    +0.000 N 
ATOM      2  C   UNL     1       1.073   9.757  19.705  0.00  0.00    +0.000 A 
ATOM      3  N   UNL     1       1.818   9.263  18.739  0.00  0.00    +0.000 NA
ATOM      4  C   UNL     1       2.043   7.942  19.087  0.00  0.00    +0.000 A 
ATOM      5  C   UNL     1       2.802   6.944  18.450  0.00  0.00    +0.000 A 
ATOM      6  C   UNL     1       2.908   5.688  19.079  0.00  0.00    +0.000 A 
ATOM      7  C   UNL     1       2.285   5.424  20.303  0.00  0.00    +0.000 A 
ATOM      8  C   UNL     1       1.512   6.399  20.927  0.00  0.00    +0.000 A 
ATOM      9  C   UNL     1       1.400   7.638  20.285  0.00  0.00    +0.000 A 
ENDROOT
BRANCH   6  10
ATOM     10  S   UNL     1       3.785   4.347  18.300  0.00  0.00    +0.000 S 
ATOM     11  O   UNL     1       4.263   3.488  19.361  0.00  0.00    +0.000 OA
ATOM     12  O   UNL     1       2.970   3.839  17.219  0.00  0.00    +0.000 OA
BRANCH  10  13
ATOM     13  N   UNL     1       5.098   5.141  17.618  0.00  0.00    +0.000 NA
ATOM     14  C   UNL     1       5.233   5.239  16.152  0.00  0.00    +0.000 C 
ATOM     15  C   UNL     1       6.471   4.458  15.699  0.00  0.00    +0.000 C 
ATOM     16  O   UNL     1       7.648   4.936  16.371  0.00  0.00    +0.000 OA
ATOM     17  C   UNL     1       7.532   4.733  17.790  0.00  0.00    +0.000 C 
ATOM     18  C   UNL     1       6.318   5.464  18.376  0.00  0.00    +0.000 C 
ENDBRANCH  10  13
ENDBRANCH   6  10
BRANCH   1  20
ATOM     19  C   UNL     1       0.550   9.392  23.017  0.00  0.00    +0.000 C 
ATOM     20  C   UNL     1      -0.168   8.904  21.764  0.00  0.00    +0.000 C 
ENDBRANCH   1  20
BRANCH   2  21
ATOM     21  S   UNL     1       0.729  11.436  19.973  0.00  0.00    +0.000 S 
BRANCH  21  22
ATOM     22  C   UNL     1      -0.110  11.940  18.450  0.00  0.00    +0.000 C 
BRANCH  22  23
ATOM     23  C   UNL     1      -1.601  11.917  18.588  0.00  0.00    +0.000 A 
ATOM     24  N   UNL     1      -2.435  11.419  17.695  0.00  0.00    +0.000 NA
ATOM     25  C   UNL     1      -3.741  11.575  18.127  0.00  0.00    +0.000 A 
ATOM     26  C   UNL     1      -4.900  11.203  17.416  0.00  0.00    +0.000 A 
ATOM     27  C   UNL     1      -6.162  11.427  17.977  0.00  0.00    +0.000 A 
ATOM     28  C   UNL     1      -6.280  12.003  19.237  0.00  0.00    +0.000 A 
ATOM     29  C   UNL     1      -5.146  12.375  19.965  0.00  0.00    +0.000 A 
ATOM     30  C   UNL     1      -3.885  12.157  19.387  0.00  0.00    +0.000 A 
ATOM     31  S   UNL     1      -2.330  12.527  20.019  0.00  0.00    +0.000 S 
ENDBRANCH  22  23
ENDBRANCH  21  22
ENDBRANCH   2  21
TORSDOF 6
ENDMDL
MODEL 3
REMARK VINA RESULT:      -8.0      1.119      1.631
REMARK  Name = 
REMARK  7 active torsions:
REMARK  status: ('A' for Active; 'I' for Inactive)
REMARK    1  A    between atoms: C_1  and  C_2
REMARK    2  A    between atoms: C_2  and  N_3
REMARK    3  A    between atoms: C_4  and  S_5
REMARK    4  A    between atoms: S_5  and  C_6
REMARK    5  A    between atoms: C_6  and  C_7
REMARK    6  A    between atoms: C_19  and  S_20
REMARK    7  A    between atoms: S_20  and  N_23
REMARK                            x       y       z     vdW  Elec       q    Type
REMARK                         _______ _______ _______ _____ _____    ______ ____
ROOT
ATOM      1  N   UNL     1       0.866   8.787  20.325  0.00  0.00    +0.000 N 
ATOM      2  C   UNL     1       1.212   9.710  19.368  0.00  0.00    +0.000 A 
ATOM      3  N   UNL     1       1.934   9.169  18.410  0.00  0.00    +0.000 NA
ATOM      4  C   UNL     1       2.168   7.867  18.816  0.00  0.00    +0.000 A 
ATOM      5  C   UNL     1       2.912   6.838  18.211  0.00  0.00    +0.000 A 
ATOM      6  C   UNL     1       3.033   5.614  18.898  0.00  0.00    +0.000 A 
ATOM      7  C   UNL     1       2.440   5.411  20.148  0.00  0.00    +0.000 A 
ATOM      8  C   UNL     1       1.682   6.416  20.742  0.00  0.00    +0.000 A 
ATOM      9  C   UNL     1       1.554   7.622  20.043  0.00  0.00    +0.000 A 
ENDROOT
BRANCH   6  10
ATOM     10  S   UNL     1       3.892   4.236  18.165  0.00  0.00    +0.000 S 
ATOM     11  O   UNL     1       4.382   3.422  19.256  0.00  0.00    +0.000 OA
ATOM     12  O   UNL     1       3.059   3.685  17.120  0.00  0.00    +0.000 OA
BRANCH  10  13
ATOM     13  N   UNL     1       5.198   4.992  17.429  0.00  0.00    +0.000 NA
ATOM     14  C   UNL     1       5.308   5.032  15.959  0.00  0.00    +0.000 C 
ATOM     15  C   UNL     1       6.532   4.225  15.515  0.00  0.00    +0.000 C 
ATOM     16  O   UNL     1       7.724   4.720  16.148  0.00  0.00    +0.000 OA
ATOM     17  C   UNL     1       7.632   4.573  17.575  0.00  0.00    +0.000 C 
ATOM     18  C   UNL     1       6.434   5.336  18.153  0.00  0.00    +0.000 C 
ENDBRANCH  10  13
ENDBRANCH   6  10
BRANCH   1  20
ATOM     19  C   UNL     1       0.791   9.388  22.739  0.00  0.00    +0.000 C 
ATOM     20  C   UNL     1       0.021   8.960  21.495  0.00  0.00    +0.000 C 
ENDBRANCH   1  20
BRANCH   2  21
ATOM     21  S   UNL     1       0.874  11.400  19.561  0.00  0.00    +0.000 S 
BRANCH  21  22
ATOM     22  C   UNL     1      -0.668  11.628  18.639  0.00  0.00    +0.000 C 
BRANCH  22  23
ATOM     23  C   UNL     1      -1.810  12.011  19.529  0.00  0.00    +0.000 A 
ATOM     24  N   UNL     1      -3.072  12.082  19.149  0.00  0.00    +0.000 NA
ATOM     25  C   UNL     1      -3.864  12.482  20.211  0.00  0.00    +0.000 A 
ATOM     26  C   UNL     1      -5.255  12.710  20.169  0.00  0.00    +0.000 A 
ATOM     27  C   UNL     1      -5.928  13.119  21.326  0.00  0.00    +0.000 A 
ATOM     28  C   UNL     1      -5.236  13.291  22.519  0.00  0.00    +0.000 A 
ATOM     29  C   UNL     1      -3.858  13.066  22.589  0.00  0.00    +0.000 A 
ATOM     30  C   UNL     1      -3.191  12.668  21.419  0.00  0.00    +0.000 A 
ATOM     31  S   UNL     1      -1.519  12.345  21.188  0.00  0.00    +0.000 S 
ENDBRANCH  22  23
ENDBRANCH  21  22
ENDBRANCH   2  21
TORSDOF 6
ENDMDL
MODEL 4
REMARK VINA RESULT:      -7.9      1.575      2.203
REMARK  Name = 
REMARK  7 active torsions:
REMARK  status: ('A' for Active; 'I' for Inactive)
REMARK    1  A    between atoms: C_1  and  C_2
REMARK    2  A    between atoms: C_2  and  N_3
REMARK    3  A    between atoms: C_4  and  S_5
REMARK    4  A    between atoms: S_5  and  C_6
REMARK    5  A    between atoms: C_6  and  C_7
REMARK    6  A    between atoms: C_19  and  S_20
REMARK    7  A    between atoms: S_20  and  N_23
REMARK                            x       y       z     vdW  Elec       q    Type
REMARK                         _______ _______ _______ _____ _____    ______ ____
ROOT
ATOM      1  N   UNL     1       1.364   8.695  20.195  0.00  0.00    +0.000 N 
ATOM      2  C   UNL     1       1.447   9.461  19.058  0.00  0.00    +0.000 A 
ATOM      3  N   UNL     1       1.828   8.748  18.019  0.00  0.00    +0.000 NA
ATOM      4  C   UNL     1       2.119   7.492  18.522  0.00  0.00    +0.000 A 
ATOM      5  C   UNL     1       2.605   6.338  17.880  0.00  0.00    +0.000 A 
ATOM      6  C   UNL     1       2.875   5.203  18.670  0.00  0.00    +0.000 A 
ATOM      7  C   UNL     1       2.672   5.206  20.053  0.00  0.00    +0.000 A 
ATOM      8  C   UNL     1       2.168   6.335  20.691  0.00  0.00    +0.000 A 
ATOM      9  C   UNL     1       1.887   7.452  19.895  0.00  0.00    +0.000 A 
ENDROOT
BRANCH   6  10
ATOM     10  S   UNL     1       3.419   3.680  17.924  0.00  0.00    +0.000 S 
ATOM     11  O   UNL     1       3.667   2.751  19.005  0.00  0.00    +0.000 OA
ATOM     12  O   UNL     1       2.520   3.359  16.837  0.00  0.00    +0.000 OA
BRANCH  10  13
ATOM     13  N   UNL     1       4.890   4.128  17.251  0.00  0.00    +0.000 NA
ATOM     14  C   UNL     1       5.975   4.649  18.104  0.00  0.00    +0.000 C 
ATOM     15  C   UNL     1       6.256   6.110  17.738  0.00  0.00    +0.000 C 
ATOM     16  O   UNL     1       6.576   6.233  16.343  0.00  0.00    +0.000 OA
ATOM     17  C   UNL     1       5.462   5.816  15.535  0.00  0.00    +0.000 C 
ATOM     18  C   UNL     1       5.071   4.358  15.808  0.00  0.00    +0.000 C 
ENDBRANCH  10  13
ENDBRANCH   6  10
BRANCH   1  20
ATOM     19  C   UNL     1      -0.501   8.608  21.840  0.00  0.00    +0.000 C 
ATOM     20  C   UNL     1       0.913   9.080  21.522  0.00  0.00    +0.000 C 
ENDBRANCH   1  20
BRANCH   2  21
ATOM     21  S   UNL     1       1.252  11.184  19.097  0.00  0.00    +0.000 S 
BRANCH  21  22
ATOM     22  C   UNL     1      -0.453  11.427  18.541  0.00  0.00    +0.000 C 
BRANCH  22  23
ATOM     23  C   UNL     1      -1.365  11.825  19.660  0.00  0.00    +0.000 A 
ATOM     24  N   UNL     1      -0.998  11.967  20.919  0.00  0.00    +0.000 NA
ATOM     25  C   UNL     1      -2.088  12.325  21.694  0.00  0.00    +0.000 A 
ATOM     26  C   UNL     1      -2.086  12.520  23.090  0.00  0.00    +0.000 A 
ATOM     27  C   UNL     1      -3.271  12.876  23.744  0.00  0.00    +0.000 A 
ATOM     28  C   UNL     1      -4.447  13.050  23.024  0.00  0.00    +0.000 A 
ATOM     29  C   UNL     1      -4.474  12.869  21.638  0.00  0.00    +0.000 A 
ATOM     30  C   UNL     1      -3.283  12.499  20.994  0.00  0.00    +0.000 A 
ATOM     31  S   UNL     1      -3.011  12.184  19.327  0.00  0.00    +0.000 S 
ENDBRANCH  22  23
ENDBRANCH  21  22
ENDBRANCH   2  21
TORSDOF 6
ENDMDL
MODEL 5
REMARK VINA RESULT:      -7.8      2.960      4.125
REMARK  Name = 
REMARK  7 active torsions:
REMARK  status: ('A' for Active; 'I' for Inactive)
REMARK    1  A    between atoms: C_1  and  C_2
REMARK    2  A    between atoms: C_2  and  N_3
REMARK    3  A    between atoms: C_4  and  S_5
REMARK    4  A    between atoms: S_5  and  C_6
REMARK    5  A    between atoms: C_6  and  C_7
REMARK    6  A    between atoms: C_19  and  S_20
REMARK    7  A    between atoms: S_20  and  N_23
REMARK                            x       y       z     vdW  Elec       q    Type
REMARK                         _______ _______ _______ _____ _____    ______ ____
ROOT
ATOM      1  N   UNL     1       1.414   8.884  19.564  0.00  0.00    +0.000 N 
ATOM      2  C   UNL     1       0.960   8.388  20.762  0.00  0.00    +0.000 A 
ATOM      3  N   UNL     1       1.550   7.253  21.072  0.00  0.00    +0.000 NA
ATOM      4  C   UNL     1       2.336   6.936  19.978  0.00  0.00    +0.000 A 
ATOM      5  C   UNL     1       3.157   5.820  19.732  0.00  0.00    +0.000 A 
ATOM      6  C   UNL     1       3.798   5.731  18.480  0.00  0.00    +0.000 A 
ATOM      7  C   UNL     1       3.632   6.712  17.498  0.00  0.00    +0.000 A 
ATOM      8  C   UNL     1       2.841   7.831  17.744  0.00  0.00    +0.000 A 
ATOM      9  C   UNL     1       2.223   7.918  18.996  0.00  0.00    +0.000 A 
ENDROOT
BRANCH   6  10
ATOM     10  S   UNL     1       4.914   4.390  18.120  0.00  0.00    +0.000 S 
ATOM     11  O   UNL     1       5.160   4.423  16.695  0.00  0.00    +0.000 OA
ATOM     12  O   UNL     1       5.996   4.429  19.079  0.00  0.00    +0.000 OA
BRANCH  10  13
ATOM     13  N   UNL     1       3.971   3.047  18.472  0.00  0.00    +0.000 NA
ATOM     14  C   UNL     1       2.828   2.689  17.611  0.00  0.00    +0.000 C 
ATOM     15  C   UNL     1       1.525   2.834  18.403  0.00  0.00    +0.000 C 
ATOM     16  O   UNL     1       1.561   2.030  19.593  0.00  0.00    +0.000 OA
ATOM     17  C   UNL     1       2.620   2.468  20.462  0.00  0.00    +0.000 C 
ATOM     18  C   UNL     1       3.992   2.378  19.783  0.00  0.00    +0.000 C 
ENDBRANCH  10  13
ENDBRANCH   6  10
BRANCH   1  20
ATOM     19  C   UNL     1      -0.178  10.048  18.047  0.00  0.00    +0.000 C 
ATOM     20  C   UNL     1       1.075  10.137  18.909  0.00  0.00    +0.000 C 
ENDBRANCH   1  20
BRANCH   2  21
ATOM     21  S   UNL     1      -0.368   9.113  21.610  0.00  0.00    +0.000 S 
BRANCH  21  22
ATOM     22  C   UNL     1       0.275  10.735  22.089  0.00  0.00    +0.000 C 
BRANCH  22  23
ATOM     23  C   UNL     1      -0.811  11.675  22.513  0.00  0.00    +0.000 A 
ATOM     24  N   UNL     1      -1.912  11.320  23.147  0.00  0.00    +0.000 NA
ATOM     25  C   UNL     1      -2.708  12.430  23.371  0.00  0.00    +0.000 A 
ATOM     26  C   UNL     1      -3.979  12.430  23.982  0.00  0.00    +0.000 A 
ATOM     27  C   UNL     1      -4.675  13.633  24.138  0.00  0.00    +0.000 A 
ATOM     28  C   UNL     1      -4.118  14.831  23.705  0.00  0.00    +0.000 A 
ATOM     29  C   UNL     1      -2.857  14.859  23.102  0.00  0.00    +0.000 A 
ATOM     30  C   UNL     1      -2.173  13.644  22.939  0.00  0.00    +0.000 A 
ATOM     31  S   UNL     1      -0.637  13.358  22.220  0.00  0.00    +0.000 S 
ENDBRANCH  22  23
ENDBRANCH  21  22
ENDBRANCH   2  21
TORSDOF 6
ENDMDL
MODEL 6
REMARK VINA RESULT:      -7.8      3.434      9.849
REMARK  Name = 
REMARK  7 active torsions:
REMARK  status: ('A' for Active; 'I' for Inactive)
REMARK    1  A    between atoms: C_1  and  C_2
REMARK    2  A    between atoms: C_2  and  N_3
REMARK    3  A    between atoms: C_4  and  S_5
REMARK    4  A    between atoms: S_5  and  C_6
REMARK    5  A    between atoms: C_6  and  C_7
REMARK    6  A    between atoms: C_19  and  S_20
REMARK    7  A    between atoms: S_20  and  N_23
REMARK                            x       y       z     vdW  Elec       q    Type
REMARK                         _______ _______ _______ _____ _____    ______ ____
ROOT
ATOM      1  N   UNL     1       2.459   5.722  19.942  0.00  0.00    +0.000 N 
ATOM      2  C   UNL     1       3.025   5.628  18.694  0.00  0.00    +0.000 A 
ATOM      3  N   UNL     1       2.999   6.783  18.062  0.00  0.00    +0.000 NA
ATOM      4  C   UNL     1       2.283   7.636  18.883  0.00  0.00    +0.000 A 
ATOM      5  C   UNL     1       1.908   8.980  18.704  0.00  0.00    +0.000 A 
ATOM      6  C   UNL     1       1.110   9.585  19.695  0.00  0.00    +0.000 A 
ATOM      7  C   UNL     1       0.692   8.883  20.830  0.00  0.00    +0.000 A 
ATOM      8  C   UNL     1       1.080   7.561  21.027  0.00  0.00    +0.000 A 
ATOM      9  C   UNL     1       1.886   6.975  20.044  0.00  0.00    +0.000 A 
ENDROOT
BRANCH   6  10
ATOM     10  S   UNL     1       0.658  11.304  19.581  0.00  0.00    +0.000 S 
ATOM     11  O   UNL     1       0.072  11.667  20.853  0.00  0.00    +0.000 OA
ATOM     12  O   UNL     1       1.776  12.032  19.023  0.00  0.00    +0.000 OA
BRANCH  10  13
ATOM     13  N   UNL     1      -0.555  11.268  18.421  0.00  0.00    +0.000 NA
ATOM     14  C   UNL     1      -1.479  12.407  18.269  0.00  0.00    +0.000 C 
ATOM     15  C   UNL     1      -2.900  11.966  18.634  0.00  0.00    +0.000 C 
ATOM     16  O   UNL     1      -3.306  10.846  17.831  0.00  0.00    +0.000 OA
ATOM     17  C   UNL     1      -2.451   9.717  18.077  0.00  0.00    +0.000 C 
ATOM     18  C   UNL     1      -0.984  10.028  17.753  0.00  0.00    +0.000 C 
ENDBRANCH  10  13
ENDBRANCH   6  10
BRANCH   1  20
ATOM     19  C   UNL     1       1.199   3.737  20.760  0.00  0.00    +0.000 C 
ATOM     20  C   UNL     1       2.358   4.704  20.975  0.00  0.00    +0.000 C 
ENDBRANCH   1  20
BRANCH   2  21
ATOM     21  S   UNL     1       3.512   4.107  18.020  0.00  0.00    +0.000 S 
BRANCH  21  22
ATOM     22  C   UNL     1       5.317   4.239  17.946  0.00  0.00    +0.000 C 
BRANCH  22  23
ATOM     23  C   UNL     1       5.822   4.343  16.541  0.00  0.00    +0.000 A 
ATOM     24  N   UNL     1       5.342   3.670  15.513  0.00  0.00    +0.000 NA
ATOM     25  C   UNL     1       6.048   3.988  14.366  0.00  0.00    +0.000 A 
ATOM     26  C   UNL     1       5.846   3.432  13.087  0.00  0.00    +0.000 A 
ATOM     27  C   UNL     1       6.643   3.848  12.014  0.00  0.00    +0.000 A 
ATOM     28  C   UNL     1       7.625   4.815  12.200  0.00  0.00    +0.000 A 
ATOM     29  C   UNL     1       7.840   5.387  13.457  0.00  0.00    +0.000 A 
ATOM     30  C   UNL     1       7.044   4.953  14.528  0.00  0.00    +0.000 A 
ATOM     31  S   UNL     1       7.089   5.444  16.175  0.00  0.00    +0.000 S 
ENDBRANCH  22  23
ENDBRANCH  21  22
ENDBRANCH   2  21
TORSDOF 6
ENDMDL
MODEL 7
REMARK VINA RESULT:      -7.8      1.967      2.757
REMARK  Name = 
REMARK  7 active torsions:
REMARK  status: ('A' for Active; 'I' for Inactive)
REMARK    1  A    between atoms: C_1  and  C_2
REMARK    2  A    between atoms: C_2  and  N_3
REMARK    3  A    between atoms: C_4  and  S_5
REMARK    4  A    between atoms: S_5  and  C_6
REMARK    5  A    between atoms: C_6  and  C_7
REMARK    6  A    between atoms: C_19  and  S_20
REMARK    7  A    between atoms: S_20  and  N_23
REMARK                            x       y       z     vdW  Elec       q    Type
REMARK                         _______ _______ _______ _____ _____    ______ ____
ROOT
ATOM      1  N   UNL     1       1.455   8.603  20.117  0.00  0.00    +0.000 N 
ATOM      2  C   UNL     1       1.521   9.353  18.968  0.00  0.00    +0.000 A 
ATOM      3  N   UNL     1       1.899   8.627  17.936  0.00  0.00    +0.000 NA
ATOM      4  C   UNL     1       2.204   7.380  18.455  0.00  0.00    +0.000 A 
ATOM      5  C   UNL     1       2.694   6.222  17.826  0.00  0.00    +0.000 A 
ATOM      6  C   UNL     1       2.980   5.101  18.631  0.00  0.00    +0.000 A 
ATOM      7  C   UNL     1       2.791   5.123  20.016  0.00  0.00    +0.000 A 
ATOM      8  C   UNL     1       2.283   6.258  20.642  0.00  0.00    +0.000 A 
ATOM      9  C   UNL     1       1.986   7.360  19.832  0.00  0.00    +0.000 A 
ENDROOT
BRANCH   6  10
ATOM     10  S   UNL     1       3.530   3.571  17.902  0.00  0.00    +0.000 S 
ATOM     11  O   UNL     1       3.808   2.664  18.995  0.00  0.00    +0.000 OA
ATOM     12  O   UNL     1       2.616   3.220  16.838  0.00  0.00    +0.000 OA
BRANCH  10  13
ATOM     13  N   UNL     1       4.984   4.024  17.196  0.00  0.00    +0.000 NA
ATOM     14  C   UNL     1       6.079   4.569  18.021  0.00  0.00    +0.000 C 
ATOM     15  C   UNL     1       6.338   6.027  17.630  0.00  0.00    +0.000 C 
ATOM     16  O   UNL     1       6.631   6.133  16.227  0.00  0.00    +0.000 OA
ATOM     17  C   UNL     1       5.507   5.693  15.446  0.00  0.00    +0.000 C 
ATOM     18  C   UNL     1       5.136   4.235  15.747  0.00  0.00    +0.000 C 
ENDBRANCH  10  13
ENDBRANCH   6  10
BRANCH   1  20
ATOM     19  C   UNL     1      -0.434   8.628  21.737  0.00  0.00    +0.000 C 
ATOM     20  C   UNL     1       1.014   9.004  21.443  0.00  0.00    +0.000 C 
ENDBRANCH   1  20
BRANCH   2  21
ATOM     21  S   UNL     1       1.313  11.074  18.983  0.00  0.00    +0.000 S 
BRANCH  21  22
ATOM     22  C   UNL     1      -0.484  11.280  18.903  0.00  0.00    +0.000 C 
BRANCH  22  23
ATOM     23  C   UNL     1      -1.034  11.960  20.119  0.00  0.00    +0.000 A 
ATOM     24  N   UNL     1      -2.317  12.090  20.396  0.00  0.00    +0.000 NA
ATOM     25  C   UNL     1      -2.477  12.784  21.583  0.00  0.00    +0.000 A 
ATOM     26  C   UNL     1      -3.705  13.149  22.171  0.00  0.00    +0.000 A 
ATOM     27  C   UNL     1      -3.714  13.857  23.378  0.00  0.00    +0.000 A 
ATOM     28  C   UNL     1      -2.521  14.193  24.007  0.00  0.00    +0.000 A 
ATOM     29  C   UNL     1      -1.290  13.837  23.447  0.00  0.00    +0.000 A 
ATOM     30  C   UNL     1      -1.292  13.138  22.230  0.00  0.00    +0.000 A 
ATOM     31  S   UNL     1       0.044  12.592  21.297  0.00  0.00    +0.000 S 
ENDBRANCH  22  23
ENDBRANCH  21  22
ENDBRANCH   2  21
TORSDOF 6
ENDMDL
MODEL 8
REMARK VINA RESULT:      -7.8      1.948      2.935
REMARK  Name = 
REMARK  7 active torsions:
REMARK  status: ('A' for Active; 'I' for Inactive)
REMARK    1  A    between atoms: C_1  and  C_2
REMARK    2  A    between atoms: C_2  and  N_3
REMARK    3  A    between atoms: C_4  and  S_5
REMARK    4  A    between atoms: S_5  and  C_6
REMARK    5  A    between atoms: C_6  and  C_7
REMARK    6  A    between atoms: C_19  and  S_20
REMARK    7  A    between atoms: S_20  and  N_23
REMARK                            x       y       z     vdW  Elec       q    Type
REMARK                         _______ _______ _______ _____ _____    ______ ____
ROOT
ATOM      1  N   UNL     1       1.080   8.835  19.868  0.00  0.00    +0.000 N 
ATOM      2  C   UNL     1       1.293   9.733  18.851  0.00  0.00    +0.000 A 
ATOM      3  N   UNL     1       2.087   9.239  17.925  0.00  0.00    +0.000 NA
ATOM      4  C   UNL     1       2.503   8.012  18.414  0.00  0.00    +0.000 A 
ATOM      5  C   UNL     1       3.386   7.062  17.871  0.00  0.00    +0.000 A 
ATOM      6  C   UNL     1       3.679   5.914  18.636  0.00  0.00    +0.000 A 
ATOM      7  C   UNL     1       3.117   5.712  19.900  0.00  0.00    +0.000 A 
ATOM      8  C   UNL     1       2.223   6.636  20.433  0.00  0.00    +0.000 A 
ATOM      9  C   UNL     1       1.926   7.763  19.658  0.00  0.00    +0.000 A 
ENDROOT
BRANCH   6  10
ATOM     10  S   UNL     1       4.726   4.628  17.988  0.00  0.00    +0.000 S 
ATOM     11  O   UNL     1       4.990   4.961  16.605  0.00  0.00    +0.000 OA
ATOM     12  O   UNL     1       5.797   4.395  18.932  0.00  0.00    +0.000 OA
BRANCH  10  13
ATOM     13  N   UNL     1       3.709   3.294  18.035  0.00  0.00    +0.000 NA
ATOM     14  C   UNL     1       2.458   3.279  17.254  0.00  0.00    +0.000 C 
ATOM     15  C   UNL     1       1.259   3.242  18.207  0.00  0.00    +0.000 C 
ATOM     16  O   UNL     1       1.345   2.110  19.088  0.00  0.00    +0.000 OA
ATOM     17  C   UNL     1       2.520   2.204  19.911  0.00  0.00    +0.000 C 
ATOM     18  C   UNL     1       3.803   2.253  19.073  0.00  0.00    +0.000 C 
ENDBRANCH  10  13
ENDBRANCH   6  10
BRANCH   1  20
ATOM     19  C   UNL     1       0.955   9.409  22.287  0.00  0.00    +0.000 C 
ATOM     20  C   UNL     1       0.216   8.962  21.031  0.00  0.00    +0.000 C 
ENDBRANCH   1  20
BRANCH   2  21
ATOM     21  S   UNL     1       0.718  11.367  18.936  0.00  0.00    +0.000 S 
BRANCH  21  22
ATOM     22  C   UNL     1      -0.952  11.262  18.246  0.00  0.00    +0.000 C 
BRANCH  22  23
ATOM     23  C   UNL     1      -1.990  11.798  19.183  0.00  0.00    +0.000 A 
ATOM     24  N   UNL     1      -3.278  11.886  18.913  0.00  0.00    +0.000 NA
ATOM     25  C   UNL     1      -3.950  12.443  19.987  0.00  0.00    +0.000 A 
ATOM     26  C   UNL     1      -5.329  12.731  20.044  0.00  0.00    +0.000 A 
ATOM     27  C   UNL     1      -5.873  13.301  21.200  0.00  0.00    +0.000 A 
ATOM     28  C   UNL     1      -5.065  13.575  22.297  0.00  0.00    +0.000 A 
ATOM     29  C   UNL     1      -3.696  13.293  22.269  0.00  0.00    +0.000 A 
ATOM     30  C   UNL     1      -3.159  12.733  21.099  0.00  0.00    +0.000 A 
ATOM     31  S   UNL     1      -1.529  12.305  20.758  0.00  0.00    +0.000 S 
ENDBRANCH  22  23
ENDBRANCH  21  22
ENDBRANCH   2  21
TORSDOF 6
ENDMDL
MODEL 9
REMARK VINA RESULT:      -7.8      1.895      2.702
REMARK  Name = 
REMARK  7 active torsions:
REMARK  status: ('A' for Active; 'I' for Inactive)
REMARK    1  A    between atoms: C_1  and  C_2
REMARK    2  A    between atoms: C_2  and  N_3
REMARK    3  A    between atoms: C_4  and  S_5
REMARK    4  A    between atoms: S_5  and  C_6
REMARK    5  A    between atoms: C_6  and  C_7
REMARK    6  A    between atoms: C_19  and  S_20
REMARK    7  A    between atoms: S_20  and  N_23
REMARK                            x       y       z     vdW  Elec       q    Type
REMARK                         _______ _______ _______ _____ _____    ______ ____
ROOT
ATOM      1  N   UNL     1       0.626   8.924  20.394  0.00  0.00    +0.000 N 
ATOM      2  C   UNL     1       0.727   9.938  19.472  0.00  0.00    +0.000 A 
ATOM      3  N   UNL     1       1.509   9.604  18.467  0.00  0.00    +0.000 NA
ATOM      4  C   UNL     1       2.033   8.367  18.804  0.00  0.00    +0.000 A 
ATOM      5  C   UNL     1       2.954   7.548  18.128  0.00  0.00    +0.000 A 
ATOM      6  C   UNL     1       3.363   6.352  18.752  0.00  0.00    +0.000 A 
ATOM      7  C   UNL     1       2.877   5.977  20.008  0.00  0.00    +0.000 A 
ATOM      8  C   UNL     1       1.946   6.770  20.672  0.00  0.00    +0.000 A 
ATOM      9  C   UNL     1       1.535   7.947  20.036  0.00  0.00    +0.000 A 
ENDROOT
BRANCH   6  10
ATOM     10  S   UNL     1       4.467   5.223  17.928  0.00  0.00    +0.000 S 
ATOM     11  O   UNL     1       4.560   5.659  16.552  0.00  0.00    +0.000 OA
ATOM     12  O   UNL     1       5.642   5.054  18.753  0.00  0.00    +0.000 OA
BRANCH  10  13
ATOM     13  N   UNL     1       3.598   3.787  17.980  0.00  0.00    +0.000 NA
ATOM     14  C   UNL     1       2.277   3.689  17.332  0.00  0.00    +0.000 C 
ATOM     15  C   UNL     1       1.200   3.463  18.398  0.00  0.00    +0.000 C 
ATOM     16  O   UNL     1       1.494   2.293  19.179  0.00  0.00    +0.000 OA
ATOM     17  C   UNL     1       2.738   2.459  19.881  0.00  0.00    +0.000 C 
ATOM     18  C   UNL     1       3.910   2.699  18.922  0.00  0.00    +0.000 C 
ENDBRANCH  10  13
ENDBRANCH   6  10
BRANCH   1  20
ATOM     19  C   UNL     1       0.522   9.396  22.835  0.00  0.00    +0.000 C 
ATOM     20  C   UNL     1      -0.189   8.864  21.596  0.00  0.00    +0.000 C 
ENDBRANCH   1  20
BRANCH   2  21
ATOM     21  S   UNL     1       0.043  11.506  19.755  0.00  0.00    +0.000 S 
BRANCH  21  22
ATOM     22  C   UNL     1      -0.972  11.794  18.284  0.00  0.00    +0.000 C 
BRANCH  22  23
ATOM     23  C   UNL     1      -2.433  11.855  18.604  0.00  0.00    +0.000 A 
ATOM     24  N   UNL     1      -3.393  11.349  17.853  0.00  0.00    +0.000 NA
ATOM     25  C   UNL     1      -4.626  11.597  18.430  0.00  0.00    +0.000 A 
ATOM     26  C   UNL     1      -5.880  11.244  17.891  0.00  0.00    +0.000 A 
ATOM     27  C   UNL     1      -7.051  11.565  18.586  0.00  0.00    +0.000 A 
ATOM     28  C   UNL     1      -6.986  12.220  19.811  0.00  0.00    +0.000 A 
ATOM     29  C   UNL     1      -5.755  12.575  20.370  0.00  0.00    +0.000 A 
ATOM     30  C   UNL     1      -4.587  12.259  19.658  0.00  0.00    +0.000 A 
ATOM     31  S   UNL     1      -2.950  12.584  20.070  0.00  0.00    +0.000 S 
ENDBRANCH  22  23
ENDBRANCH  21  22
ENDBRANCH   2  21
TORSDOF 6
ENDMDL
