MODEL 1
REMARK VINA RESULT:      -7.2      0.000      0.000
REMARK  Name = 
REMARK  4 active torsions:
REMARK  status: ('A' for Active; 'I' for Inactive)
REMARK    1  A    between atoms: C_1  and  S_2
REMARK    2  A    between atoms: S_2  and  N_5
REMARK    3  A    between atoms: C_7  and  C_8
REMARK    4  A    between atoms: C_15  and  C_16
REMARK                            x       y       z     vdW  Elec       q    Type
REMARK                         _______ _______ _______ _____ _____    ______ ____
ROOT
ATOM      1  N   UNL     1       3.742   4.393  19.165  0.00  0.00    +0.000 N 
ATOM      2  N   UNL     1       2.615   5.255  19.347  0.00  0.00    +0.000 NA
ATOM      3  C   UNL     1       3.039   6.456  19.098  0.00  0.00    +0.000 C 
ATOM      4  C   UNL     1       4.496   6.566  18.723  0.00  0.00    +0.000 C 
ATOM      5  C   UNL     1       4.965   5.104  18.764  0.00  0.00    +0.000 C 
ENDROOT
BRANCH   3   6
ATOM      6  C   UNL     1       2.159   7.644  19.165  0.00  0.00    +0.000 A 
ATOM      7  C   UNL     1       1.922   8.379  17.996  0.00  0.00    +0.000 A 
ATOM      8  C   UNL     1       1.132   9.527  18.036  0.00  0.00    +0.000 A 
ATOM      9  C   UNL     1       0.576   9.947  19.244  0.00  0.00    +0.000 A 
ATOM     10  C   UNL     1       0.800   9.213  20.407  0.00  0.00    +0.000 A 
ATOM     11  C   UNL     1       1.587   8.060  20.370  0.00  0.00    +0.000 A 
ENDBRANCH   3   6
BRANCH   5  12
ATOM     12  C   UNL     1       5.502   4.691  17.420  0.00  0.00    +0.000 A 
ATOM     13  C   UNL     1       4.837   4.385  16.248  0.00  0.00    +0.000 A 
ATOM     14  C   UNL     1       5.725   4.069  15.180  0.00  0.00    +0.000 A 
ATOM     15  C   UNL     1       7.043   4.174  15.555  0.00  0.00    +0.000 A 
ATOM     16  S   UNL     1       7.206   4.625  17.195  0.00  0.00    +0.000 S 
ENDBRANCH   5  12
BRANCH   1  18
ATOM     17  C   UNL     1       2.354   2.533  20.504  0.00  0.00    +0.000 C 
ATOM     18  S   UNL     1       3.662   2.724  19.312  0.00  0.00    +0.000 S 
ATOM     19  O   UNL     1       4.886   2.265  19.938  0.00  0.00    +0.000 OA
ATOM     20  O   UNL     1       3.200   2.158  18.063  0.00  0.00    +0.000 OA
ENDBRANCH   1  18
TORSDOF 3
ENDMDL
MODEL 2
REMARK VINA RESULT:      -7.1      0.245      1.108
REMARK  Name = 
REMARK  4 active torsions:
REMARK  status: ('A' for Active; 'I' for Inactive)
REMARK    1  A    between atoms: C_1  and  S_2
REMARK    2  A    between atoms: S_2  and  N_5
REMARK    3  A    between atoms: C_7  and  C_8
REMARK    4  A    between atoms: C_15  and  C_16
REMARK                            x       y       z     vdW  Elec       q    Type
REMARK                         _______ _______ _______ _____ _____    ______ ____
ROOT
ATOM      1  N   UNL     1       3.496   4.333  19.063  0.00  0.00    +0.000 N 
ATOM      2  N   UNL     1       2.418   5.261  19.219  0.00  0.00    +0.000 NA
ATOM      3  C   UNL     1       2.938   6.441  19.076  0.00  0.00    +0.000 C 
ATOM      4  C   UNL     1       4.423   6.469  18.812  0.00  0.00    +0.000 C 
ATOM      5  C   UNL     1       4.789   4.977  18.793  0.00  0.00    +0.000 C 
ENDROOT
BRANCH   3   6
ATOM      6  C   UNL     1       2.137   7.683  19.156  0.00  0.00    +0.000 A 
ATOM      7  C   UNL     1       1.588   8.058  20.390  0.00  0.00    +0.000 A 
ATOM      8  C   UNL     1       0.794   9.200  20.487  0.00  0.00    +0.000 A 
ATOM      9  C   UNL     1       0.544   9.972  19.354  0.00  0.00    +0.000 A 
ATOM     10  C   UNL     1       1.097   9.609  18.127  0.00  0.00    +0.000 A 
ATOM     11  C   UNL     1       1.896   8.469  18.025  0.00  0.00    +0.000 A 
ENDBRANCH   3   6
BRANCH   5  12
ATOM     12  C   UNL     1       5.395   4.606  17.467  0.00  0.00    +0.000 A 
ATOM     13  C   UNL     1       4.790   4.294  16.264  0.00  0.00    +0.000 A 
ATOM     14  C   UNL     1       5.732   4.028  15.229  0.00  0.00    +0.000 A 
ATOM     15  C   UNL     1       7.029   4.176  15.660  0.00  0.00    +0.000 A 
ATOM     16  S   UNL     1       7.109   4.607  17.311  0.00  0.00    +0.000 S 
ENDBRANCH   5  12
BRANCH   1  18
ATOM     17  C   UNL     1       1.979   2.494  20.285  0.00  0.00    +0.000 C 
ATOM     18  S   UNL     1       3.294   2.669  19.097  0.00  0.00    +0.000 S 
ATOM     19  O   UNL     1       4.482   2.080  19.680  0.00  0.00    +0.000 OA
ATOM     20  O   UNL     1       2.786   2.223  17.818  0.00  0.00    +0.000 OA
ENDBRANCH   1  18
TORSDOF 3
ENDMDL
MODEL 3
REMARK VINA RESULT:      -7.1      3.379      4.423
REMARK  Name = 
REMARK  4 active torsions:
REMARK  status: ('A' for Active; 'I' for Inactive)
REMARK    1  A    between atoms: C_1  and  S_2
REMARK    2  A    between atoms: S_2  and  N_5
REMARK    3  A    between atoms: C_7  and  C_8
REMARK    4  A    between atoms: C_15  and  C_16
REMARK                            x       y       z     vdW  Elec       q    Type
REMARK                         _______ _______ _______ _____ _____    ______ ____
ROOT
ATOM      1  N   UNL     1       5.952   5.285  18.521  0.00  0.00    +0.000 N 
ATOM      2  N   UNL     1       5.033   4.573  19.354  0.00  0.00    +0.000 NA
ATOM      3  C   UNL     1       3.880   4.650  18.763  0.00  0.00    +0.000 C 
ATOM      4  C   UNL     1       3.865   5.422  17.467  0.00  0.00    +0.000 C 
ATOM      5  C   UNL     1       5.334   5.846  17.312  0.00  0.00    +0.000 C 
ENDROOT
BRANCH   3   6
ATOM      6  C   UNL     1       2.658   4.021  19.309  0.00  0.00    +0.000 A 
ATOM      7  C   UNL     1       2.477   3.980  20.698  0.00  0.00    +0.000 A 
ATOM      8  C   UNL     1       1.356   3.356  21.243  0.00  0.00    +0.000 A 
ATOM      9  C   UNL     1       0.410   2.769  20.404  0.00  0.00    +0.000 A 
ATOM     10  C   UNL     1       0.579   2.816  19.022  0.00  0.00    +0.000 A 
ATOM     11  C   UNL     1       1.698   3.444  18.471  0.00  0.00    +0.000 A 
ENDBRANCH   3   6
BRANCH   5  12
ATOM     12  C   UNL     1       5.898   5.305  16.026  0.00  0.00    +0.000 A 
ATOM     13  C   UNL     1       6.788   5.872  15.133  0.00  0.00    +0.000 A 
ATOM     14  C   UNL     1       7.095   5.009  14.042  0.00  0.00    +0.000 A 
ATOM     15  C   UNL     1       6.458   3.795  14.148  0.00  0.00    +0.000 A 
ATOM     16  S   UNL     1       5.474   3.710  15.542  0.00  0.00    +0.000 S 
ENDBRANCH   5  12
BRANCH   1  18
ATOM     17  C   UNL     1       7.956   7.046  18.275  0.00  0.00    +0.000 C 
ATOM     18  S   UNL     1       7.594   5.399  18.845  0.00  0.00    +0.000 S 
ATOM     19  O   UNL     1       8.293   4.477  17.972  0.00  0.00    +0.000 OA
ATOM     20  O   UNL     1       7.800   5.378  20.277  0.00  0.00    +0.000 OA
ENDBRANCH   1  18
TORSDOF 3
ENDMDL
MODEL 4
REMARK VINA RESULT:      -7.1      3.411      4.340
REMARK  Name = 
REMARK  4 active torsions:
REMARK  status: ('A' for Active; 'I' for Inactive)
REMARK    1  A    between atoms: C_1  and  S_2
REMARK    2  A    between atoms: S_2  and  N_5
REMARK    3  A    between atoms: C_7  and  C_8
REMARK    4  A    between atoms: C_15  and  C_16
REMARK                            x       y       z     vdW  Elec       q    Type
REMARK                         _______ _______ _______ _____ _____    ______ ____
ROOT
ATOM      1  N   UNL     1       5.950   5.242  18.516  0.00  0.00    +0.000 N 
ATOM      2  N   UNL     1       5.050   4.506  19.350  0.00  0.00    +0.000 NA
ATOM      3  C   UNL     1       3.893   4.563  18.766  0.00  0.00    +0.000 C 
ATOM      4  C   UNL     1       3.854   5.342  17.475  0.00  0.00    +0.000 C 
ATOM      5  C   UNL     1       5.312   5.798  17.314  0.00  0.00    +0.000 C 
ENDROOT
BRANCH   3   6
ATOM      6  C   UNL     1       2.687   3.904  19.315  0.00  0.00    +0.000 A 
ATOM      7  C   UNL     1       1.762   3.334  18.430  0.00  0.00    +0.000 A 
ATOM      8  C   UNL     1       0.596   2.745  18.916  0.00  0.00    +0.000 A 
ATOM      9  C   UNL     1       0.347   2.722  20.288  0.00  0.00    +0.000 A 
ATOM     10  C   UNL     1       1.269   3.279  21.173  0.00  0.00    +0.000 A 
ATOM     11  C   UNL     1       2.440   3.866  20.691  0.00  0.00    +0.000 A 
ENDBRANCH   3   6
BRANCH   5  12
ATOM     12  C   UNL     1       5.880   5.277  16.021  0.00  0.00    +0.000 A 
ATOM     13  C   UNL     1       6.759   5.864  15.131  0.00  0.00    +0.000 A 
ATOM     14  C   UNL     1       7.074   5.016  14.030  0.00  0.00    +0.000 A 
ATOM     15  C   UNL     1       6.454   3.792  14.127  0.00  0.00    +0.000 A 
ATOM     16  S   UNL     1       5.476   3.680  15.523  0.00  0.00    +0.000 S 
ENDBRANCH   5  12
BRANCH   1  18
ATOM     17  C   UNL     1       7.918   7.040  18.252  0.00  0.00    +0.000 C 
ATOM     18  S   UNL     1       7.590   5.388  18.830  0.00  0.00    +0.000 S 
ATOM     19  O   UNL     1       8.302   4.477  17.957  0.00  0.00    +0.000 OA
ATOM     20  O   UNL     1       7.805   5.377  20.261  0.00  0.00    +0.000 OA
ENDBRANCH   1  18
TORSDOF 3
ENDMDL
MODEL 5
REMARK VINA RESULT:      -6.8      2.237      3.478
REMARK  Name = 
REMARK  4 active torsions:
REMARK  status: ('A' for Active; 'I' for Inactive)
REMARK    1  A    between atoms: C_1  and  S_2
REMARK    2  A    between atoms: S_2  and  N_5
REMARK    3  A    between atoms: C_7  and  C_8
REMARK    4  A    between atoms: C_15  and  C_16
REMARK                            x       y       z     vdW  Elec       q    Type
REMARK                         _______ _______ _______ _____ _____    ______ ____
ROOT
ATOM      1  N   UNL     1       4.376   5.444  17.096  0.00  0.00    +0.000 N 
ATOM      2  N   UNL     1       4.085   6.752  17.596  0.00  0.00    +0.000 NA
ATOM      3  C   UNL     1       2.874   6.696  18.060  0.00  0.00    +0.000 C 
ATOM      4  C   UNL     1       2.190   5.358  17.931  0.00  0.00    +0.000 C 
ATOM      5  C   UNL     1       3.269   4.492  17.264  0.00  0.00    +0.000 C 
ENDROOT
BRANCH   3   6
ATOM      6  C   UNL     1       2.202   7.858  18.682  0.00  0.00    +0.000 A 
ATOM      7  C   UNL     1       1.856   7.795  20.038  0.00  0.00    +0.000 A 
ATOM      8  C   UNL     1       1.184   8.858  20.642  0.00  0.00    +0.000 A 
ATOM      9  C   UNL     1       0.855   9.987  19.894  0.00  0.00    +0.000 A 
ATOM     10  C   UNL     1       1.207  10.059  18.547  0.00  0.00    +0.000 A 
ATOM     11  C   UNL     1       1.883   9.000  17.940  0.00  0.00    +0.000 A 
ENDBRANCH   3   6
BRANCH   5  12
ATOM     12  C   UNL     1       3.601   3.311  18.136  0.00  0.00    +0.000 A 
ATOM     13  C   UNL     1       3.557   1.957  17.862  0.00  0.00    +0.000 A 
ATOM     14  C   UNL     1       3.986   1.160  18.962  0.00  0.00    +0.000 A 
ATOM     15  C   UNL     1       4.376   1.927  20.035  0.00  0.00    +0.000 A 
ATOM     16  S   UNL     1       4.200   3.597  19.724  0.00  0.00    +0.000 S 
ENDBRANCH   5  12
BRANCH   1  18
ATOM     17  C   UNL     1       6.881   4.965  17.917  0.00  0.00    +0.000 C 
ATOM     18  S   UNL     1       5.864   5.010  16.456  0.00  0.00    +0.000 S 
ATOM     19  O   UNL     1       6.340   6.104  15.634  0.00  0.00    +0.000 OA
ATOM     20  O   UNL     1       5.787   3.661  15.938  0.00  0.00    +0.000 OA
ENDBRANCH   1  18
TORSDOF 3
ENDMDL
MODEL 6
REMARK VINA RESULT:      -6.8      2.136      3.571
REMARK  Name = 
REMARK  4 active torsions:
REMARK  status: ('A' for Active; 'I' for Inactive)
REMARK    1  A    between atoms: C_1  and  S_2
REMARK    2  A    between atoms: S_2  and  N_5
REMARK    3  A    between atoms: C_7  and  C_8
REMARK    4  A    between atoms: C_15  and  C_16
REMARK                            x       y       z     vdW  Elec       q    Type
REMARK                         _______ _______ _______ _____ _____    ______ ____
ROOT
ATOM      1  N   UNL     1       4.647   5.589  17.370  0.00  0.00    +0.000 N 
ATOM      2  N   UNL     1       4.269   6.898  17.805  0.00  0.00    +0.000 NA
ATOM      3  C   UNL     1       3.016   6.818  18.131  0.00  0.00    +0.000 C 
ATOM      4  C   UNL     1       2.383   5.460  17.956  0.00  0.00    +0.000 C 
ATOM      5  C   UNL     1       3.552   4.611  17.433  0.00  0.00    +0.000 C 
ENDROOT
BRANCH   3   6
ATOM      6  C   UNL     1       2.249   7.973  18.650  0.00  0.00    +0.000 A 
ATOM      7  C   UNL     1       1.807   7.953  19.979  0.00  0.00    +0.000 A 
ATOM      8  C   UNL     1       1.046   9.007  20.483  0.00  0.00    +0.000 A 
ATOM      9  C   UNL     1       0.724  10.086  19.661  0.00  0.00    +0.000 A 
ATOM     10  C   UNL     1       1.170  10.117  18.341  0.00  0.00    +0.000 A 
ATOM     11  C   UNL     1       1.936   9.065  17.834  0.00  0.00    +0.000 A 
ENDBRANCH   3   6
BRANCH   5  12
ATOM     12  C   UNL     1       3.813   3.456  18.362  0.00  0.00    +0.000 A 
ATOM     13  C   UNL     1       4.271   3.444  19.665  0.00  0.00    +0.000 A 
ATOM     14  C   UNL     1       4.352   2.129  20.207  0.00  0.00    +0.000 A 
ATOM     15  C   UNL     1       3.923   1.175  19.314  0.00  0.00    +0.000 A 
ATOM     16  S   UNL     1       3.452   1.862  17.822  0.00  0.00    +0.000 S 
ENDBRANCH   5  12
BRANCH   1  18
ATOM     17  C   UNL     1       5.905   3.942  15.672  0.00  0.00    +0.000 C 
ATOM     18  S   UNL     1       6.209   5.184  16.911  0.00  0.00    +0.000 S 
ATOM     19  O   UNL     1       6.854   4.527  18.030  0.00  0.00    +0.000 OA
ATOM     20  O   UNL     1       6.821   6.316  16.251  0.00  0.00    +0.000 OA
ENDBRANCH   1  18
TORSDOF 3
ENDMDL
MODEL 7
REMARK VINA RESULT:      -6.7      2.711      6.715
REMARK  Name = 
REMARK  4 active torsions:
REMARK  status: ('A' for Active; 'I' for Inactive)
REMARK    1  A    between atoms: C_1  and  S_2
REMARK    2  A    between atoms: S_2  and  N_5
REMARK    3  A    between atoms: C_7  and  C_8
REMARK    4  A    between atoms: C_15  and  C_16
REMARK                            x       y       z     vdW  Elec       q    Type
REMARK                         _______ _______ _______ _____ _____    ______ ____
ROOT
ATOM      1  N   UNL     1       6.582   4.847  17.514  0.00  0.00    +0.000 N 
ATOM      2  N   UNL     1       7.151   4.778  16.203  0.00  0.00    +0.000 NA
ATOM      3  C   UNL     1       6.197   4.383  15.418  0.00  0.00    +0.000 C 
ATOM      4  C   UNL     1       4.869   4.127  16.087  0.00  0.00    +0.000 C 
ATOM      5  C   UNL     1       5.161   4.473  17.556  0.00  0.00    +0.000 C 
ENDROOT
BRANCH   3   6
ATOM      6  C   UNL     1       6.384   4.198  13.962  0.00  0.00    +0.000 A 
ATOM      7  C   UNL     1       5.540   3.315  13.276  0.00  0.00    +0.000 A 
ATOM      8  C   UNL     1       5.719   3.089  11.912  0.00  0.00    +0.000 A 
ATOM      9  C   UNL     1       6.742   3.743  11.227  0.00  0.00    +0.000 A 
ATOM     10  C   UNL     1       7.578   4.631  11.903  0.00  0.00    +0.000 A 
ATOM     11  C   UNL     1       7.399   4.864  13.268  0.00  0.00    +0.000 A 
ENDBRANCH   3   6
BRANCH   5  12
ATOM     12  C   UNL     1       4.249   5.576  18.022  0.00  0.00    +0.000 A 
ATOM     13  C   UNL     1       4.063   6.852  17.523  0.00  0.00    +0.000 A 
ATOM     14  C   UNL     1       3.072   7.583  18.240  0.00  0.00    +0.000 A 
ATOM     15  C   UNL     1       2.507   6.835  19.246  0.00  0.00    +0.000 A 
ATOM     16  S   UNL     1       3.187   5.271  19.340  0.00  0.00    +0.000 S 
ENDBRANCH   5  12
BRANCH   1  18
ATOM     17  C   UNL     1       7.830   7.049  18.389  0.00  0.00    +0.000 C 
ATOM     18  S   UNL     1       7.426   5.381  18.861  0.00  0.00    +0.000 S 
ATOM     19  O   UNL     1       8.669   4.642  18.939  0.00  0.00    +0.000 OA
ATOM     20  O   UNL     1       6.524   5.455  19.990  0.00  0.00    +0.000 OA
ENDBRANCH   1  18
TORSDOF 3
ENDMDL
MODEL 8
REMARK VINA RESULT:      -6.7      2.248      3.310
REMARK  Name = 
REMARK  4 active torsions:
REMARK  status: ('A' for Active; 'I' for Inactive)
REMARK    1  A    between atoms: C_1  and  S_2
REMARK    2  A    between atoms: S_2  and  N_5
REMARK    3  A    between atoms: C_7  and  C_8
REMARK    4  A    between atoms: C_15  and  C_16
REMARK                            x       y       z     vdW  Elec       q    Type
REMARK                         _______ _______ _______ _____ _____    ______ ____
ROOT
ATOM      1  N   UNL     1       4.384   5.474  17.116  0.00  0.00    +0.000 N 
ATOM      2  N   UNL     1       4.068   6.770  17.634  0.00  0.00    +0.000 NA
ATOM      3  C   UNL     1       2.848   6.694  18.070  0.00  0.00    +0.000 C 
ATOM      4  C   UNL     1       2.181   5.351  17.902  0.00  0.00    +0.000 C 
ATOM      5  C   UNL     1       3.283   4.508  17.243  0.00  0.00    +0.000 C 
ENDROOT
BRANCH   3   6
ATOM      6  C   UNL     1       2.151   7.837  18.699  0.00  0.00    +0.000 A 
ATOM      7  C   UNL     1       1.843   8.958  17.916  0.00  0.00    +0.000 A 
ATOM      8  C   UNL     1       1.224  10.067  18.491  0.00  0.00    +0.000 A 
ATOM      9  C   UNL     1       0.911  10.063  19.849  0.00  0.00    +0.000 A 
ATOM     10  C   UNL     1       1.206   8.947  20.630  0.00  0.00    +0.000 A 
ATOM     11  C   UNL     1       1.821   7.832  20.058  0.00  0.00    +0.000 A 
ENDBRANCH   3   6
BRANCH   5  12
ATOM     12  C   UNL     1       3.609   3.315  18.100  0.00  0.00    +0.000 A 
ATOM     13  C   UNL     1       3.542   1.965  17.814  0.00  0.00    +0.000 A 
ATOM     14  C   UNL     1       3.972   1.151  18.902  0.00  0.00    +0.000 A 
ATOM     15  C   UNL     1       4.386   1.902  19.976  0.00  0.00    +0.000 A 
ATOM     16  S   UNL     1       4.231   3.578  19.683  0.00  0.00    +0.000 S 
ENDBRANCH   5  12
BRANCH   1  18
ATOM     17  C   UNL     1       6.875   5.003  17.983  0.00  0.00    +0.000 C 
ATOM     18  S   UNL     1       5.890   5.067  16.501  0.00  0.00    +0.000 S 
ATOM     19  O   UNL     1       6.372   6.182  15.711  0.00  0.00    +0.000 OA
ATOM     20  O   UNL     1       5.837   3.728  15.956  0.00  0.00    +0.000 OA
ENDBRANCH   1  18
TORSDOF 3
ENDMDL
MODEL 9
REMARK VINA RESULT:      -6.7      2.179      3.319
REMARK  Name = 
REMARK  4 active torsions:
REMARK  status: ('A' for Active; 'I' for Inactive)
REMARK    1  A    between atoms: C_1  and  S_2
REMARK    2  A    between atoms: S_2  and  N_5
REMARK    3  A    between atoms: C_7  and  C_8
REMARK    4  A    between atoms: C_15  and  C_16
REMARK                            x       y       z     vdW  Elec       q    Type
REMARK                         _______ _______ _______ _____ _____    ______ ____
ROOT
ATOM      1  N   UNL     1       4.625   5.506  17.320  0.00  0.00    +0.000 N 
ATOM      2  N   UNL     1       4.255   6.787  17.836  0.00  0.00    +0.000 NA
ATOM      3  C   UNL     1       2.989   6.712  18.109  0.00  0.00    +0.000 C 
ATOM      4  C   UNL     1       2.338   5.384  17.810  0.00  0.00    +0.000 C 
ATOM      5  C   UNL     1       3.510   4.550  17.270  0.00  0.00    +0.000 C 
ENDROOT
BRANCH   3   6
ATOM      6  C   UNL     1       2.225   7.842  18.682  0.00  0.00    +0.000 A 
ATOM      7  C   UNL     1       1.919   8.938  17.864  0.00  0.00    +0.000 A 
ATOM      8  C   UNL     1       1.238  10.037  18.387  0.00  0.00    +0.000 A 
ATOM      9  C   UNL     1       0.859  10.046  19.729  0.00  0.00    +0.000 A 
ATOM     10  C   UNL     1       1.152   8.954  20.544  0.00  0.00    +0.000 A 
ATOM     11  C   UNL     1       1.830   7.850  20.023  0.00  0.00    +0.000 A 
ENDBRANCH   3   6
BRANCH   5  12
ATOM     12  C   UNL     1       3.712   3.325  18.120  0.00  0.00    +0.000 A 
ATOM     13  C   UNL     1       3.665   1.986  17.783  0.00  0.00    +0.000 A 
ATOM     14  C   UNL     1       3.947   1.131  18.888  0.00  0.00    +0.000 A 
ATOM     15  C   UNL     1       4.233   1.841  20.030  0.00  0.00    +0.000 A 
ATOM     16  S   UNL     1       4.135   3.528  19.776  0.00  0.00    +0.000 S 
ENDBRANCH   5  12
BRANCH   1  18
ATOM     17  C   UNL     1       5.915   3.943  15.568  0.00  0.00    +0.000 C 
ATOM     18  S   UNL     1       6.195   5.101  16.890  0.00  0.00    +0.000 S 
ATOM     19  O   UNL     1       6.789   4.366  17.989  0.00  0.00    +0.000 OA
ATOM     20  O   UNL     1       6.848   6.261  16.323  0.00  0.00    +0.000 OA
ENDBRANCH   1  18
TORSDOF 3
ENDMDL
