MODEL 1
REMARK VINA RESULT:      -7.4      0.000      0.000
REMARK  Name = 
REMARK  9 active torsions:
REMARK  status: ('A' for Active; 'I' for Inactive)
REMARK    1  A    between atoms: C_1  and  C_2
REMARK    2  A    between atoms: C_4  and  C_5
REMARK    3  A    between atoms: C_11  and  N_12
REMARK    4  A    between atoms: N_12  and  C_13
REMARK    5  A    between atoms: C_14  and  O_16
REMARK    6  A    between atoms: O_16  and  C_17
REMARK    7  A    between atoms: C_17  and  C_18
REMARK    8  A    between atoms: C_17  and  C_19
REMARK    9  A    between atoms: C_17  and  C_20
REMARK                            x       y       z     vdW  Elec       q    Type
REMARK                         _______ _______ _______ _____ _____    ______ ____
ROOT
ATOM      1  C   UNL     1       5.361   2.744  11.552  0.00  0.00    +0.000 C 
ATOM      2  C   UNL     1       6.197   3.674  12.376  0.00  0.00    +0.000 A 
ATOM      3  C   UNL     1       7.145   4.488  11.799  0.00  0.00    +0.000 A 
ATOM      4  C   UNL     1       7.836   5.319  12.654  0.00  0.00    +0.000 A 
ATOM      5  C   UNL     1       8.878   6.265  12.140  0.00  0.00    +0.000 C 
ATOM      6  N   UNL     1       7.613   5.334  13.985  0.00  0.00    +0.000 NA
ATOM      7  C   UNL     1       6.663   4.520  14.474  0.00  0.00    +0.000 A 
ATOM      8  N   UNL     1       6.419   4.516  15.825  0.00  0.00    +0.000 N 
ATOM      9  C   UNL     1       6.986   5.548  16.664  0.00  0.00    +0.000 C 
ATOM     10  C   UNL     1       6.455   5.149  18.039  0.00  0.00    +0.000 C 
ATOM     11  C   UNL     1       5.019   4.698  17.736  0.00  0.00    +0.000 C 
ATOM     12  C   UNL     1       5.070   4.184  16.269  0.00  0.00    +0.000 C 
ATOM     13  N   UNL     1       5.951   3.684  13.701  0.00  0.00    +0.000 NA
ENDROOT
BRANCH  11  14
ATOM     14  N   UNL     1       4.407   3.731  18.660  0.00  0.00    +0.000 N 
ATOM     15  C   UNL     1       4.304   2.326  18.271  0.00  0.00    +0.000 C 
ATOM     16  C   UNL     1       3.698   4.262  19.731  0.00  0.00    +0.000 C 
ATOM     17  O   UNL     1       3.697   5.465  19.970  0.00  0.00    +0.000 OA
BRANCH  16  18
ATOM     18  O   UNL     1       3.022   3.335  20.468  0.00  0.00    +0.000 OA
BRANCH  18  19
ATOM     19  C   UNL     1       1.567   3.375  20.491  0.00  0.00    +0.000 C 
ATOM     20  C   UNL     1       0.959   2.665  19.270  0.00  0.00    +0.000 C 
ATOM     21  C   UNL     1       1.132   2.605  21.752  0.00  0.00    +0.000 C 
ATOM     22  C   UNL     1       1.071   4.819  20.631  0.00  0.00    +0.000 C 
ENDBRANCH  18  19
ENDBRANCH  16  18
ENDBRANCH  11  14
TORSDOF 3
ENDMDL
MODEL 2
REMARK VINA RESULT:      -7.2      0.902      1.224
REMARK  Name = 
REMARK  9 active torsions:
REMARK  status: ('A' for Active; 'I' for Inactive)
REMARK    1  A    between atoms: C_1  and  C_2
REMARK    2  A    between atoms: C_4  and  C_5
REMARK    3  A    between atoms: C_11  and  N_12
REMARK    4  A    between atoms: N_12  and  C_13
REMARK    5  A    between atoms: C_14  and  O_16
REMARK    6  A    between atoms: O_16  and  C_17
REMARK    7  A    between atoms: C_17  and  C_18
REMARK    8  A    between atoms: C_17  and  C_19
REMARK    9  A    between atoms: C_17  and  C_20
REMARK                            x       y       z     vdW  Elec       q    Type
REMARK                         _______ _______ _______ _____ _____    ______ ____
ROOT
ATOM      1  C   UNL     1       5.588   2.576  11.774  0.00  0.00    +0.000 C 
ATOM      2  C   UNL     1       6.356   3.611  12.536  0.00  0.00    +0.000 A 
ATOM      3  C   UNL     1       7.291   4.410  11.918  0.00  0.00    +0.000 A 
ATOM      4  C   UNL     1       7.918   5.342  12.716  0.00  0.00    +0.000 A 
ATOM      5  C   UNL     1       8.940   6.281  12.152  0.00  0.00    +0.000 C 
ATOM      6  N   UNL     1       7.647   5.467  14.032  0.00  0.00    +0.000 NA
ATOM      7  C   UNL     1       6.712   4.661  14.562  0.00  0.00    +0.000 A 
ATOM      8  N   UNL     1       6.420   4.768  15.899  0.00  0.00    +0.000 N 
ATOM      9  C   UNL     1       6.915   5.895  16.659  0.00  0.00    +0.000 C 
ATOM     10  C   UNL     1       6.351   5.598  18.046  0.00  0.00    +0.000 C 
ATOM     11  C   UNL     1       4.945   5.061  17.739  0.00  0.00    +0.000 C 
ATOM     12  C   UNL     1       5.070   4.421  16.328  0.00  0.00    +0.000 C 
ATOM     13  N   UNL     1       6.062   3.730  13.846  0.00  0.00    +0.000 NA
ENDROOT
BRANCH  11  14
ATOM     14  N   UNL     1       4.338   4.156  18.727  0.00  0.00    +0.000 N 
ATOM     15  C   UNL     1       5.198   3.351  19.591  0.00  0.00    +0.000 C 
ATOM     16  C   UNL     1       2.980   3.904  18.582  0.00  0.00    +0.000 C 
ATOM     17  O   UNL     1       2.296   4.507  17.761  0.00  0.00    +0.000 OA
BRANCH  16  18
ATOM     18  O   UNL     1       2.498   2.943  19.422  0.00  0.00    +0.000 OA
BRANCH  18  19
ATOM     19  C   UNL     1       1.473   3.302  20.391  0.00  0.00    +0.000 C 
ATOM     20  C   UNL     1       1.618   2.502  21.696  0.00  0.00    +0.000 C 
ATOM     21  C   UNL     1       1.689   4.790  20.721  0.00  0.00    +0.000 C 
ATOM     22  C   UNL     1       0.076   3.159  19.774  0.00  0.00    +0.000 C 
ENDBRANCH  18  19
ENDBRANCH  16  18
ENDBRANCH  11  14
TORSDOF 3
ENDMDL
MODEL 3
REMARK VINA RESULT:      -7.1      5.141      8.475
REMARK  Name = 
REMARK  9 active torsions:
REMARK  status: ('A' for Active; 'I' for Inactive)
REMARK    1  A    between atoms: C_1  and  C_2
REMARK    2  A    between atoms: C_4  and  C_5
REMARK    3  A    between atoms: C_11  and  N_12
REMARK    4  A    between atoms: N_12  and  C_13
REMARK    5  A    between atoms: C_14  and  O_16
REMARK    6  A    between atoms: O_16  and  C_17
REMARK    7  A    between atoms: C_17  and  C_18
REMARK    8  A    between atoms: C_17  and  C_19
REMARK    9  A    between atoms: C_17  and  C_20
REMARK                            x       y       z     vdW  Elec       q    Type
REMARK                         _______ _______ _______ _____ _____    ______ ____
ROOT
ATOM      1  C   UNL     1      -1.154  10.957  23.082  0.00  0.00    +0.000 C 
ATOM      2  C   UNL     1      -0.553  11.124  21.721  0.00  0.00    +0.000 A 
ATOM      3  C   UNL     1      -0.561  12.341  21.078  0.00  0.00    +0.000 A 
ATOM      4  C   UNL     1       0.042  12.379  19.839  0.00  0.00    +0.000 A 
ATOM      5  C   UNL     1       0.113  13.652  19.053  0.00  0.00    +0.000 C 
ATOM      6  N   UNL     1       0.601  11.289  19.274  0.00  0.00    +0.000 NA
ATOM      7  C   UNL     1       0.582  10.139  19.967  0.00  0.00    +0.000 A 
ATOM      8  N   UNL     1       1.143   9.016  19.412  0.00  0.00    +0.000 N 
ATOM      9  C   UNL     1       1.965   9.130  18.227  0.00  0.00    +0.000 C 
ATOM     10  C   UNL     1       2.360   7.674  17.990  0.00  0.00    +0.000 C 
ATOM     11  C   UNL     1       2.614   7.149  19.410  0.00  0.00    +0.000 C 
ATOM     12  C   UNL     1       1.695   8.015  20.318  0.00  0.00    +0.000 C 
ATOM     13  N   UNL     1       0.012  10.028  21.178  0.00  0.00    +0.000 NA
ENDROOT
BRANCH  11  14
ATOM     14  N   UNL     1       2.446   5.706  19.636  0.00  0.00    +0.000 N 
ATOM     15  C   UNL     1       1.416   5.235  20.559  0.00  0.00    +0.000 C 
ATOM     16  C   UNL     1       3.470   4.885  19.178  0.00  0.00    +0.000 C 
ATOM     17  O   UNL     1       4.395   5.324  18.504  0.00  0.00    +0.000 OA
BRANCH  16  18
ATOM     18  O   UNL     1       3.344   3.578  19.546  0.00  0.00    +0.000 OA
BRANCH  18  19
ATOM     19  C   UNL     1       2.733   2.638  18.618  0.00  0.00    +0.000 C 
ATOM     20  C   UNL     1       2.526   3.262  17.229  0.00  0.00    +0.000 C 
ATOM     21  C   UNL     1       3.724   1.469  18.469  0.00  0.00    +0.000 C 
ATOM     22  C   UNL     1       1.431   2.075  19.202  0.00  0.00    +0.000 C 
ENDBRANCH  18  19
ENDBRANCH  16  18
ENDBRANCH  11  14
TORSDOF 3
ENDMDL
MODEL 4
REMARK VINA RESULT:      -7.0      3.637      7.996
REMARK  Name = 
REMARK  9 active torsions:
REMARK  status: ('A' for Active; 'I' for Inactive)
REMARK    1  A    between atoms: C_1  and  C_2
REMARK    2  A    between atoms: C_4  and  C_5
REMARK    3  A    between atoms: C_11  and  N_12
REMARK    4  A    between atoms: N_12  and  C_13
REMARK    5  A    between atoms: C_14  and  O_16
REMARK    6  A    between atoms: O_16  and  C_17
REMARK    7  A    between atoms: C_17  and  C_18
REMARK    8  A    between atoms: C_17  and  C_19
REMARK    9  A    between atoms: C_17  and  C_20
REMARK                            x       y       z     vdW  Elec       q    Type
REMARK                         _______ _______ _______ _____ _____    ______ ____
ROOT
ATOM      1  C   UNL     1       1.437  10.830  18.330  0.00  0.00    +0.000 C 
ATOM      2  C   UNL     1       1.208   9.836  19.426  0.00  0.00    +0.000 A 
ATOM      3  C   UNL     1       0.348  10.103  20.467  0.00  0.00    +0.000 A 
ATOM      4  C   UNL     1       0.200   9.104  21.405  0.00  0.00    +0.000 A 
ATOM      5  C   UNL     1      -0.724   9.271  22.573  0.00  0.00    +0.000 C 
ATOM      6  N   UNL     1       0.862   7.931  21.324  0.00  0.00    +0.000 NA
ATOM      7  C   UNL     1       1.675   7.738  20.272  0.00  0.00    +0.000 A 
ATOM      8  N   UNL     1       2.361   6.554  20.168  0.00  0.00    +0.000 N 
ATOM      9  C   UNL     1       2.018   5.442  21.027  0.00  0.00    +0.000 C 
ATOM     10  C   UNL     1       3.009   4.379  20.560  0.00  0.00    +0.000 C 
ATOM     11  C   UNL     1       3.033   4.574  19.037  0.00  0.00    +0.000 C 
ATOM     12  C   UNL     1       2.692   6.077  18.829  0.00  0.00    +0.000 C 
ATOM     13  N   UNL     1       1.868   8.666  19.321  0.00  0.00    +0.000 NA
ENDROOT
BRANCH  11  14
ATOM     14  N   UNL     1       4.249   4.159  18.322  0.00  0.00    +0.000 N 
ATOM     15  C   UNL     1       5.558   4.412  18.919  0.00  0.00    +0.000 C 
ATOM     16  C   UNL     1       4.092   3.810  16.986  0.00  0.00    +0.000 C 
ATOM     17  O   UNL     1       2.984   3.722  16.469  0.00  0.00    +0.000 OA
BRANCH  16  18
ATOM     18  O   UNL     1       5.265   3.583  16.328  0.00  0.00    +0.000 OA
BRANCH  18  19
ATOM     19  C   UNL     1       5.757   4.585  15.395  0.00  0.00    +0.000 C 
ATOM     20  C   UNL     1       5.132   5.965  15.659  0.00  0.00    +0.000 C 
ATOM     21  C   UNL     1       7.273   4.698  15.638  0.00  0.00    +0.000 C 
ATOM     22  C   UNL     1       5.550   4.121  13.948  0.00  0.00    +0.000 C 
ENDBRANCH  18  19
ENDBRANCH  16  18
ENDBRANCH  11  14
TORSDOF 3
ENDMDL
MODEL 5
REMARK VINA RESULT:      -6.8      0.747      1.220
REMARK  Name = 
REMARK  9 active torsions:
REMARK  status: ('A' for Active; 'I' for Inactive)
REMARK    1  A    between atoms: C_1  and  C_2
REMARK    2  A    between atoms: C_4  and  C_5
REMARK    3  A    between atoms: C_11  and  N_12
REMARK    4  A    between atoms: N_12  and  C_13
REMARK    5  A    between atoms: C_14  and  O_16
REMARK    6  A    between atoms: O_16  and  C_17
REMARK    7  A    between atoms: C_17  and  C_18
REMARK    8  A    between atoms: C_17  and  C_19
REMARK    9  A    between atoms: C_17  and  C_20
REMARK                            x       y       z     vdW  Elec       q    Type
REMARK                         _______ _______ _______ _____ _____    ______ ____
ROOT
ATOM      1  C   UNL     1       5.142   2.971  12.043  0.00  0.00    +0.000 C 
ATOM      2  C   UNL     1       6.100   3.870  12.761  0.00  0.00    +0.000 A 
ATOM      3  C   UNL     1       7.099   4.536  12.088  0.00  0.00    +0.000 A 
ATOM      4  C   UNL     1       7.906   5.353  12.850  0.00  0.00    +0.000 A 
ATOM      5  C   UNL     1       9.015   6.145  12.226  0.00  0.00    +0.000 C 
ATOM      6  N   UNL     1       7.742   5.493  14.182  0.00  0.00    +0.000 NA
ATOM      7  C   UNL     1       6.737   4.821  14.767  0.00  0.00    +0.000 A 
ATOM      8  N   UNL     1       6.551   4.945  16.121  0.00  0.00    +0.000 N 
ATOM      9  C   UNL     1       7.253   5.975  16.855  0.00  0.00    +0.000 C 
ATOM     10  C   UNL     1       6.744   5.738  18.274  0.00  0.00    +0.000 C 
ATOM     11  C   UNL     1       5.258   5.415  18.059  0.00  0.00    +0.000 C 
ATOM     12  C   UNL     1       5.196   4.789  16.637  0.00  0.00    +0.000 C 
ATOM     13  N   UNL     1       5.913   4.006  14.088  0.00  0.00    +0.000 NA
ENDROOT
BRANCH  11  14
ATOM     14  N   UNL     1       4.592   4.590  19.078  0.00  0.00    +0.000 N 
ATOM     15  C   UNL     1       4.847   3.152  19.121  0.00  0.00    +0.000 C 
ATOM     16  C   UNL     1       3.533   5.181  19.757  0.00  0.00    +0.000 C 
ATOM     17  O   UNL     1       3.257   6.367  19.613  0.00  0.00    +0.000 OA
BRANCH  16  18
ATOM     18  O   UNL     1       2.852   4.330  20.576  0.00  0.00    +0.000 OA
BRANCH  18  19
ATOM     19  C   UNL     1       1.466   4.011  20.268  0.00  0.00    +0.000 C 
ATOM     20  C   UNL     1       0.529   5.193  20.567  0.00  0.00    +0.000 C 
ATOM     21  C   UNL     1       1.411   3.734  18.754  0.00  0.00    +0.000 C 
ATOM     22  C   UNL     1       1.035   2.730  20.993  0.00  0.00    +0.000 C 
ENDBRANCH  18  19
ENDBRANCH  16  18
ENDBRANCH  11  14
TORSDOF 3
ENDMDL
MODEL 6
REMARK VINA RESULT:      -6.7      5.382      8.589
REMARK  Name = 
REMARK  9 active torsions:
REMARK  status: ('A' for Active; 'I' for Inactive)
REMARK    1  A    between atoms: C_1  and  C_2
REMARK    2  A    between atoms: C_4  and  C_5
REMARK    3  A    between atoms: C_11  and  N_12
REMARK    4  A    between atoms: N_12  and  C_13
REMARK    5  A    between atoms: C_14  and  O_16
REMARK    6  A    between atoms: O_16  and  C_17
REMARK    7  A    between atoms: C_17  and  C_18
REMARK    8  A    between atoms: C_17  and  C_19
REMARK    9  A    between atoms: C_17  and  C_20
REMARK                            x       y       z     vdW  Elec       q    Type
REMARK                         _______ _______ _______ _____ _____    ______ ____
ROOT
ATOM      1  C   UNL     1      -1.187  11.463  22.959  0.00  0.00    +0.000 C 
ATOM      2  C   UNL     1      -0.630  11.548  21.571  0.00  0.00    +0.000 A 
ATOM      3  C   UNL     1      -0.655  12.726  20.860  0.00  0.00    +0.000 A 
ATOM      4  C   UNL     1      -0.093  12.689  19.602  0.00  0.00    +0.000 A 
ATOM      5  C   UNL     1      -0.043  13.914  18.741  0.00  0.00    +0.000 C 
ATOM      6  N   UNL     1       0.445  11.566  19.083  0.00  0.00    +0.000 NA
ATOM      7  C   UNL     1       0.444  10.458  19.842  0.00  0.00    +0.000 A 
ATOM      8  N   UNL     1       0.984   9.302  19.335  0.00  0.00    +0.000 N 
ATOM      9  C   UNL     1       1.767   9.342  18.121  0.00  0.00    +0.000 C 
ATOM     10  C   UNL     1       2.149   7.874  17.955  0.00  0.00    +0.000 C 
ATOM     11  C   UNL     1       2.447   7.430  19.395  0.00  0.00    +0.000 C 
ATOM     12  C   UNL     1       1.561   8.352  20.280  0.00  0.00    +0.000 C 
ATOM     13  N   UNL     1      -0.087  10.420  21.075  0.00  0.00    +0.000 NA
ENDROOT
BRANCH  11  14
ATOM     14  N   UNL     1       2.282   6.003  19.709  0.00  0.00    +0.000 N 
ATOM     15  C   UNL     1       1.119   5.563  20.477  0.00  0.00    +0.000 C 
ATOM     16  C   UNL     1       3.393   5.193  19.508  0.00  0.00    +0.000 C 
ATOM     17  O   UNL     1       4.410   5.616  18.969  0.00  0.00    +0.000 OA
BRANCH  16  18
ATOM     18  O   UNL     1       3.240   3.915  19.958  0.00  0.00    +0.000 OA
BRANCH  18  19
ATOM     19  C   UNL     1       2.838   2.879  19.019  0.00  0.00    +0.000 C 
ATOM     20  C   UNL     1       3.886   1.758  18.922  0.00  0.00    +0.000 C 
ATOM     21  C   UNL     1       1.540   2.266  19.578  0.00  0.00    +0.000 C 
ATOM     22  C   UNL     1       2.513   3.490  17.650  0.00  0.00    +0.000 C 
ENDBRANCH  18  19
ENDBRANCH  16  18
ENDBRANCH  11  14
TORSDOF 3
ENDMDL
MODEL 7
REMARK VINA RESULT:      -6.5      3.745      8.101
REMARK  Name = 
REMARK  9 active torsions:
REMARK  status: ('A' for Active; 'I' for Inactive)
REMARK    1  A    between atoms: C_1  and  C_2
REMARK    2  A    between atoms: C_4  and  C_5
REMARK    3  A    between atoms: C_11  and  N_12
REMARK    4  A    between atoms: N_12  and  C_13
REMARK    5  A    between atoms: C_14  and  O_16
REMARK    6  A    between atoms: O_16  and  C_17
REMARK    7  A    between atoms: C_17  and  C_18
REMARK    8  A    between atoms: C_17  and  C_19
REMARK    9  A    between atoms: C_17  and  C_20
REMARK                            x       y       z     vdW  Elec       q    Type
REMARK                         _______ _______ _______ _____ _____    ______ ____
ROOT
ATOM      1  C   UNL     1       1.119  11.171  18.601  0.00  0.00    +0.000 C 
ATOM      2  C   UNL     1       1.045  10.172  19.714  0.00  0.00    +0.000 A 
ATOM      3  C   UNL     1       0.475  10.490  20.926  0.00  0.00    +0.000 A 
ATOM      4  C   UNL     1       0.443   9.483  21.866  0.00  0.00    +0.000 A 
ATOM      5  C   UNL     1      -0.170   9.704  23.215  0.00  0.00    +0.000 C 
ATOM      6  N   UNL     1       0.946   8.254  21.627  0.00  0.00    +0.000 NA
ATOM      7  C   UNL     1       1.474   8.014  20.415  0.00  0.00    +0.000 A 
ATOM      8  N   UNL     1       1.994   6.772  20.149  0.00  0.00    +0.000 N 
ATOM      9  C   UNL     1       1.743   5.674  21.056  0.00  0.00    +0.000 C 
ATOM     10  C   UNL     1       2.488   4.534  20.367  0.00  0.00    +0.000 C 
ATOM     11  C   UNL     1       2.186   4.771  18.881  0.00  0.00    +0.000 C 
ATOM     12  C   UNL     1       1.962   6.306  18.767  0.00  0.00    +0.000 C 
ATOM     13  N   UNL     1       1.541   8.947  19.452  0.00  0.00    +0.000 NA
ENDROOT
BRANCH  11  14
ATOM     14  N   UNL     1       3.159   4.260  17.904  0.00  0.00    +0.000 N 
ATOM     15  C   UNL     1       2.765   3.197  16.982  0.00  0.00    +0.000 C 
ATOM     16  C   UNL     1       4.486   4.617  18.108  0.00  0.00    +0.000 C 
ATOM     17  O   UNL     1       4.811   5.423  18.974  0.00  0.00    +0.000 OA
BRANCH  16  18
ATOM     18  O   UNL     1       5.366   3.996  17.272  0.00  0.00    +0.000 OA
BRANCH  18  19
ATOM     19  C   UNL     1       6.055   4.782  16.260  0.00  0.00    +0.000 C 
ATOM     20  C   UNL     1       7.470   5.179  16.711  0.00  0.00    +0.000 C 
ATOM     21  C   UNL     1       6.190   3.875  15.023  0.00  0.00    +0.000 C 
ATOM     22  C   UNL     1       5.210   5.998  15.857  0.00  0.00    +0.000 C 
ENDBRANCH  18  19
ENDBRANCH  16  18
ENDBRANCH  11  14
TORSDOF 3
ENDMDL
MODEL 8
REMARK VINA RESULT:      -6.4      4.860      8.212
REMARK  Name = 
REMARK  9 active torsions:
REMARK  status: ('A' for Active; 'I' for Inactive)
REMARK    1  A    between atoms: C_1  and  C_2
REMARK    2  A    between atoms: C_4  and  C_5
REMARK    3  A    between atoms: C_11  and  N_12
REMARK    4  A    between atoms: N_12  and  C_13
REMARK    5  A    between atoms: C_14  and  O_16
REMARK    6  A    between atoms: O_16  and  C_17
REMARK    7  A    between atoms: C_17  and  C_18
REMARK    8  A    between atoms: C_17  and  C_19
REMARK    9  A    between atoms: C_17  and  C_20
REMARK                            x       y       z     vdW  Elec       q    Type
REMARK                         _______ _______ _______ _____ _____    ______ ____
ROOT
ATOM      1  C   UNL     1      -0.557   9.620  23.377  0.00  0.00    +0.000 C 
ATOM      2  C   UNL     1      -0.093  10.186  22.071  0.00  0.00    +0.000 A 
ATOM      3  C   UNL     1      -0.192  11.531  21.796  0.00  0.00    +0.000 A 
ATOM      4  C   UNL     1       0.289  11.939  20.571  0.00  0.00    +0.000 A 
ATOM      5  C   UNL     1       0.253  13.382  20.168  0.00  0.00    +0.000 C 
ATOM      6  N   UNL     1       0.820  11.077  19.679  0.00  0.00    +0.000 NA
ATOM      7  C   UNL     1       0.895   9.781  20.023  0.00  0.00    +0.000 A 
ATOM      8  N   UNL     1       1.431   8.885  19.131  0.00  0.00    +0.000 N 
ATOM      9  C   UNL     1       2.133   9.362  17.961  0.00  0.00    +0.000 C 
ATOM     10  C   UNL     1       2.541   8.050  17.295  0.00  0.00    +0.000 C 
ATOM     11  C   UNL     1       2.941   7.168  18.486  0.00  0.00    +0.000 C 
ATOM     12  C   UNL     1       2.091   7.702  19.673  0.00  0.00    +0.000 C 
ATOM     13  N   UNL     1       0.446   9.312  21.198  0.00  0.00    +0.000 NA
ENDROOT
BRANCH  11  14
ATOM     14  N   UNL     1       2.832   5.711  18.313  0.00  0.00    +0.000 N 
ATOM     15  C   UNL     1       1.603   5.139  17.768  0.00  0.00    +0.000 C 
ATOM     16  C   UNL     1       3.795   4.939  18.951  0.00  0.00    +0.000 C 
ATOM     17  O   UNL     1       4.760   5.447  19.513  0.00  0.00    +0.000 OA
BRANCH  16  18
ATOM     18  O   UNL     1       3.564   3.596  18.891  0.00  0.00    +0.000 OA
BRANCH  18  19
ATOM     19  C   UNL     1       3.013   2.922  20.057  0.00  0.00    +0.000 C 
ATOM     20  C   UNL     1       1.925   1.908  19.667  0.00  0.00    +0.000 C 
ATOM     21  C   UNL     1       4.176   2.144  20.700  0.00  0.00    +0.000 C 
ATOM     22  C   UNL     1       2.512   3.945  21.084  0.00  0.00    +0.000 C 
ENDBRANCH  18  19
ENDBRANCH  16  18
ENDBRANCH  11  14
TORSDOF 3
ENDMDL
MODEL 9
REMARK VINA RESULT:      -6.3      5.212      7.623
REMARK  Name = 
REMARK  9 active torsions:
REMARK  status: ('A' for Active; 'I' for Inactive)
REMARK    1  A    between atoms: C_1  and  C_2
REMARK    2  A    between atoms: C_4  and  C_5
REMARK    3  A    between atoms: C_11  and  N_12
REMARK    4  A    between atoms: N_12  and  C_13
REMARK    5  A    between atoms: C_14  and  O_16
REMARK    6  A    between atoms: O_16  and  C_17
REMARK    7  A    between atoms: C_17  and  C_18
REMARK    8  A    between atoms: C_17  and  C_19
REMARK    9  A    between atoms: C_17  and  C_20
REMARK                            x       y       z     vdW  Elec       q    Type
REMARK                         _______ _______ _______ _____ _____    ______ ____
ROOT
ATOM      1  C   UNL     1       5.184   5.448  15.941  0.00  0.00    +0.000 C 
ATOM      2  C   UNL     1       4.515   5.036  17.216  0.00  0.00    +0.000 A 
ATOM      3  C   UNL     1       4.791   3.826  17.812  0.00  0.00    +0.000 A 
ATOM      4  C   UNL     1       4.132   3.566  18.994  0.00  0.00    +0.000 A 
ATOM      5  C   UNL     1       4.366   2.291  19.745  0.00  0.00    +0.000 C 
ATOM      6  N   UNL     1       3.257   4.436  19.541  0.00  0.00    +0.000 NA
ATOM      7  C   UNL     1       3.050   5.602  18.908  0.00  0.00    +0.000 A 
ATOM      8  N   UNL     1       2.162   6.502  19.444  0.00  0.00    +0.000 N 
ATOM      9  C   UNL     1       1.664   6.313  20.788  0.00  0.00    +0.000 C 
ATOM     10  C   UNL     1       0.745   7.522  20.945  0.00  0.00    +0.000 C 
ATOM     11  C   UNL     1       1.532   8.645  20.255  0.00  0.00    +0.000 C 
ATOM     12  C   UNL     1       2.393   7.919  19.183  0.00  0.00    +0.000 C 
ATOM     13  N   UNL     1       3.655   5.922  17.753  0.00  0.00    +0.000 NA
ENDROOT
BRANCH  11  14
ATOM     14  N   UNL     1       0.760   9.769  19.703  0.00  0.00    +0.000 N 
ATOM     15  C   UNL     1       0.406   9.774  18.286  0.00  0.00    +0.000 C 
ATOM     16  C   UNL     1       0.662  10.903  20.501  0.00  0.00    +0.000 C 
ATOM     17  O   UNL     1       1.078  10.917  21.655  0.00  0.00    +0.000 OA
BRANCH  16  18
ATOM     18  O   UNL     1       0.072  11.968  19.887  0.00  0.00    +0.000 OA
BRANCH  18  19
ATOM     19  C   UNL     1       0.840  13.190  19.702  0.00  0.00    +0.000 C 
ATOM     20  C   UNL     1       2.224  12.908  19.097  0.00  0.00    +0.000 C 
ATOM     21  C   UNL     1       0.051  14.051  18.698  0.00  0.00    +0.000 C 
ATOM     22  C   UNL     1       0.929  13.973  21.019  0.00  0.00    +0.000 C 
ENDBRANCH  18  19
ENDBRANCH  16  18
ENDBRANCH  11  14
TORSDOF 3
ENDMDL
