MODEL 1
REMARK VINA RESULT:      -7.4      0.000      0.000
REMARK  Name = 
REMARK  17 active torsions:
REMARK  status: ('A' for Active; 'I' for Inactive)
REMARK    1  A    between atoms: CB_1  and  CA_2
REMARK    2  A    between atoms: CA_2  and  N_3
REMARK    3  A    between atoms: CA_2  and  C_22
REMARK    4  A    between atoms: C_4  and  CA_6
REMARK    5  A    between atoms: CA_6  and  CB_7
REMARK    6  A    between atoms: CA_6  and  N_14
REMARK    7  A    between atoms: CB_7  and  CG_8
REMARK    8  A    between atoms: C_15  and  O_17
REMARK    9  A    between atoms: O_17  and  C_18
REMARK   10  A    between atoms: C_18  and  C_19
REMARK   11  A    between atoms: C_18  and  C_20
REMARK   12  A    between atoms: C_18  and  C_21
REMARK   13  A    between atoms: N_24  and  CA_25
REMARK   14  A    between atoms: CA_25  and  C_26
REMARK   15  A    between atoms: CA_25  and  CB_28
REMARK   16  A    between atoms: C_26  and  O_27
REMARK   17  A    between atoms: CB_28  and  CG_29
REMARK                            x       y       z     vdW  Elec       q    Type
REMARK                         _______ _______ _______ _____ _____    ______ ____
ROOT
ATOM      1  N   PHE A   1       1.659   8.571  19.967  0.00  0.00    +0.000 N 
ATOM      2  C   PHE A   1       2.041   8.388  18.651  0.00  0.00    +0.000 C 
ATOM      3  O   PHE A   1       1.529   9.033  17.736  0.00  0.00    +0.000 OA
ATOM      4  H   PHE A   1       1.910   7.836  20.617  0.00  0.00    +0.000 HD
ENDROOT
BRANCH   1   6
ATOM      5  CB  PHE A   1      -0.181   8.730  21.566  0.00  0.00    +0.000 C 
ATOM      6  CA  PHE A   1       0.449   9.324  20.311  0.00  0.00    +0.000 C 
BRANCH   6   7
ATOM      7  C   PHE A   1       0.715  10.847  20.505  0.00  0.00    +0.000 C 
ATOM      8  O   PHE A   1       1.264  11.327  21.490  0.00  0.00    +0.000 OA
ATOM      9  N   PHE A   2       0.308  11.577  19.409  0.00  0.00    +0.000 N 
ATOM     10  H   PHE A   2       0.374  11.023  18.552  0.00  0.00    +0.000 HD
BRANCH   9  11
ATOM     11  CA  PHE A   2       0.508  13.021  19.193  0.00  0.00    +0.000 C 
BRANCH  11  12
ATOM     12  C   PHE A   2      -0.614  13.673  18.364  0.00  0.00    +0.000 C 
BRANCH  12  13
ATOM     13  O   PHE A   2      -1.092  12.794  17.347  0.00  0.00    +0.000 OA
ATOM     14  H   PHE A   2      -0.317  12.319  17.001  0.00  0.00    +0.000 HD
ENDBRANCH  12  13
ENDBRANCH  11  12
BRANCH  11  15
ATOM     15  CB  PHE A   2       1.881  13.151  18.504  0.00  0.00    +0.000 C 
BRANCH  15  16
ATOM     16  CG  PHE A   2       3.013  13.896  19.241  0.00  0.00    +0.000 C 
ATOM     17  CD1 PHE A   2       4.135  14.405  18.326  0.00  0.00    +0.000 C 
ATOM     18  CE1 PHE A   2       3.630  15.436  17.320  0.00  0.00    +0.000 C 
ATOM     19  CZ  PHE A   2       2.940  16.610  18.013  0.00  0.00    +0.000 C 
ATOM     20  CE2 PHE A   2       1.892  16.184  19.040  0.00  0.00    +0.000 C 
ATOM     21  CD2 PHE A   2       2.410  15.102  19.991  0.00  0.00    +0.000 C 
ENDBRANCH  15  16
ENDBRANCH  11  15
ENDBRANCH   9  11
ENDBRANCH   6   7
ENDBRANCH   1   6
BRANCH   2  22
ATOM     22  CA  PHE A   1       3.073   7.252  18.420  0.00  0.00    +0.000 C 
BRANCH  22  23
ATOM     23  N   PHE A   1       2.392   5.978  18.294  0.00  0.00    +0.000 N 
ATOM     24  C   UNK A   0       2.209   5.198  19.396  0.00  0.00    +0.000 C 
ATOM     25  O   UNK A   0       2.597   5.521  20.518  0.00  0.00    +0.000 OA
ATOM     26  H   PHE A   1       2.072   5.613  17.410  0.00  0.00    +0.000 HD
BRANCH  24  27
ATOM     27  O   UNK A   0       1.618   4.036  19.058  0.00  0.00    +0.000 OA
BRANCH  27  28
ATOM     28  C   UNK A   0       2.456   2.938  18.630  0.00  0.00    +0.000 C 
ATOM     29  C   UNK A   0       1.757   1.581  18.792  0.00  0.00    +0.000 C 
ATOM     30  C   UNK A   0       2.712   3.183  17.134  0.00  0.00    +0.000 C 
ATOM     31  C   UNK A   0       3.805   2.975  19.363  0.00  0.00    +0.000 C 
ENDBRANCH  27  28
ENDBRANCH  24  27
ENDBRANCH  22  23
BRANCH  22  32
ATOM     32  CB  PHE A   1       3.997   7.513  17.226  0.00  0.00    +0.000 C 
BRANCH  32  33
ATOM     33  CG  PHE A   1       5.018   6.416  17.008  0.00  0.00    +0.000 A 
ATOM     34  CD1 PHE A   1       5.261   5.925  15.719  0.00  0.00    +0.000 A 
ATOM     35  CE1 PHE A   1       6.267   4.983  15.502  0.00  0.00    +0.000 A 
ATOM     36  CZ  PHE A   1       7.030   4.512  16.569  0.00  0.00    +0.000 A 
ATOM     37  CE2 PHE A   1       6.771   4.963  17.860  0.00  0.00    +0.000 A 
ATOM     38  CD2 PHE A   1       5.774   5.914  18.079  0.00  0.00    +0.000 A 
ENDBRANCH  32  33
ENDBRANCH  22  32
ENDBRANCH   2  22
TORSDOF 13
ENDMDL
MODEL 2
REMARK VINA RESULT:      -7.3      2.889      5.151
REMARK  Name = 
REMARK  17 active torsions:
REMARK  status: ('A' for Active; 'I' for Inactive)
REMARK    1  A    between atoms: CB_1  and  CA_2
REMARK    2  A    between atoms: CA_2  and  N_3
REMARK    3  A    between atoms: CA_2  and  C_22
REMARK    4  A    between atoms: C_4  and  CA_6
REMARK    5  A    between atoms: CA_6  and  CB_7
REMARK    6  A    between atoms: CA_6  and  N_14
REMARK    7  A    between atoms: CB_7  and  CG_8
REMARK    8  A    between atoms: C_15  and  O_17
REMARK    9  A    between atoms: O_17  and  C_18
REMARK   10  A    between atoms: C_18  and  C_19
REMARK   11  A    between atoms: C_18  and  C_20
REMARK   12  A    between atoms: C_18  and  C_21
REMARK   13  A    between atoms: N_24  and  CA_25
REMARK   14  A    between atoms: CA_25  and  C_26
REMARK   15  A    between atoms: CA_25  and  CB_28
REMARK   16  A    between atoms: C_26  and  O_27
REMARK   17  A    between atoms: CB_28  and  CG_29
REMARK                            x       y       z     vdW  Elec       q    Type
REMARK                         _______ _______ _______ _____ _____    ______ ____
ROOT
ATOM      1  N   PHE A   1       1.360   9.185  19.023  0.00  0.00    +0.000 N 
ATOM      2  C   PHE A   1       2.206   8.592  18.104  0.00  0.00    +0.000 C 
ATOM      3  O   PHE A   1       2.484   9.140  17.038  0.00  0.00    +0.000 OA
ATOM      4  H   PHE A   1       0.963   8.578  19.730  0.00  0.00    +0.000 HD
ENDROOT
BRANCH   1   6
ATOM      5  CB  PHE A   1      -0.831   9.875  18.192  0.00  0.00    +0.000 C 
ATOM      6  CA  PHE A   1       0.540  10.347  18.664  0.00  0.00    +0.000 C 
BRANCH   6   7
ATOM      7  C   PHE A   1       0.392  11.371  19.828  0.00  0.00    +0.000 C 
ATOM      8  O   PHE A   1       0.890  12.491  19.823  0.00  0.00    +0.000 OA
ATOM      9  N   PHE A   2      -0.412  10.883  20.835  0.00  0.00    +0.000 N 
ATOM     10  H   PHE A   2      -1.110  10.232  20.467  0.00  0.00    +0.000 HD
BRANCH   9  11
ATOM     11  CA  PHE A   2      -0.866  11.617  22.030  0.00  0.00    +0.000 C 
BRANCH  11  12
ATOM     12  C   PHE A   2      -1.147  10.701  23.236  0.00  0.00    +0.000 C 
BRANCH  12  13
ATOM     13  O   PHE A   2       0.017   9.971  23.622  0.00  0.00    +0.000 OA
ATOM     14  H   PHE A   2       0.091  10.055  24.588  0.00  0.00    +0.000 HD
ENDBRANCH  12  13
ENDBRANCH  11  12
BRANCH  11  15
ATOM     15  CB  PHE A   2      -2.125  12.389  21.589  0.00  0.00    +0.000 C 
BRANCH  15  16
ATOM     16  CG  PHE A   2      -3.270  12.582  22.605  0.00  0.00    +0.000 C 
ATOM     17  CD1 PHE A   2      -3.100  13.798  23.526  0.00  0.00    +0.000 C 
ATOM     18  CE1 PHE A   2      -3.097  15.110  22.745  0.00  0.00    +0.000 C 
ATOM     19  CZ  PHE A   2      -4.356  15.264  21.894  0.00  0.00    +0.000 C 
ATOM     20  CE2 PHE A   2      -4.670  14.037  21.039  0.00  0.00    +0.000 C 
ATOM     21  CD2 PHE A   2      -4.599  12.732  21.837  0.00  0.00    +0.000 C 
ENDBRANCH  15  16
ENDBRANCH  11  15
ENDBRANCH   9  11
ENDBRANCH   6   7
ENDBRANCH   1   6
BRANCH   2  22
ATOM     22  CA  PHE A   1       2.681   7.163  18.479  0.00  0.00    +0.000 C 
BRANCH  22  23
ATOM     23  N   PHE A   1       4.130   7.106  18.493  0.00  0.00    +0.000 N 
ATOM     24  C   UNK A   0       4.789   6.433  17.509  0.00  0.00    +0.000 C 
ATOM     25  O   UNK A   0       4.212   5.856  16.589  0.00  0.00    +0.000 OA
ATOM     26  H   PHE A   1       4.687   7.516  19.227  0.00  0.00    +0.000 HD
BRANCH  24  27
ATOM     27  O   UNK A   0       6.116   6.444  17.739  0.00  0.00    +0.000 OA
BRANCH  27  28
ATOM     28  C   UNK A   0       6.735   5.244  18.253  0.00  0.00    +0.000 C 
ATOM     29  C   UNK A   0       7.472   4.459  17.158  0.00  0.00    +0.000 C 
ATOM     30  C   UNK A   0       7.765   5.729  19.286  0.00  0.00    +0.000 C 
ATOM     31  C   UNK A   0       5.698   4.373  18.977  0.00  0.00    +0.000 C 
ENDBRANCH  27  28
ENDBRANCH  24  27
ENDBRANCH  22  23
BRANCH  22  32
ATOM     32  CB  PHE A   1       2.088   6.660  19.799  0.00  0.00    +0.000 C 
BRANCH  32  33
ATOM     33  CG  PHE A   1       1.902   5.157  19.838  0.00  0.00    +0.000 A 
ATOM     34  CD1 PHE A   1       1.640   4.448  18.659  0.00  0.00    +0.000 A 
ATOM     35  CE1 PHE A   1       1.564   3.055  18.676  0.00  0.00    +0.000 A 
ATOM     36  CZ  PHE A   1       1.732   2.358  19.871  0.00  0.00    +0.000 A 
ATOM     37  CE2 PHE A   1       1.952   3.054  21.055  0.00  0.00    +0.000 A 
ATOM     38  CD2 PHE A   1       2.042   4.446  21.040  0.00  0.00    +0.000 A 
ENDBRANCH  32  33
ENDBRANCH  22  32
ENDBRANCH   2  22
TORSDOF 13
ENDMDL
MODEL 3
REMARK VINA RESULT:      -7.2      2.844      5.070
REMARK  Name = 
REMARK  17 active torsions:
REMARK  status: ('A' for Active; 'I' for Inactive)
REMARK    1  A    between atoms: CB_1  and  CA_2
REMARK    2  A    between atoms: CA_2  and  N_3
REMARK    3  A    between atoms: CA_2  and  C_22
REMARK    4  A    between atoms: C_4  and  CA_6
REMARK    5  A    between atoms: CA_6  and  CB_7
REMARK    6  A    between atoms: CA_6  and  N_14
REMARK    7  A    between atoms: CB_7  and  CG_8
REMARK    8  A    between atoms: C_15  and  O_17
REMARK    9  A    between atoms: O_17  and  C_18
REMARK   10  A    between atoms: C_18  and  C_19
REMARK   11  A    between atoms: C_18  and  C_20
REMARK   12  A    between atoms: C_18  and  C_21
REMARK   13  A    between atoms: N_24  and  CA_25
REMARK   14  A    between atoms: CA_25  and  C_26
REMARK   15  A    between atoms: CA_25  and  CB_28
REMARK   16  A    between atoms: C_26  and  O_27
REMARK   17  A    between atoms: CB_28  and  CG_29
REMARK                            x       y       z     vdW  Elec       q    Type
REMARK                         _______ _______ _______ _____ _____    ______ ____
ROOT
ATOM      1  N   PHE A   1       1.548   9.142  19.060  0.00  0.00    +0.000 N 
ATOM      2  C   PHE A   1       2.318   8.531  18.087  0.00  0.00    +0.000 C 
ATOM      3  O   PHE A   1       2.546   9.078  17.009  0.00  0.00    +0.000 OA
ATOM      4  H   PHE A   1       1.178   8.543  19.787  0.00  0.00    +0.000 HD
ENDROOT
BRANCH   1   6
ATOM      5  CB  PHE A   1      -0.628   9.898  18.248  0.00  0.00    +0.000 C 
ATOM      6  CA  PHE A   1       0.743  10.330  18.758  0.00  0.00    +0.000 C 
BRANCH   6   7
ATOM      7  C   PHE A   1       0.592  11.289  19.976  0.00  0.00    +0.000 C 
ATOM      8  O   PHE A   1       1.145  12.380  20.061  0.00  0.00    +0.000 OA
ATOM      9  N   PHE A   2      -0.281  10.785  20.915  0.00  0.00    +0.000 N 
ATOM     10  H   PHE A   2      -0.993  10.195  20.477  0.00  0.00    +0.000 HD
BRANCH   9  11
ATOM     11  CA  PHE A   2      -0.752  11.470  22.133  0.00  0.00    +0.000 C 
BRANCH  11  12
ATOM     12  C   PHE A   2      -1.033  10.507  23.301  0.00  0.00    +0.000 C 
BRANCH  12  13
ATOM     13  O   PHE A   2       0.147   9.815  23.705  0.00  0.00    +0.000 OA
ATOM     14  H   PHE A   2       0.880  10.450  23.639  0.00  0.00    +0.000 HD
ENDBRANCH  12  13
ENDBRANCH  11  12
BRANCH  11  15
ATOM     15  CB  PHE A   2      -2.016  12.245  21.710  0.00  0.00    +0.000 C 
BRANCH  15  16
ATOM     16  CG  PHE A   2      -1.954  13.785  21.649  0.00  0.00    +0.000 C 
ATOM     17  CD1 PHE A   2      -3.281  14.457  21.270  0.00  0.00    +0.000 C 
ATOM     18  CE1 PHE A   2      -4.374  14.188  22.301  0.00  0.00    +0.000 C 
ATOM     19  CZ  PHE A   2      -3.944  14.619  23.703  0.00  0.00    +0.000 C 
ATOM     20  CE2 PHE A   2      -2.568  14.095  24.110  0.00  0.00    +0.000 C 
ATOM     21  CD2 PHE A   2      -1.511  14.322  23.026  0.00  0.00    +0.000 C 
ENDBRANCH  15  16
ENDBRANCH  11  15
ENDBRANCH   9  11
ENDBRANCH   6   7
ENDBRANCH   1   6
BRANCH   2  22
ATOM     22  CA  PHE A   1       2.772   7.086  18.425  0.00  0.00    +0.000 C 
BRANCH  22  23
ATOM     23  N   PHE A   1       4.219   7.025  18.509  0.00  0.00    +0.000 N 
ATOM     24  C   UNK A   0       4.937   6.534  17.461  0.00  0.00    +0.000 C 
ATOM     25  O   UNK A   0       4.415   6.130  16.422  0.00  0.00    +0.000 OA
ATOM     26  H   PHE A   1       4.731   7.298  19.333  0.00  0.00    +0.000 HD
BRANCH  24  27
ATOM     27  O   UNK A   0       6.249   6.502  17.762  0.00  0.00    +0.000 OA
BRANCH  27  28
ATOM     28  C   UNK A   0       6.809   5.268  18.264  0.00  0.00    +0.000 C 
ATOM     29  C   UNK A   0       7.555   4.486  17.173  0.00  0.00    +0.000 C 
ATOM     30  C   UNK A   0       7.820   5.691  19.342  0.00  0.00    +0.000 C 
ATOM     31  C   UNK A   0       5.719   4.416  18.931  0.00  0.00    +0.000 C 
ENDBRANCH  27  28
ENDBRANCH  24  27
ENDBRANCH  22  23
BRANCH  22  32
ATOM     32  CB  PHE A   1       2.114   6.530  19.691  0.00  0.00    +0.000 C 
BRANCH  32  33
ATOM     33  CG  PHE A   1       1.775   5.057  19.592  0.00  0.00    +0.000 A 
ATOM     34  CD1 PHE A   1       1.815   4.406  18.353  0.00  0.00    +0.000 A 
ATOM     35  CE1 PHE A   1       1.598   3.029  18.272  0.00  0.00    +0.000 A 
ATOM     36  CZ  PHE A   1       1.325   2.293  19.424  0.00  0.00    +0.000 A 
ATOM     37  CE2 PHE A   1       1.244   2.936  20.655  0.00  0.00    +0.000 A 
ATOM     38  CD2 PHE A   1       1.473   4.309  20.742  0.00  0.00    +0.000 A 
ENDBRANCH  32  33
ENDBRANCH  22  32
ENDBRANCH   2  22
TORSDOF 13
ENDMDL
MODEL 4
REMARK VINA RESULT:      -7.1      2.346      3.762
REMARK  Name = 
REMARK  17 active torsions:
REMARK  status: ('A' for Active; 'I' for Inactive)
REMARK    1  A    between atoms: CB_1  and  CA_2
REMARK    2  A    between atoms: CA_2  and  N_3
REMARK    3  A    between atoms: CA_2  and  C_22
REMARK    4  A    between atoms: C_4  and  CA_6
REMARK    5  A    between atoms: CA_6  and  CB_7
REMARK    6  A    between atoms: CA_6  and  N_14
REMARK    7  A    between atoms: CB_7  and  CG_8
REMARK    8  A    between atoms: C_15  and  O_17
REMARK    9  A    between atoms: O_17  and  C_18
REMARK   10  A    between atoms: C_18  and  C_19
REMARK   11  A    between atoms: C_18  and  C_20
REMARK   12  A    between atoms: C_18  and  C_21
REMARK   13  A    between atoms: N_24  and  CA_25
REMARK   14  A    between atoms: CA_25  and  C_26
REMARK   15  A    between atoms: CA_25  and  CB_28
REMARK   16  A    between atoms: C_26  and  O_27
REMARK   17  A    between atoms: CB_28  and  CG_29
REMARK                            x       y       z     vdW  Elec       q    Type
REMARK                         _______ _______ _______ _____ _____    ______ ____
ROOT
ATOM      1  N   PHE A   1       1.698   8.519  20.574  0.00  0.00    +0.000 N 
ATOM      2  C   PHE A   1       1.916   8.407  19.213  0.00  0.00    +0.000 C 
ATOM      3  O   PHE A   1       1.313   9.111  18.404  0.00  0.00    +0.000 OA
ATOM      4  H   PHE A   1       2.008   7.744  21.147  0.00  0.00    +0.000 HD
ENDROOT
BRANCH   1   6
ATOM      5  CB  PHE A   1       0.521   9.146  22.621  0.00  0.00    +0.000 C 
ATOM      6  CA  PHE A   1       0.553   9.268  21.101  0.00  0.00    +0.000 C 
BRANCH   6   7
ATOM      7  C   PHE A   1       0.559  10.767  20.676  0.00  0.00    +0.000 C 
ATOM      8  O   PHE A   1       1.422  11.571  21.011  0.00  0.00    +0.000 OA
ATOM      9  N   PHE A   2      -0.492  11.061  19.835  0.00  0.00    +0.000 N 
ATOM     10  H   PHE A   2      -0.761  10.243  19.282  0.00  0.00    +0.000 HD
BRANCH   9  11
ATOM     11  CA  PHE A   2      -0.734  12.341  19.146  0.00  0.00    +0.000 C 
BRANCH  11  12
ATOM     12  C   PHE A   2      -1.308  13.430  20.071  0.00  0.00    +0.000 C 
BRANCH  12  13
ATOM     13  O   PHE A   2      -1.362  14.698  19.418  0.00  0.00    +0.000 OA
ATOM     14  H   PHE A   2      -0.525  15.150  19.616  0.00  0.00    +0.000 HD
ENDBRANCH  12  13
ENDBRANCH  11  12
BRANCH  11  15
ATOM     15  CB  PHE A   2      -1.692  12.012  17.983  0.00  0.00    +0.000 C 
BRANCH  15  16
ATOM     16  CG  PHE A   2      -2.518  10.712  18.050  0.00  0.00    +0.000 C 
ATOM     17  CD1 PHE A   2      -4.038  10.927  18.021  0.00  0.00    +0.000 C 
ATOM     18  CE1 PHE A   2      -4.500  11.571  16.717  0.00  0.00    +0.000 C 
ATOM     19  CZ  PHE A   2      -4.057  10.761  15.499  0.00  0.00    +0.000 C 
ATOM     20  CE2 PHE A   2      -2.574  10.393  15.515  0.00  0.00    +0.000 C 
ATOM     21  CD2 PHE A   2      -2.130   9.811  16.860  0.00  0.00    +0.000 C 
ENDBRANCH  15  16
ENDBRANCH  11  15
ENDBRANCH   9  11
ENDBRANCH   6   7
ENDBRANCH   1   6
BRANCH   2  22
ATOM     22  CA  PHE A   1       2.890   7.272  18.798  0.00  0.00    +0.000 C 
BRANCH  22  23
ATOM     23  N   PHE A   1       2.316   5.980  19.122  0.00  0.00    +0.000 N 
ATOM     24  C   UNK A   0       3.102   5.009  19.666  0.00  0.00    +0.000 C 
ATOM     25  O   UNK A   0       4.298   5.169  19.902  0.00  0.00    +0.000 OA
ATOM     26  H   PHE A   1       1.355   5.744  18.930  0.00  0.00    +0.000 HD
BRANCH  24  27
ATOM     27  O   UNK A   0       2.399   3.872  19.831  0.00  0.00    +0.000 OA
BRANCH  27  28
ATOM     28  C   UNK A   0       2.188   3.021  18.681  0.00  0.00    +0.000 C 
ATOM     29  C   UNK A   0       1.133   1.938  18.950  0.00  0.00    +0.000 C 
ATOM     30  C   UNK A   0       1.664   3.954  17.577  0.00  0.00    +0.000 C 
ATOM     31  C   UNK A   0       3.518   2.415  18.210  0.00  0.00    +0.000 C 
ENDBRANCH  27  28
ENDBRANCH  24  27
ENDBRANCH  22  23
BRANCH  22  32
ATOM     32  CB  PHE A   1       3.306   7.346  17.326  0.00  0.00    +0.000 C 
BRANCH  32  33
ATOM     33  CG  PHE A   1       4.647   6.698  17.049  0.00  0.00    +0.000 A 
ATOM     34  CD1 PHE A   1       5.828   7.299  17.502  0.00  0.00    +0.000 A 
ATOM     35  CE1 PHE A   1       7.056   6.657  17.334  0.00  0.00    +0.000 A 
ATOM     36  CZ  PHE A   1       7.118   5.417  16.700  0.00  0.00    +0.000 A 
ATOM     37  CE2 PHE A   1       5.956   4.829  16.209  0.00  0.00    +0.000 A 
ATOM     38  CD2 PHE A   1       4.726   5.462  16.387  0.00  0.00    +0.000 A 
ENDBRANCH  32  33
ENDBRANCH  22  32
ENDBRANCH   2  22
TORSDOF 13
ENDMDL
MODEL 5
REMARK VINA RESULT:      -7.1      2.579      4.947
REMARK  Name = 
REMARK  17 active torsions:
REMARK  status: ('A' for Active; 'I' for Inactive)
REMARK    1  A    between atoms: CB_1  and  CA_2
REMARK    2  A    between atoms: CA_2  and  N_3
REMARK    3  A    between atoms: CA_2  and  C_22
REMARK    4  A    between atoms: C_4  and  CA_6
REMARK    5  A    between atoms: CA_6  and  CB_7
REMARK    6  A    between atoms: CA_6  and  N_14
REMARK    7  A    between atoms: CB_7  and  CG_8
REMARK    8  A    between atoms: C_15  and  O_17
REMARK    9  A    between atoms: O_17  and  C_18
REMARK   10  A    between atoms: C_18  and  C_19
REMARK   11  A    between atoms: C_18  and  C_20
REMARK   12  A    between atoms: C_18  and  C_21
REMARK   13  A    between atoms: N_24  and  CA_25
REMARK   14  A    between atoms: CA_25  and  C_26
REMARK   15  A    between atoms: CA_25  and  CB_28
REMARK   16  A    between atoms: C_26  and  O_27
REMARK   17  A    between atoms: CB_28  and  CG_29
REMARK                            x       y       z     vdW  Elec       q    Type
REMARK                         _______ _______ _______ _____ _____    ______ ____
ROOT
ATOM      1  N   PHE A   1       1.128   8.468  21.160  0.00  0.00    +0.000 N 
ATOM      2  C   PHE A   1       1.413   8.315  19.816  0.00  0.00    +0.000 C 
ATOM      3  O   PHE A   1       0.992   9.107  18.974  0.00  0.00    +0.000 OA
ATOM      4  H   PHE A   1       1.263   7.654  21.747  0.00  0.00    +0.000 HD
ENDROOT
BRANCH   1   6
ATOM      5  CB  PHE A   1       0.066   9.425  23.141  0.00  0.00    +0.000 C 
ATOM      6  CA  PHE A   1       0.095   9.404  21.617  0.00  0.00    +0.000 C 
BRANCH   6   7
ATOM      7  C   PHE A   1       0.287  10.844  21.055  0.00  0.00    +0.000 C 
ATOM      8  O   PHE A   1       1.236  11.568  21.336  0.00  0.00    +0.000 OA
ATOM      9  N   PHE A   2      -0.709  11.179  20.164  0.00  0.00    +0.000 N 
ATOM     10  H   PHE A   2      -1.067  10.351  19.682  0.00  0.00    +0.000 HD
BRANCH   9  11
ATOM     11  CA  PHE A   2      -0.785  12.408  19.354  0.00  0.00    +0.000 C 
BRANCH  11  12
ATOM     12  C   PHE A   2      -1.317  13.622  20.139  0.00  0.00    +0.000 C 
BRANCH  12  13
ATOM     13  O   PHE A   2      -0.266  14.524  20.483  0.00  0.00    +0.000 OA
ATOM     14  H   PHE A   2       0.481  13.980  20.784  0.00  0.00    +0.000 HD
ENDBRANCH  12  13
ENDBRANCH  11  12
BRANCH  11  15
ATOM     15  CB  PHE A   2      -1.689  12.059  18.154  0.00  0.00    +0.000 C 
BRANCH  15  16
ATOM     16  CG  PHE A   2      -2.524  10.763  18.209  0.00  0.00    +0.000 C 
ATOM     17  CD1 PHE A   2      -4.041  10.985  18.142  0.00  0.00    +0.000 C 
ATOM     18  CE1 PHE A   2      -4.468  11.624  16.823  0.00  0.00    +0.000 C 
ATOM     19  CZ  PHE A   2      -3.999  10.804  15.621  0.00  0.00    +0.000 C 
ATOM     20  CE2 PHE A   2      -2.519  10.429  15.676  0.00  0.00    +0.000 C 
ATOM     21  CD2 PHE A   2      -2.110   9.853  17.034  0.00  0.00    +0.000 C 
ENDBRANCH  15  16
ENDBRANCH  11  15
ENDBRANCH   9  11
ENDBRANCH   6   7
ENDBRANCH   1   6
BRANCH   2  22
ATOM     22  CA  PHE A   1       2.204   7.028  19.458  0.00  0.00    +0.000 C 
BRANCH  22  23
ATOM     23  N   PHE A   1       3.463   7.376  18.829  0.00  0.00    +0.000 N 
ATOM     24  C   UNK A   0       3.927   6.631  17.786  0.00  0.00    +0.000 C 
ATOM     25  O   UNK A   0       3.324   5.657  17.338  0.00  0.00    +0.000 OA
ATOM     26  H   PHE A   1       4.045   8.134  19.151  0.00  0.00    +0.000 HD
BRANCH  24  27
ATOM     27  O   UNK A   0       5.134   7.077  17.389  0.00  0.00    +0.000 OA
BRANCH  27  28
ATOM     28  C   UNK A   0       6.230   6.136  17.334  0.00  0.00    +0.000 C 
ATOM     29  C   UNK A   0       6.241   5.337  16.022  0.00  0.00    +0.000 C 
ATOM     30  C   UNK A   0       7.504   6.993  17.397  0.00  0.00    +0.000 C 
ATOM     31  C   UNK A   0       6.207   5.213  18.562  0.00  0.00    +0.000 C 
ENDBRANCH  27  28
ENDBRANCH  24  27
ENDBRANCH  22  23
BRANCH  22  32
ATOM     32  CB  PHE A   1       2.416   6.099  20.658  0.00  0.00    +0.000 C 
BRANCH  32  33
ATOM     33  CG  PHE A   1       2.200   4.637  20.328  0.00  0.00    +0.000 A 
ATOM     34  CD1 PHE A   1       0.930   4.177  19.960  0.00  0.00    +0.000 A 
ATOM     35  CE1 PHE A   1       0.747   2.851  19.563  0.00  0.00    +0.000 A 
ATOM     36  CZ  PHE A   1       1.827   1.970  19.544  0.00  0.00    +0.000 A 
ATOM     37  CE2 PHE A   1       3.085   2.405  19.946  0.00  0.00    +0.000 A 
ATOM     38  CD2 PHE A   1       3.274   3.733  20.331  0.00  0.00    +0.000 A 
ENDBRANCH  32  33
ENDBRANCH  22  32
ENDBRANCH   2  22
TORSDOF 13
ENDMDL
MODEL 6
REMARK VINA RESULT:      -7.1      2.185      9.156
REMARK  Name = 
REMARK  17 active torsions:
REMARK  status: ('A' for Active; 'I' for Inactive)
REMARK    1  A    between atoms: CB_1  and  CA_2
REMARK    2  A    between atoms: CA_2  and  N_3
REMARK    3  A    between atoms: CA_2  and  C_22
REMARK    4  A    between atoms: C_4  and  CA_6
REMARK    5  A    between atoms: CA_6  and  CB_7
REMARK    6  A    between atoms: CA_6  and  N_14
REMARK    7  A    between atoms: CB_7  and  CG_8
REMARK    8  A    between atoms: C_15  and  O_17
REMARK    9  A    between atoms: O_17  and  C_18
REMARK   10  A    between atoms: C_18  and  C_19
REMARK   11  A    between atoms: C_18  and  C_20
REMARK   12  A    between atoms: C_18  and  C_21
REMARK   13  A    between atoms: N_24  and  CA_25
REMARK   14  A    between atoms: CA_25  and  C_26
REMARK   15  A    between atoms: CA_25  and  CB_28
REMARK   16  A    between atoms: C_26  and  O_27
REMARK   17  A    between atoms: CB_28  and  CG_29
REMARK                            x       y       z     vdW  Elec       q    Type
REMARK                         _______ _______ _______ _____ _____    ______ ____
ROOT
ATOM      1  N   PHE A   1       1.084   9.189  19.726  0.00  0.00    +0.000 N 
ATOM      2  C   PHE A   1       0.765  10.493  20.059  0.00  0.00    +0.000 C 
ATOM      3  O   PHE A   1       1.042  10.963  21.161  0.00  0.00    +0.000 OA
ATOM      4  H   PHE A   1       0.595   8.792  18.933  0.00  0.00    +0.000 HD
ENDROOT
BRANCH   1   6
ATOM      5  CB  PHE A   1       0.338   7.923  21.677  0.00  0.00    +0.000 C 
ATOM      6  CA  PHE A   1       1.508   8.226  20.747  0.00  0.00    +0.000 C 
BRANCH   6   7
ATOM      7  C   PHE A   1       2.077   6.908  20.142  0.00  0.00    +0.000 C 
ATOM      8  O   PHE A   1       2.085   5.832  20.728  0.00  0.00    +0.000 OA
ATOM      9  N   PHE A   2       2.515   7.091  18.848  0.00  0.00    +0.000 N 
ATOM     10  H   PHE A   2       1.985   7.830  18.380  0.00  0.00    +0.000 HD
BRANCH   9  11
ATOM     11  CA  PHE A   2       3.003   6.046  17.930  0.00  0.00    +0.000 C 
BRANCH  11  12
ATOM     12  C   PHE A   2       2.231   4.719  18.054  0.00  0.00    +0.000 C 
BRANCH  12  13
ATOM     13  O   PHE A   2       2.984   3.739  18.768  0.00  0.00    +0.000 OA
ATOM     14  H   PHE A   2       3.341   3.124  18.106  0.00  0.00    +0.000 HD
ENDBRANCH  12  13
ENDBRANCH  11  12
BRANCH  11  15
ATOM     15  CB  PHE A   2       4.500   5.872  18.258  0.00  0.00    +0.000 C 
BRANCH  15  16
ATOM     16  CG  PHE A   2       5.539   6.606  17.385  0.00  0.00    +0.000 C 
ATOM     17  CD1 PHE A   2       6.994   6.205  17.664  0.00  0.00    +0.000 C 
ATOM     18  CE1 PHE A   2       7.251   4.732  17.356  0.00  0.00    +0.000 C 
ATOM     19  CZ  PHE A   2       6.873   4.382  15.917  0.00  0.00    +0.000 C 
ATOM     20  CE2 PHE A   2       5.479   4.863  15.517  0.00  0.00    +0.000 C 
ATOM     21  CD2 PHE A   2       5.230   6.325  15.900  0.00  0.00    +0.000 C 
ENDBRANCH  15  16
ENDBRANCH  11  15
ENDBRANCH   9  11
ENDBRANCH   6   7
ENDBRANCH   1   6
BRANCH   2  22
ATOM     22  CA  PHE A   1      -0.046  11.263  18.982  0.00  0.00    +0.000 C 
BRANCH  22  23
ATOM     23  N   PHE A   1       0.750  12.345  18.436  0.00  0.00    +0.000 N 
ATOM     24  C   UNK A   0       0.583  13.612  18.909  0.00  0.00    +0.000 C 
ATOM     25  O   UNK A   0      -0.223  13.896  19.793  0.00  0.00    +0.000 OA
ATOM     26  H   PHE A   1       1.409  12.214  17.684  0.00  0.00    +0.000 HD
BRANCH  24  27
ATOM     27  O   UNK A   0       1.365  14.474  18.231  0.00  0.00    +0.000 OA
BRANCH  27  28
ATOM     28  C   UNK A   0       2.508  15.043  18.907  0.00  0.00    +0.000 C 
ATOM     29  C   UNK A   0       3.101  14.082  19.949  0.00  0.00    +0.000 C 
ATOM     30  C   UNK A   0       3.554  15.279  17.806  0.00  0.00    +0.000 C 
ATOM     31  C   UNK A   0       2.144  16.400  19.527  0.00  0.00    +0.000 C 
ENDBRANCH  27  28
ENDBRANCH  24  27
ENDBRANCH  22  23
BRANCH  22  32
ATOM     32  CB  PHE A   1      -0.590  10.354  17.875  0.00  0.00    +0.000 C 
BRANCH  32  33
ATOM     33  CG  PHE A   1      -2.024  10.662  17.498  0.00  0.00    +0.000 A 
ATOM     34  CD1 PHE A   1      -2.876  11.289  18.415  0.00  0.00    +0.000 A 
ATOM     35  CE1 PHE A   1      -4.167  11.661  18.038  0.00  0.00    +0.000 A 
ATOM     36  CZ  PHE A   1      -4.624  11.398  16.748  0.00  0.00    +0.000 A 
ATOM     37  CE2 PHE A   1      -3.801  10.739  15.841  0.00  0.00    +0.000 A 
ATOM     38  CD2 PHE A   1      -2.505  10.377  16.210  0.00  0.00    +0.000 A 
ENDBRANCH  32  33
ENDBRANCH  22  32
ENDBRANCH   2  22
TORSDOF 13
ENDMDL
MODEL 7
REMARK VINA RESULT:      -7.1      2.928      5.414
REMARK  Name = 
REMARK  17 active torsions:
REMARK  status: ('A' for Active; 'I' for Inactive)
REMARK    1  A    between atoms: CB_1  and  CA_2
REMARK    2  A    between atoms: CA_2  and  N_3
REMARK    3  A    between atoms: CA_2  and  C_22
REMARK    4  A    between atoms: C_4  and  CA_6
REMARK    5  A    between atoms: CA_6  and  CB_7
REMARK    6  A    between atoms: CA_6  and  N_14
REMARK    7  A    between atoms: CB_7  and  CG_8
REMARK    8  A    between atoms: C_15  and  O_17
REMARK    9  A    between atoms: O_17  and  C_18
REMARK   10  A    between atoms: C_18  and  C_19
REMARK   11  A    between atoms: C_18  and  C_20
REMARK   12  A    between atoms: C_18  and  C_21
REMARK   13  A    between atoms: N_24  and  CA_25
REMARK   14  A    between atoms: CA_25  and  C_26
REMARK   15  A    between atoms: CA_25  and  CB_28
REMARK   16  A    between atoms: C_26  and  O_27
REMARK   17  A    between atoms: CB_28  and  CG_29
REMARK                            x       y       z     vdW  Elec       q    Type
REMARK                         _______ _______ _______ _____ _____    ______ ____
ROOT
ATOM      1  N   PHE A   1       1.346   9.064  19.361  0.00  0.00    +0.000 N 
ATOM      2  C   PHE A   1       2.081   8.349  18.432  0.00  0.00    +0.000 C 
ATOM      3  O   PHE A   1       2.402   8.838  17.350  0.00  0.00    +0.000 OA
ATOM      4  H   PHE A   1       0.891   8.527  20.088  0.00  0.00    +0.000 HD
ENDROOT
BRANCH   1   6
ATOM      5  CB  PHE A   1      -0.525  10.021  18.117  0.00  0.00    +0.000 C 
ATOM      6  CA  PHE A   1       0.681  10.320  19.000  0.00  0.00    +0.000 C 
BRANCH   6   7
ATOM      7  C   PHE A   1       0.253  11.160  20.240  0.00  0.00    +0.000 C 
ATOM      8  O   PHE A   1       1.000  11.438  21.171  0.00  0.00    +0.000 OA
ATOM      9  N   PHE A   2      -1.049  11.598  20.131  0.00  0.00    +0.000 N 
ATOM     10  H   PHE A   2      -1.315  11.727  19.152  0.00  0.00    +0.000 HD
BRANCH   9  11
ATOM     11  CA  PHE A   2      -1.749  12.509  21.055  0.00  0.00    +0.000 C 
BRANCH  11  12
ATOM     12  C   PHE A   2      -1.931  11.921  22.467  0.00  0.00    +0.000 C 
BRANCH  12  13
ATOM     13  O   PHE A   2      -0.954  12.429  23.375  0.00  0.00    +0.000 OA
ATOM     14  H   PHE A   2      -1.442  12.826  24.117  0.00  0.00    +0.000 HD
ENDBRANCH  12  13
ENDBRANCH  11  12
BRANCH  11  15
ATOM     15  CB  PHE A   2      -3.102  12.821  20.384  0.00  0.00    +0.000 C 
BRANCH  15  16
ATOM     16  CG  PHE A   2      -4.368  12.881  21.262  0.00  0.00    +0.000 C 
ATOM     17  CD1 PHE A   2      -4.748  14.294  21.728  0.00  0.00    +0.000 C 
ATOM     18  CE1 PHE A   2      -5.089  15.210  20.556  0.00  0.00    +0.000 C 
ATOM     19  CZ  PHE A   2      -6.199  14.624  19.684  0.00  0.00    +0.000 C 
ATOM     20  CE2 PHE A   2      -5.958  13.170  19.282  0.00  0.00    +0.000 C 
ATOM     21  CD2 PHE A   2      -5.554  12.292  20.471  0.00  0.00    +0.000 C 
ENDBRANCH  15  16
ENDBRANCH  11  15
ENDBRANCH   9  11
ENDBRANCH   6   7
ENDBRANCH   1   6
BRANCH   2  22
ATOM     22  CA  PHE A   1       2.369   6.874  18.822  0.00  0.00    +0.000 C 
BRANCH  22  23
ATOM     23  N   PHE A   1       3.778   6.579  18.647  0.00  0.00    +0.000 N 
ATOM     24  C   UNK A   0       4.155   5.504  17.901  0.00  0.00    +0.000 C 
ATOM     25  O   UNK A   0       3.350   4.752  17.353  0.00  0.00    +0.000 OA
ATOM     26  H   PHE A   1       4.508   7.116  19.088  0.00  0.00    +0.000 HD
BRANCH  24  27
ATOM     27  O   UNK A   0       5.495   5.367  17.916  0.00  0.00    +0.000 OA
BRANCH  27  28
ATOM     28  C   UNK A   0       6.241   5.776  16.748  0.00  0.00    +0.000 C 
ATOM     29  C   UNK A   0       5.359   6.505  15.725  0.00  0.00    +0.000 C 
ATOM     30  C   UNK A   0       7.303   6.758  17.268  0.00  0.00    +0.000 C 
ATOM     31  C   UNK A   0       6.962   4.572  16.123  0.00  0.00    +0.000 C 
ENDBRANCH  27  28
ENDBRANCH  24  27
ENDBRANCH  22  23
BRANCH  22  32
ATOM     32  CB  PHE A   1       1.893   6.523  20.235  0.00  0.00    +0.000 C 
BRANCH  32  33
ATOM     33  CG  PHE A   1       1.737   5.033  20.461  0.00  0.00    +0.000 A 
ATOM     34  CD1 PHE A   1       0.901   4.278  19.630  0.00  0.00    +0.000 A 
ATOM     35  CE1 PHE A   1       0.829   2.891  19.774  0.00  0.00    +0.000 A 
ATOM     36  CZ  PHE A   1       1.580   2.248  20.757  0.00  0.00    +0.000 A 
ATOM     37  CE2 PHE A   1       2.383   2.993  21.614  0.00  0.00    +0.000 A 
ATOM     38  CD2 PHE A   1       2.467   4.377  21.465  0.00  0.00    +0.000 A 
ENDBRANCH  32  33
ENDBRANCH  22  32
ENDBRANCH   2  22
TORSDOF 13
ENDMDL
MODEL 8
REMARK VINA RESULT:      -7.0      2.477      3.872
REMARK  Name = 
REMARK  17 active torsions:
REMARK  status: ('A' for Active; 'I' for Inactive)
REMARK    1  A    between atoms: CB_1  and  CA_2
REMARK    2  A    between atoms: CA_2  and  N_3
REMARK    3  A    between atoms: CA_2  and  C_22
REMARK    4  A    between atoms: C_4  and  CA_6
REMARK    5  A    between atoms: CA_6  and  CB_7
REMARK    6  A    between atoms: CA_6  and  N_14
REMARK    7  A    between atoms: CB_7  and  CG_8
REMARK    8  A    between atoms: C_15  and  O_17
REMARK    9  A    between atoms: O_17  and  C_18
REMARK   10  A    between atoms: C_18  and  C_19
REMARK   11  A    between atoms: C_18  and  C_20
REMARK   12  A    between atoms: C_18  and  C_21
REMARK   13  A    between atoms: N_24  and  CA_25
REMARK   14  A    between atoms: CA_25  and  C_26
REMARK   15  A    between atoms: CA_25  and  CB_28
REMARK   16  A    between atoms: C_26  and  O_27
REMARK   17  A    between atoms: CB_28  and  CG_29
REMARK                            x       y       z     vdW  Elec       q    Type
REMARK                         _______ _______ _______ _____ _____    ______ ____
ROOT
ATOM      1  N   PHE A   1       1.450   8.475  20.658  0.00  0.00    +0.000 N 
ATOM      2  C   PHE A   1       1.745   8.427  19.308  0.00  0.00    +0.000 C 
ATOM      3  O   PHE A   1       1.190   9.171  18.501  0.00  0.00    +0.000 OA
ATOM      4  H   PHE A   1       1.726   7.672  21.210  0.00  0.00    +0.000 HD
ENDROOT
BRANCH   1   6
ATOM      5  CB  PHE A   1       0.191   9.053  22.670  0.00  0.00    +0.000 C 
ATOM      6  CA  PHE A   1       0.278   9.203  21.155  0.00  0.00    +0.000 C 
BRANCH   6   7
ATOM      7  C   PHE A   1       0.284  10.709  20.757  0.00  0.00    +0.000 C 
ATOM      8  O   PHE A   1       1.167  11.498  21.073  0.00  0.00    +0.000 OA
ATOM      9  N   PHE A   2      -0.794  11.028  19.960  0.00  0.00    +0.000 N 
ATOM     10  H   PHE A   2      -1.092  10.224  19.404  0.00  0.00    +0.000 HD
BRANCH   9  11
ATOM     11  CA  PHE A   2      -1.048  12.324  19.304  0.00  0.00    +0.000 C 
BRANCH  11  12
ATOM     12  C   PHE A   2      -1.822  13.315  20.193  0.00  0.00    +0.000 C 
BRANCH  12  13
ATOM     13  O   PHE A   2      -1.028  13.763  21.292  0.00  0.00    +0.000 OA
ATOM     14  H   PHE A   2      -0.795  14.689  21.107  0.00  0.00    +0.000 HD
ENDBRANCH  12  13
ENDBRANCH  11  12
BRANCH  11  15
ATOM     15  CB  PHE A   2      -1.818  11.989  18.011  0.00  0.00    +0.000 C 
BRANCH  15  16
ATOM     16  CG  PHE A   2      -3.076  11.102  18.106  0.00  0.00    +0.000 C 
ATOM     17  CD1 PHE A   2      -4.248  11.571  17.233  0.00  0.00    +0.000 C 
ATOM     18  CE1 PHE A   2      -3.903  11.535  15.746  0.00  0.00    +0.000 C 
ATOM     19  CZ  PHE A   2      -3.439  10.147  15.307  0.00  0.00    +0.000 C 
ATOM     20  CE2 PHE A   2      -2.357   9.551  16.207  0.00  0.00    +0.000 C 
ATOM     21  CD2 PHE A   2      -2.704   9.663  17.694  0.00  0.00    +0.000 C 
ENDBRANCH  15  16
ENDBRANCH  11  15
ENDBRANCH   9  11
ENDBRANCH   6   7
ENDBRANCH   1   6
BRANCH   2  22
ATOM     22  CA  PHE A   1       2.738   7.308  18.895  0.00  0.00    +0.000 C 
BRANCH  22  23
ATOM     23  N   PHE A   1       2.032   6.055  18.714  0.00  0.00    +0.000 N 
ATOM     24  C   UNK A   0       2.000   5.144  19.726  0.00  0.00    +0.000 C 
ATOM     25  O   UNK A   0       2.552   5.329  20.811  0.00  0.00    +0.000 OA
ATOM     26  H   PHE A   1       1.582   5.800  17.848  0.00  0.00    +0.000 HD
BRANCH  24  27
ATOM     27  O   UNK A   0       1.353   4.029  19.338  0.00  0.00    +0.000 OA
BRANCH  27  28
ATOM     28  C   UNK A   0       2.126   2.950  18.766  0.00  0.00    +0.000 C 
ATOM     29  C   UNK A   0       3.284   2.521  19.679  0.00  0.00    +0.000 C 
ATOM     30  C   UNK A   0       1.145   1.774  18.633  0.00  0.00    +0.000 C 
ATOM     31  C   UNK A   0       2.619   3.328  17.361  0.00  0.00    +0.000 C 
ENDBRANCH  27  28
ENDBRANCH  24  27
ENDBRANCH  22  23
BRANCH  22  32
ATOM     32  CB  PHE A   1       3.567   7.667  17.657  0.00  0.00    +0.000 C 
BRANCH  32  33
ATOM     33  CG  PHE A   1       4.619   6.632  17.320  0.00  0.00    +0.000 A 
ATOM     34  CD1 PHE A   1       5.245   5.905  18.339  0.00  0.00    +0.000 A 
ATOM     35  CE1 PHE A   1       6.145   4.884  18.028  0.00  0.00    +0.000 A 
ATOM     36  CZ  PHE A   1       6.438   4.589  16.697  0.00  0.00    +0.000 A 
ATOM     37  CE2 PHE A   1       5.853   5.332  15.677  0.00  0.00    +0.000 A 
ATOM     38  CD2 PHE A   1       4.944   6.345  15.984  0.00  0.00    +0.000 A 
ENDBRANCH  32  33
ENDBRANCH  22  32
ENDBRANCH   2  22
TORSDOF 13
ENDMDL
MODEL 9
REMARK VINA RESULT:      -6.9      0.805      1.253
REMARK  Name = 
REMARK  17 active torsions:
REMARK  status: ('A' for Active; 'I' for Inactive)
REMARK    1  A    between atoms: CB_1  and  CA_2
REMARK    2  A    between atoms: CA_2  and  N_3
REMARK    3  A    between atoms: CA_2  and  C_22
REMARK    4  A    between atoms: C_4  and  CA_6
REMARK    5  A    between atoms: CA_6  and  CB_7
REMARK    6  A    between atoms: CA_6  and  N_14
REMARK    7  A    between atoms: CB_7  and  CG_8
REMARK    8  A    between atoms: C_15  and  O_17
REMARK    9  A    between atoms: O_17  and  C_18
REMARK   10  A    between atoms: C_18  and  C_19
REMARK   11  A    between atoms: C_18  and  C_20
REMARK   12  A    between atoms: C_18  and  C_21
REMARK   13  A    between atoms: N_24  and  CA_25
REMARK   14  A    between atoms: CA_25  and  C_26
REMARK   15  A    between atoms: CA_25  and  CB_28
REMARK   16  A    between atoms: C_26  and  O_27
REMARK   17  A    between atoms: CB_28  and  CG_29
REMARK                            x       y       z     vdW  Elec       q    Type
REMARK                         _______ _______ _______ _____ _____    ______ ____
ROOT
ATOM      1  N   PHE A   1       1.711   8.633  20.094  0.00  0.00    +0.000 N 
ATOM      2  C   PHE A   1       2.125   8.325  18.811  0.00  0.00    +0.000 C 
ATOM      3  O   PHE A   1       1.567   8.801  17.823  0.00  0.00    +0.000 OA
ATOM      4  H   PHE A   1       2.019   8.011  20.831  0.00  0.00    +0.000 HD
ENDROOT
BRANCH   1   6
ATOM      5  CB  PHE A   1      -0.248   8.681  21.552  0.00  0.00    +0.000 C 
ATOM      6  CA  PHE A   1       0.432   9.307  20.339  0.00  0.00    +0.000 C 
BRANCH   6   7
ATOM      7  C   PHE A   1       0.581  10.845  20.532  0.00  0.00    +0.000 C 
ATOM      8  O   PHE A   1       0.871  11.377  21.597  0.00  0.00    +0.000 OA
ATOM      9  N   PHE A   2       0.405  11.525  19.347  0.00  0.00    +0.000 N 
ATOM     10  H   PHE A   2       0.687  10.953  18.547  0.00  0.00    +0.000 HD
BRANCH   9  11
ATOM     11  CA  PHE A   2       0.588  12.972  19.129  0.00  0.00    +0.000 C 
BRANCH  11  12
ATOM     12  C   PHE A   2      -0.564  13.618  18.336  0.00  0.00    +0.000 C 
BRANCH  12  13
ATOM     13  O   PHE A   2      -1.174  12.685  17.445  0.00  0.00    +0.000 OA
ATOM     14  H   PHE A   2      -0.790  11.815  17.646  0.00  0.00    +0.000 HD
ENDBRANCH  12  13
ENDBRANCH  11  12
BRANCH  11  15
ATOM     15  CB  PHE A   2       1.938  13.113  18.398  0.00  0.00    +0.000 C 
BRANCH  15  16
ATOM     16  CG  PHE A   2       3.108  13.802  19.130  0.00  0.00    +0.000 C 
ATOM     17  CD1 PHE A   2       4.192  14.364  18.201  0.00  0.00    +0.000 C 
ATOM     18  CE1 PHE A   2       3.651  15.463  17.290  0.00  0.00    +0.000 C 
ATOM     19  CZ  PHE A   2       3.003  16.592  18.090  0.00  0.00    +0.000 C 
ATOM     20  CE2 PHE A   2       1.999  16.104  19.133  0.00  0.00    +0.000 C 
ATOM     21  CD2 PHE A   2       2.550  14.958  19.986  0.00  0.00    +0.000 C 
ENDBRANCH  15  16
ENDBRANCH  11  15
ENDBRANCH   9  11
ENDBRANCH   6   7
ENDBRANCH   1   6
BRANCH   2  22
ATOM     22  CA  PHE A   1       3.261   7.270  18.725  0.00  0.00    +0.000 C 
BRANCH  22  23
ATOM     23  N   PHE A   1       2.991   6.172  19.633  0.00  0.00    +0.000 N 
ATOM     24  C   UNK A   0       2.170   5.158  19.243  0.00  0.00    +0.000 C 
ATOM     25  O   UNK A   0       1.631   5.120  18.137  0.00  0.00    +0.000 OA
ATOM     26  H   PHE A   1       3.358   6.135  20.572  0.00  0.00    +0.000 HD
BRANCH  24  27
ATOM     27  O   UNK A   0       1.999   4.277  20.247  0.00  0.00    +0.000 OA
BRANCH  27  28
ATOM     28  C   UNK A   0       2.620   2.976  20.133  0.00  0.00    +0.000 C 
ATOM     29  C   UNK A   0       4.055   3.067  19.594  0.00  0.00    +0.000 C 
ATOM     30  C   UNK A   0       2.668   2.423  21.567  0.00  0.00    +0.000 C 
ATOM     31  C   UNK A   0       1.751   2.039  19.282  0.00  0.00    +0.000 C 
ENDBRANCH  27  28
ENDBRANCH  24  27
ENDBRANCH  22  23
BRANCH  22  32
ATOM     32  CB  PHE A   1       3.509   6.769  17.299  0.00  0.00    +0.000 C 
BRANCH  32  33
ATOM     33  CG  PHE A   1       4.822   6.031  17.144  0.00  0.00    +0.000 A 
ATOM     34  CD1 PHE A   1       4.868   4.808  16.464  0.00  0.00    +0.000 A 
ATOM     35  CE1 PHE A   1       6.090   4.173  16.236  0.00  0.00    +0.000 A 
ATOM     36  CZ  PHE A   1       7.274   4.745  16.696  0.00  0.00    +0.000 A 
ATOM     37  CE2 PHE A   1       7.237   5.940  17.408  0.00  0.00    +0.000 A 
ATOM     38  CD2 PHE A   1       6.019   6.584  17.627  0.00  0.00    +0.000 A 
ENDBRANCH  32  33
ENDBRANCH  22  32
ENDBRANCH   2  22
TORSDOF 13
ENDMDL
