MODEL 1
REMARK VINA RESULT:      -7.7      0.000      0.000
REMARK  Name = 
REMARK  1 active torsions:
REMARK  status: ('A' for Active; 'I' for Inactive)
REMARK    1  A    between atoms: C_12  and  C_13
REMARK                            x       y       z     vdW  Elec       q    Type
REMARK                         _______ _______ _______ _____ _____    ______ ____
ROOT
ATOM      1 BR   UNL     1       0.756   8.550  21.278  0.00  0.00    +0.000 Br
ATOM      2  C   UNL     1       1.827   7.634  20.016  0.00  0.00    +0.000 A 
ATOM      3  C   UNL     1       2.186   8.266  18.827  0.00  0.00    +0.000 A 
ATOM      4  C   UNL     1       2.976   7.587  17.899  0.00  0.00    +0.000 A 
ATOM      5  C   UNL     1       3.398   6.272  18.187  0.00  0.00    +0.000 A 
ATOM      6  C   UNL     1       3.033   5.628  19.396  0.00  0.00    +0.000 A 
ATOM      7  C   UNL     1       2.247   6.332  20.290  0.00  0.00    +0.000 A 
ATOM      8  N   UNL     1       3.406   4.379  19.716  0.00  0.00    +0.000 NA
ATOM      9  C   UNL     1       4.179   3.659  18.862  0.00  0.00    +0.000 A 
ATOM     10  C   UNL     1       4.592   4.204  17.646  0.00  0.00    +0.000 A 
ATOM     11  N   UNL     1       5.359   3.654  16.653  0.00  0.00    +0.000 NA
ATOM     12  C   UNL     1       5.404   4.549  15.687  0.00  0.00    +0.000 A 
ATOM     13  N   UNL     1       4.747   5.699  16.071  0.00  0.00    +0.000 N 
ATOM     14  C   UNL     1       4.195   5.495  17.316  0.00  0.00    +0.000 A 
ATOM     15  H   UNL     1       4.677   6.544  15.525  0.00  0.00    +0.000 HD
ENDROOT
BRANCH  12  16
ATOM     16  C   UNL     1       5.996   4.454  14.391  0.00  0.00    +0.000 C 
ATOM     17  C   UNL     1       7.105   5.184  14.167  0.00  0.00    +0.000 C 
ATOM     18  C   UNL     1       7.894   5.120  12.894  0.00  0.00    +0.000 C 
ATOM     19  O   UNL     1       7.406   4.217  11.889  0.00  0.00    +0.000 OA
ATOM     20  C   UNL     1       6.283   3.497  12.184  0.00  0.00    +0.000 C 
ATOM     21  C   UNL     1       5.583   3.571  13.318  0.00  0.00    +0.000 C 
ENDBRANCH  12  16
TORSDOF 1
ENDMDL
MODEL 2
REMARK VINA RESULT:      -7.7      0.171      1.075
REMARK  Name = 
REMARK  1 active torsions:
REMARK  status: ('A' for Active; 'I' for Inactive)
REMARK    1  A    between atoms: C_12  and  C_13
REMARK                            x       y       z     vdW  Elec       q    Type
REMARK                         _______ _______ _______ _____ _____    ______ ____
ROOT
ATOM      1 BR   UNL     1       0.696   8.600  21.151  0.00  0.00    +0.000 Br
ATOM      2  C   UNL     1       1.824   7.680  19.942  0.00  0.00    +0.000 A 
ATOM      3  C   UNL     1       2.207   8.295  18.751  0.00  0.00    +0.000 A 
ATOM      4  C   UNL     1       3.039   7.614  17.862  0.00  0.00    +0.000 A 
ATOM      5  C   UNL     1       3.477   6.314  18.190  0.00  0.00    +0.000 A 
ATOM      6  C   UNL     1       3.088   5.688  19.401  0.00  0.00    +0.000 A 
ATOM      7  C   UNL     1       2.261   6.394  20.256  0.00  0.00    +0.000 A 
ATOM      8  N   UNL     1       3.476   4.453  19.758  0.00  0.00    +0.000 NA
ATOM      9  C   UNL     1       4.289   3.732  18.944  0.00  0.00    +0.000 A 
ATOM     10  C   UNL     1       4.728   4.261  17.730  0.00  0.00    +0.000 A 
ATOM     11  N   UNL     1       5.536   3.706  16.772  0.00  0.00    +0.000 NA
ATOM     12  C   UNL     1       5.593   4.582  15.789  0.00  0.00    +0.000 A 
ATOM     13  N   UNL     1       4.902   5.726  16.130  0.00  0.00    +0.000 N 
ATOM     14  C   UNL     1       4.316   5.536  17.361  0.00  0.00    +0.000 A 
ATOM     15  H   UNL     1       4.833   6.558  15.564  0.00  0.00    +0.000 HD
ENDROOT
BRANCH  12  16
ATOM     16  C   UNL     1       6.228   4.473  14.515  0.00  0.00    +0.000 C 
ATOM     17  C   UNL     1       5.668   3.639  13.619  0.00  0.00    +0.000 C 
ATOM     18  C   UNL     1       6.160   3.488  12.211  0.00  0.00    +0.000 C 
ATOM     19  O   UNL     1       7.288   4.296  11.841  0.00  0.00    +0.000 OA
ATOM     20  C   UNL     1       7.802   5.130  12.794  0.00  0.00    +0.000 C 
ATOM     21  C   UNL     1       7.360   5.249  14.048  0.00  0.00    +0.000 C 
ENDBRANCH  12  16
TORSDOF 1
ENDMDL
MODEL 3
REMARK VINA RESULT:      -7.5      4.318      6.241
REMARK  Name = 
REMARK  1 active torsions:
REMARK  status: ('A' for Active; 'I' for Inactive)
REMARK    1  A    between atoms: C_12  and  C_13
REMARK                            x       y       z     vdW  Elec       q    Type
REMARK                         _______ _______ _______ _____ _____    ______ ____
ROOT
ATOM      1 BR   UNL     1      -1.741  12.864  23.135  0.00  0.00    +0.000 Br
ATOM      2  C   UNL     1      -0.780  11.460  22.307  0.00  0.00    +0.000 A 
ATOM      3  C   UNL     1      -0.508  10.295  23.021  0.00  0.00    +0.000 A 
ATOM      4  C   UNL     1       0.200   9.262  22.406  0.00  0.00    +0.000 A 
ATOM      5  C   UNL     1       0.625   9.420  21.070  0.00  0.00    +0.000 A 
ATOM      6  C   UNL     1       0.349  10.605  20.344  0.00  0.00    +0.000 A 
ATOM      7  C   UNL     1      -0.354  11.608  20.987  0.00  0.00    +0.000 A 
ATOM      8  N   UNL     1       0.732  10.804  19.072  0.00  0.00    +0.000 NA
ATOM      9  C   UNL     1       1.421   9.841  18.409  0.00  0.00    +0.000 A 
ATOM     10  C   UNL     1       1.742   8.638  19.037  0.00  0.00    +0.000 A 
ATOM     11  N   UNL     1       2.427   7.552  18.557  0.00  0.00    +0.000 NA
ATOM     12  C   UNL     1       2.521   6.704  19.562  0.00  0.00    +0.000 A 
ATOM     13  N   UNL     1       1.839   7.188  20.659  0.00  0.00    +0.000 N 
ATOM     14  C   UNL     1       1.351   8.439  20.357  0.00  0.00    +0.000 A 
ATOM     15  H   UNL     1       1.727   6.706  21.538  0.00  0.00    +0.000 HD
ENDROOT
BRANCH  12  16
ATOM     16  C   UNL     1       3.207   5.454  19.631  0.00  0.00    +0.000 C 
ATOM     17  C   UNL     1       2.504   4.390  20.060  0.00  0.00    +0.000 C 
ATOM     18  C   UNL     1       3.055   2.996  20.098  0.00  0.00    +0.000 C 
ATOM     19  O   UNL     1       4.407   2.835  19.642  0.00  0.00    +0.000 OA
ATOM     20  C   UNL     1       5.061   3.953  19.208  0.00  0.00    +0.000 C 
ATOM     21  C   UNL     1       4.563   5.191  19.189  0.00  0.00    +0.000 C 
ENDBRANCH  12  16
TORSDOF 1
ENDMDL
MODEL 4
REMARK VINA RESULT:      -7.5      4.066      5.815
REMARK  Name = 
REMARK  1 active torsions:
REMARK  status: ('A' for Active; 'I' for Inactive)
REMARK    1  A    between atoms: C_12  and  C_13
REMARK                            x       y       z     vdW  Elec       q    Type
REMARK                         _______ _______ _______ _____ _____    ______ ____
ROOT
ATOM      1 BR   UNL     1      -1.793  12.367  23.092  0.00  0.00    +0.000 Br
ATOM      2  C   UNL     1      -0.762  11.051  22.206  0.00  0.00    +0.000 A 
ATOM      3  C   UNL     1      -0.389   9.892  22.885  0.00  0.00    +0.000 A 
ATOM      4  C   UNL     1       0.371   8.925  22.228  0.00  0.00    +0.000 A 
ATOM      5  C   UNL     1       0.745   9.140  20.884  0.00  0.00    +0.000 A 
ATOM      6  C   UNL     1       0.366  10.318  20.193  0.00  0.00    +0.000 A 
ATOM      7  C   UNL     1      -0.386  11.256  20.878  0.00  0.00    +0.000 A 
ATOM      8  N   UNL     1       0.697  10.570  18.917  0.00  0.00    +0.000 NA
ATOM      9  C   UNL     1       1.432   9.671  18.213  0.00  0.00    +0.000 A 
ATOM     10  C   UNL     1       1.853   8.480  18.804  0.00  0.00    +0.000 A 
ATOM     11  N   UNL     1       2.597   7.455  18.280  0.00  0.00    +0.000 NA
ATOM     12  C   UNL     1       2.779   6.596  19.262  0.00  0.00    +0.000 A 
ATOM     13  N   UNL     1       2.097   7.007  20.389  0.00  0.00    +0.000 N 
ATOM     14  C   UNL     1       1.515   8.228  20.129  0.00  0.00    +0.000 A 
ATOM     15  H   UNL     1       2.044   6.501  21.259  0.00  0.00    +0.000 HD
ENDROOT
BRANCH  12  16
ATOM     16  C   UNL     1       3.551   5.395  19.284  0.00  0.00    +0.000 C 
ATOM     17  C   UNL     1       4.852   5.495  18.954  0.00  0.00    +0.000 C 
ATOM     18  C   UNL     1       5.813   4.346  19.020  0.00  0.00    +0.000 C 
ATOM     19  O   UNL     1       5.274   3.092  19.467  0.00  0.00    +0.000 OA
ATOM     20  C   UNL     1       3.949   3.061  19.799  0.00  0.00    +0.000 C 
ATOM     21  C   UNL     1       3.101   4.089  19.726  0.00  0.00    +0.000 C 
ENDBRANCH  12  16
TORSDOF 1
ENDMDL
MODEL 5
REMARK VINA RESULT:      -7.5      4.492      7.851
REMARK  Name = 
REMARK  1 active torsions:
REMARK  status: ('A' for Active; 'I' for Inactive)
REMARK    1  A    between atoms: C_12  and  C_13
REMARK                            x       y       z     vdW  Elec       q    Type
REMARK                         _______ _______ _______ _____ _____    ______ ____
ROOT
ATOM      1 BR   UNL     1       6.425   4.373  14.714  0.00  0.00    +0.000 Br
ATOM      2  C   UNL     1       5.289   5.137  16.020  0.00  0.00    +0.000 A 
ATOM      3  C   UNL     1       4.974   6.494  15.953  0.00  0.00    +0.000 A 
ATOM      4  C   UNL     1       4.135   7.053  16.917  0.00  0.00    +0.000 A 
ATOM      5  C   UNL     1       3.621   6.231  17.942  0.00  0.00    +0.000 A 
ATOM      6  C   UNL     1       3.940   4.852  18.010  0.00  0.00    +0.000 A 
ATOM      7  C   UNL     1       4.776   4.333  17.038  0.00  0.00    +0.000 A 
ATOM      8  N   UNL     1       3.478   4.028  18.965  0.00  0.00    +0.000 NA
ATOM      9  C   UNL     1       2.654   4.502  19.934  0.00  0.00    +0.000 A 
ATOM     10  C   UNL     1       2.280   5.845  19.953  0.00  0.00    +0.000 A 
ATOM     11  N   UNL     1       1.473   6.520  20.833  0.00  0.00    +0.000 NA
ATOM     12  C   UNL     1       1.492   7.781  20.452  0.00  0.00    +0.000 A 
ATOM     13  N   UNL     1       2.230   7.920  19.296  0.00  0.00    +0.000 N 
ATOM     14  C   UNL     1       2.768   6.696  18.968  0.00  0.00    +0.000 A 
ATOM     15  H   UNL     1       2.360   8.779  18.783  0.00  0.00    +0.000 HD
ENDROOT
BRANCH  12  16
ATOM     16  C   UNL     1       0.891   8.921  21.068  0.00  0.00    +0.000 C 
ATOM     17  C   UNL     1       0.308   8.737  22.266  0.00  0.00    +0.000 C 
ATOM     18  C   UNL     1      -0.280   9.851  23.080  0.00  0.00    +0.000 C 
ATOM     19  O   UNL     1      -0.192  11.167  22.512  0.00  0.00    +0.000 OA
ATOM     20  C   UNL     1       0.423  11.288  21.298  0.00  0.00    +0.000 C 
ATOM     21  C   UNL     1       0.934  10.286  20.579  0.00  0.00    +0.000 C 
ENDBRANCH  12  16
TORSDOF 1
ENDMDL
MODEL 6
REMARK VINA RESULT:      -7.5      4.595      7.956
REMARK  Name = 
REMARK  1 active torsions:
REMARK  status: ('A' for Active; 'I' for Inactive)
REMARK    1  A    between atoms: C_12  and  C_13
REMARK                            x       y       z     vdW  Elec       q    Type
REMARK                         _______ _______ _______ _____ _____    ______ ____
ROOT
ATOM      1 BR   UNL     1       6.202   4.167  15.213  0.00  0.00    +0.000 Br
ATOM      2  C   UNL     1       5.077   4.996  16.488  0.00  0.00    +0.000 A 
ATOM      3  C   UNL     1       4.865   6.373  16.431  0.00  0.00    +0.000 A 
ATOM      4  C   UNL     1       4.034   6.980  17.373  0.00  0.00    +0.000 A 
ATOM      5  C   UNL     1       3.424   6.185  18.366  0.00  0.00    +0.000 A 
ATOM      6  C   UNL     1       3.640   4.786  18.425  0.00  0.00    +0.000 A 
ATOM      7  C   UNL     1       4.471   4.219  17.475  0.00  0.00    +0.000 A 
ATOM      8  N   UNL     1       3.085   3.986  19.350  0.00  0.00    +0.000 NA
ATOM      9  C   UNL     1       2.262   4.507  20.296  0.00  0.00    +0.000 A 
ATOM     10  C   UNL     1       1.987   5.874  20.322  0.00  0.00    +0.000 A 
ATOM     11  N   UNL     1       1.200   6.595  21.183  0.00  0.00    +0.000 NA
ATOM     12  C   UNL     1       1.324   7.856  20.823  0.00  0.00    +0.000 A 
ATOM     13  N   UNL     1       2.112   7.955  19.695  0.00  0.00    +0.000 N 
ATOM     14  C   UNL     1       2.571   6.699  19.368  0.00  0.00    +0.000 A 
ATOM     15  H   UNL     1       2.323   8.809  19.201  0.00  0.00    +0.000 HD
ENDROOT
BRANCH  12  16
ATOM     16  C   UNL     1       0.786   9.030  21.434  0.00  0.00    +0.000 C 
ATOM     17  C   UNL     1       0.958  10.195  20.783  0.00  0.00    +0.000 C 
ATOM     18  C   UNL     1       0.371  11.495  21.246  0.00  0.00    +0.000 C 
ATOM     19  O   UNL     1      -0.408  11.446  22.452  0.00  0.00    +0.000 OA
ATOM     20  C   UNL     1      -0.553  10.230  23.057  0.00  0.00    +0.000 C 
ATOM     21  C   UNL     1      -0.018   9.081  22.639  0.00  0.00    +0.000 C 
ENDBRANCH  12  16
TORSDOF 1
ENDMDL
MODEL 7
REMARK VINA RESULT:      -6.9      3.444      5.579
REMARK  Name = 
REMARK  1 active torsions:
REMARK  status: ('A' for Active; 'I' for Inactive)
REMARK    1  A    between atoms: C_12  and  C_13
REMARK                            x       y       z     vdW  Elec       q    Type
REMARK                         _______ _______ _______ _____ _____    ______ ____
ROOT
ATOM      1 BR   UNL     1      -2.021  11.912  23.360  0.00  0.00    +0.000 Br
ATOM      2  C   UNL     1      -0.920  10.851  22.247  0.00  0.00    +0.000 A 
ATOM      3  C   UNL     1      -0.431   9.633  22.717  0.00  0.00    +0.000 A 
ATOM      4  C   UNL     1       0.380   8.853  21.893  0.00  0.00    +0.000 A 
ATOM      5  C   UNL     1       0.687   9.314  20.595  0.00  0.00    +0.000 A 
ATOM      6  C   UNL     1       0.190  10.552  20.116  0.00  0.00    +0.000 A 
ATOM      7  C   UNL     1      -0.609  11.299  20.963  0.00  0.00    +0.000 A 
ATOM      8  N   UNL     1       0.455  11.036  18.892  0.00  0.00    +0.000 NA
ATOM      9  C   UNL     1       1.234  10.329  18.033  0.00  0.00    +0.000 A 
ATOM     10  C   UNL     1       1.770   9.098  18.411  0.00  0.00    +0.000 A 
ATOM     11  N   UNL     1       2.575   8.239  17.709  0.00  0.00    +0.000 NA
ATOM     12  C   UNL     1       2.859   7.250  18.532  0.00  0.00    +0.000 A 
ATOM     13  N   UNL     1       2.188   7.414  19.725  0.00  0.00    +0.000 N 
ATOM     14  C   UNL     1       1.501   8.606  19.683  0.00  0.00    +0.000 A 
ATOM     15  H   UNL     1       2.207   6.770  20.501  0.00  0.00    +0.000 HD
ENDROOT
BRANCH  12  16
ATOM     16  C   UNL     1       3.727   6.132  18.338  0.00  0.00    +0.000 C 
ATOM     17  C   UNL     1       3.924   5.318  19.391  0.00  0.00    +0.000 C 
ATOM     18  C   UNL     1       4.729   4.054  19.321  0.00  0.00    +0.000 C 
ATOM     19  O   UNL     1       5.298   3.735  18.041  0.00  0.00    +0.000 OA
ATOM     20  C   UNL     1       5.050   4.597  17.010  0.00  0.00    +0.000 C 
ATOM     21  C   UNL     1       4.340   5.724  17.089  0.00  0.00    +0.000 C 
ENDBRANCH  12  16
TORSDOF 1
ENDMDL
MODEL 8
REMARK VINA RESULT:      -6.9      1.853      3.034
REMARK  Name = 
REMARK  1 active torsions:
REMARK  status: ('A' for Active; 'I' for Inactive)
REMARK    1  A    between atoms: C_12  and  C_13
REMARK                            x       y       z     vdW  Elec       q    Type
REMARK                         _______ _______ _______ _____ _____    ______ ____
ROOT
ATOM      1 BR   UNL     1       1.386   2.515  22.062  0.00  0.00    +0.000 Br
ATOM      2  C   UNL     1       2.312   3.090  20.516  0.00  0.00    +0.000 A 
ATOM      3  C   UNL     1       2.753   2.151  19.585  0.00  0.00    +0.000 A 
ATOM      4  C   UNL     1       3.435   2.580  18.446  0.00  0.00    +0.000 A 
ATOM      5  C   UNL     1       3.662   3.959  18.260  0.00  0.00    +0.000 A 
ATOM      6  C   UNL     1       3.214   4.915  19.206  0.00  0.00    +0.000 A 
ATOM      7  C   UNL     1       2.544   4.452  20.324  0.00  0.00    +0.000 A 
ATOM      8  N   UNL     1       3.407   6.238  19.076  0.00  0.00    +0.000 NA
ATOM      9  C   UNL     1       4.059   6.728  17.990  0.00  0.00    +0.000 A 
ATOM     10  C   UNL     1       4.539   5.868  17.002  0.00  0.00    +0.000 A 
ATOM     11  N   UNL     1       5.219   6.151  15.846  0.00  0.00    +0.000 NA
ATOM     12  C   UNL     1       5.503   4.989  15.294  0.00  0.00    +0.000 A 
ATOM     13  N   UNL     1       4.948   3.963  16.031  0.00  0.00    +0.000 N 
ATOM     14  C   UNL     1       4.345   4.499  17.146  0.00  0.00    +0.000 A 
ATOM     15  H   UNL     1       4.988   2.984  15.793  0.00  0.00    +0.000 HD
ENDROOT
BRANCH  12  16
ATOM     16  C   UNL     1       6.271   4.705  14.124  0.00  0.00    +0.000 C 
ATOM     17  C   UNL     1       5.854   3.689  13.347  0.00  0.00    +0.000 C 
ATOM     18  C   UNL     1       6.495   3.330  12.040  0.00  0.00    +0.000 C 
ATOM     19  O   UNL     1       7.609   4.142  11.636  0.00  0.00    +0.000 OA
ATOM     20  C   UNL     1       7.975   5.165  12.464  0.00  0.00    +0.000 C 
ATOM     21  C   UNL     1       7.401   5.468  13.630  0.00  0.00    +0.000 C 
ENDBRANCH  12  16
TORSDOF 1
ENDMDL
MODEL 9
REMARK VINA RESULT:      -6.9      4.643      6.262
REMARK  Name = 
REMARK  1 active torsions:
REMARK  status: ('A' for Active; 'I' for Inactive)
REMARK    1  A    between atoms: C_12  and  C_13
REMARK                            x       y       z     vdW  Elec       q    Type
REMARK                         _______ _______ _______ _____ _____    ______ ____
ROOT
ATOM      1 BR   UNL     1      -0.651  13.554  21.352  0.00  0.00    +0.000 Br
ATOM      2  C   UNL     1       0.042  11.838  20.959  0.00  0.00    +0.000 A 
ATOM      3  C   UNL     1      -0.038  10.826  21.914  0.00  0.00    +0.000 A 
ATOM      4  C   UNL     1       0.474   9.562  21.620  0.00  0.00    +0.000 A 
ATOM      5  C   UNL     1       1.062   9.335  20.358  0.00  0.00    +0.000 A 
ATOM      6  C   UNL     1       1.144  10.364  19.387  0.00  0.00    +0.000 A 
ATOM      7  C   UNL     1       0.627  11.605  19.715  0.00  0.00    +0.000 A 
ATOM      8  N   UNL     1       1.695  10.199  18.173  0.00  0.00    +0.000 NA
ATOM      9  C   UNL     1       2.210   8.995  17.816  0.00  0.00    +0.000 A 
ATOM     10  C   UNL     1       2.177   7.918  18.702  0.00  0.00    +0.000 A 
ATOM     11  N   UNL     1       2.639   6.637  18.545  0.00  0.00    +0.000 NA
ATOM     12  C   UNL     1       2.429   6.029  19.694  0.00  0.00    +0.000 A 
ATOM     13  N   UNL     1       1.765   6.868  20.564  0.00  0.00    +0.000 N 
ATOM     14  C   UNL     1       1.613   8.096  19.961  0.00  0.00    +0.000 A 
ATOM     15  H   UNL     1       1.453   6.623  21.492  0.00  0.00    +0.000 HD
ENDROOT
BRANCH  12  16
ATOM     16  C   UNL     1       2.798   4.711  20.102  0.00  0.00    +0.000 C 
ATOM     17  C   UNL     1       3.841   4.141  19.471  0.00  0.00    +0.000 C 
ATOM     18  C   UNL     1       4.407   2.805  19.849  0.00  0.00    +0.000 C 
ATOM     19  O   UNL     1       3.771   2.134  20.948  0.00  0.00    +0.000 OA
ATOM     20  C   UNL     1       2.725   2.771  21.553  0.00  0.00    +0.000 C 
ATOM     21  C   UNL     1       2.224   3.957  21.201  0.00  0.00    +0.000 C 
ENDBRANCH  12  16
TORSDOF 1
ENDMDL
