MODEL 1
REMARK VINA RESULT:      -7.6      0.000      0.000
REMARK  Name = 
REMARK  8 active torsions:
REMARK  status: ('A' for Active; 'I' for Inactive)
REMARK    1  A    between atoms: C_1  and  C_2
REMARK    2  A    between atoms: C_2  and  N_3
REMARK    3  A    between atoms: N_3  and  C_4
REMARK    4  A    between atoms: N_3  and  C_6
REMARK    5  A    between atoms: C_4  and  C_5
REMARK    6  A    between atoms: C_6  and  C_7
REMARK    7  A    between atoms: C_7  and  C_8
REMARK    8  A    between atoms: C_10  and  C_11
REMARK                            x       y       z     vdW  Elec       q    Type
REMARK                         _______ _______ _______ _____ _____    ______ ____
ROOT
ATOM      1  C   UNL     1       6.053   4.617  18.091  0.00  0.00    +0.000 A 
ATOM      2  C   UNL     1       5.529   4.624  16.782  0.00  0.00    +0.000 A 
ATOM      3  C   UNL     1       6.626   4.516  15.961  0.00  0.00    +0.000 A 
ATOM      4  O   UNL     1       7.741   4.412  16.735  0.00  0.00    +0.000 OA
ATOM      5  N   UNL     1       7.387   4.472  18.075  0.00  0.00    +0.000 NA
ENDROOT
BRANCH   3   6
ATOM      6  C   UNL     1       6.805   4.534  14.523  0.00  0.00    +0.000 A 
ATOM      7  C   UNL     1       6.121   3.688  13.657  0.00  0.00    +0.000 A 
ATOM      8  C   UNL     1       6.431   3.732  12.301  0.00  0.00    +0.000 A 
ATOM      9  C   UNL     1       7.403   4.617  11.850  0.00  0.00    +0.000 A 
ATOM     10  C   UNL     1       8.017   5.441  12.776  0.00  0.00    +0.000 A 
ATOM     11  N   UNL     1       7.739   5.423  14.096  0.00  0.00    +0.000 NA
ENDBRANCH   3   6
BRANCH   1  12
ATOM     12  C   UNL     1       5.321   4.690  19.385  0.00  0.00    +0.000 C 
BRANCH  12  13
ATOM     13  C   UNL     1       3.974   3.939  19.428  0.00  0.00    +0.000 C 
ATOM     14  C   UNL     1       4.011   2.788  20.469  0.00  0.00    +0.000 C 
ATOM     15  O   UNL     1       4.365   1.833  19.422  0.00  0.00    +0.000 OA
ATOM     16  C   UNL     1       3.930   2.774  18.406  0.00  0.00    +0.000 C 
BRANCH  13  17
ATOM     17  N   UNL     1       2.706   4.784  19.395  0.00  0.00    +0.000 NA
BRANCH  17  19
ATOM     18  C   UNL     1       0.636   3.372  19.984  0.00  0.00    +0.000 C 
ATOM     19  C   UNL     1       1.769   4.294  20.432  0.00  0.00    +0.000 C 
ENDBRANCH  17  19
BRANCH  17  20
ATOM     20  C   UNL     1       2.958   6.240  19.416  0.00  0.00    +0.000 C 
ATOM     21  C   UNL     1       2.724   7.047  18.140  0.00  0.00    +0.000 C 
ENDBRANCH  17  20
ENDBRANCH  13  17
ENDBRANCH  12  13
ENDBRANCH   1  12
TORSDOF 6
ENDMDL
MODEL 2
REMARK VINA RESULT:      -7.6      1.863      2.746
REMARK  Name = 
REMARK  8 active torsions:
REMARK  status: ('A' for Active; 'I' for Inactive)
REMARK    1  A    between atoms: C_1  and  C_2
REMARK    2  A    between atoms: C_2  and  N_3
REMARK    3  A    between atoms: N_3  and  C_4
REMARK    4  A    between atoms: N_3  and  C_6
REMARK    5  A    between atoms: C_4  and  C_5
REMARK    6  A    between atoms: C_6  and  C_7
REMARK    7  A    between atoms: C_7  and  C_8
REMARK    8  A    between atoms: C_10  and  C_11
REMARK                            x       y       z     vdW  Elec       q    Type
REMARK                         _______ _______ _______ _____ _____    ______ ____
ROOT
ATOM      1  C   UNL     1       5.057   5.474  17.825  0.00  0.00    +0.000 A 
ATOM      2  C   UNL     1       5.212   4.524  16.793  0.00  0.00    +0.000 A 
ATOM      3  C   UNL     1       5.897   5.186  15.803  0.00  0.00    +0.000 A 
ATOM      4  O   UNL     1       6.170   6.450  16.231  0.00  0.00    +0.000 OA
ATOM      5  N   UNL     1       5.647   6.634  17.503  0.00  0.00    +0.000 NA
ENDROOT
BRANCH   3   6
ATOM      6  C   UNL     1       6.315   4.827  14.462  0.00  0.00    +0.000 A 
ATOM      7  C   UNL     1       5.652   3.885  13.683  0.00  0.00    +0.000 A 
ATOM      8  C   UNL     1       6.187   3.553  12.441  0.00  0.00    +0.000 A 
ATOM      9  C   UNL     1       7.356   4.172  12.014  0.00  0.00    +0.000 A 
ATOM     10  C   UNL     1       7.936   5.116  12.841  0.00  0.00    +0.000 A 
ATOM     11  N   UNL     1       7.443   5.459  14.049  0.00  0.00    +0.000 NA
ENDBRANCH   3   6
BRANCH   1  12
ATOM     12  C   UNL     1       4.405   5.304  19.152  0.00  0.00    +0.000 C 
BRANCH  12  13
ATOM     13  C   UNL     1       2.870   5.459  19.160  0.00  0.00    +0.000 C 
ATOM     14  C   UNL     1       2.398   6.403  18.022  0.00  0.00    +0.000 C 
ATOM     15  O   UNL     1       2.390   7.535  18.945  0.00  0.00    +0.000 OA
ATOM     16  C   UNL     1       2.412   6.624  20.075  0.00  0.00    +0.000 C 
BRANCH  13  17
ATOM     17  N   UNL     1       2.046   4.195  19.379  0.00  0.00    +0.000 NA
BRANCH  17  19
ATOM     18  C   UNL     1       2.394   2.227  17.757  0.00  0.00    +0.000 C 
ATOM     19  C   UNL     1       1.749   3.577  18.067  0.00  0.00    +0.000 C 
ENDBRANCH  17  19
BRANCH  17  20
ATOM     20  C   UNL     1       2.615   3.278  20.389  0.00  0.00    +0.000 C 
ATOM     21  C   UNL     1       1.757   2.879  21.587  0.00  0.00    +0.000 C 
ENDBRANCH  17  20
ENDBRANCH  13  17
ENDBRANCH  12  13
ENDBRANCH   1  12
TORSDOF 6
ENDMDL
MODEL 3
REMARK VINA RESULT:      -7.6      1.776      2.478
REMARK  Name = 
REMARK  8 active torsions:
REMARK  status: ('A' for Active; 'I' for Inactive)
REMARK    1  A    between atoms: C_1  and  C_2
REMARK    2  A    between atoms: C_2  and  N_3
REMARK    3  A    between atoms: N_3  and  C_4
REMARK    4  A    between atoms: N_3  and  C_6
REMARK    5  A    between atoms: C_4  and  C_5
REMARK    6  A    between atoms: C_6  and  C_7
REMARK    7  A    between atoms: C_7  and  C_8
REMARK    8  A    between atoms: C_10  and  C_11
REMARK                            x       y       z     vdW  Elec       q    Type
REMARK                         _______ _______ _______ _____ _____    ______ ____
ROOT
ATOM      1  C   UNL     1       5.313   5.465  17.881  0.00  0.00    +0.000 A 
ATOM      2  C   UNL     1       5.661   4.495  16.918  0.00  0.00    +0.000 A 
ATOM      3  C   UNL     1       6.011   5.215  15.801  0.00  0.00    +0.000 A 
ATOM      4  O   UNL     1       5.914   6.542  16.091  0.00  0.00    +0.000 OA
ATOM      5  N   UNL     1       5.479   6.704  17.397  0.00  0.00    +0.000 NA
ENDROOT
BRANCH   3   6
ATOM      6  C   UNL     1       6.395   4.848  14.453  0.00  0.00    +0.000 A 
ATOM      7  C   UNL     1       5.720   3.893  13.700  0.00  0.00    +0.000 A 
ATOM      8  C   UNL     1       6.224   3.556  12.447  0.00  0.00    +0.000 A 
ATOM      9  C   UNL     1       7.375   4.182  11.982  0.00  0.00    +0.000 A 
ATOM     10  C   UNL     1       7.969   5.137  12.785  0.00  0.00    +0.000 A 
ATOM     11  N   UNL     1       7.506   5.486  14.003  0.00  0.00    +0.000 NA
ENDBRANCH   3   6
BRANCH   1  12
ATOM     12  C   UNL     1       4.871   5.259  19.287  0.00  0.00    +0.000 C 
BRANCH  12  13
ATOM     13  C   UNL     1       3.398   4.834  19.464  0.00  0.00    +0.000 C 
ATOM     14  C   UNL     1       2.557   5.206  18.213  0.00  0.00    +0.000 C 
ATOM     15  O   UNL     1       2.141   6.455  18.847  0.00  0.00    +0.000 OA
ATOM     16  C   UNL     1       2.555   5.945  20.141  0.00  0.00    +0.000 C 
BRANCH  13  17
ATOM     17  N   UNL     1       3.140   3.461  20.072  0.00  0.00    +0.000 NA
BRANCH  17  19
ATOM     18  C   UNL     1       1.273   2.610  21.626  0.00  0.00    +0.000 C 
ATOM     19  C   UNL     1       2.377   3.623  21.331  0.00  0.00    +0.000 C 
ENDBRANCH  17  19
BRANCH  17  20
ATOM     20  C   UNL     1       2.574   2.482  19.119  0.00  0.00    +0.000 C 
ATOM     21  C   UNL     1       3.529   1.628  18.288  0.00  0.00    +0.000 C 
ENDBRANCH  17  20
ENDBRANCH  13  17
ENDBRANCH  12  13
ENDBRANCH   1  12
TORSDOF 6
ENDMDL
MODEL 4
REMARK VINA RESULT:      -7.5      0.886      1.018
REMARK  Name = 
REMARK  8 active torsions:
REMARK  status: ('A' for Active; 'I' for Inactive)
REMARK    1  A    between atoms: C_1  and  C_2
REMARK    2  A    between atoms: C_2  and  N_3
REMARK    3  A    between atoms: N_3  and  C_4
REMARK    4  A    between atoms: N_3  and  C_6
REMARK    5  A    between atoms: C_4  and  C_5
REMARK    6  A    between atoms: C_6  and  C_7
REMARK    7  A    between atoms: C_7  and  C_8
REMARK    8  A    between atoms: C_10  and  C_11
REMARK                            x       y       z     vdW  Elec       q    Type
REMARK                         _______ _______ _______ _____ _____    ______ ____
ROOT
ATOM      1  C   UNL     1       5.916   4.529  18.136  0.00  0.00    +0.000 A 
ATOM      2  C   UNL     1       5.432   4.428  16.815  0.00  0.00    +0.000 A 
ATOM      3  C   UNL     1       6.552   4.493  16.021  0.00  0.00    +0.000 A 
ATOM      4  O   UNL     1       7.649   4.589  16.823  0.00  0.00    +0.000 OA
ATOM      5  N   UNL     1       7.255   4.609  18.152  0.00  0.00    +0.000 NA
ENDROOT
BRANCH   3   6
ATOM      6  C   UNL     1       6.763   4.519  14.588  0.00  0.00    +0.000 A 
ATOM      7  C   UNL     1       6.093   3.683  13.702  0.00  0.00    +0.000 A 
ATOM      8  C   UNL     1       6.432   3.733  12.353  0.00  0.00    +0.000 A 
ATOM      9  C   UNL     1       7.419   4.616  11.929  0.00  0.00    +0.000 A 
ATOM     10  C   UNL     1       8.017   5.430  12.873  0.00  0.00    +0.000 A 
ATOM     11  N   UNL     1       7.711   5.405  14.187  0.00  0.00    +0.000 NA
ENDBRANCH   3   6
BRANCH   1  12
ATOM     12  C   UNL     1       5.149   4.498  19.411  0.00  0.00    +0.000 C 
BRANCH  12  13
ATOM     13  C   UNL     1       3.886   3.611  19.403  0.00  0.00    +0.000 C 
ATOM     14  C   UNL     1       3.346   3.398  20.843  0.00  0.00    +0.000 C 
ATOM     15  O   UNL     1       4.076   2.137  20.945  0.00  0.00    +0.000 OA
ATOM     16  C   UNL     1       4.238   2.105  19.503  0.00  0.00    +0.000 C 
BRANCH  13  17
ATOM     17  N   UNL     1       2.848   3.891  18.323  0.00  0.00    +0.000 NA
BRANCH  17  19
ATOM     18  C   UNL     1       0.737   2.472  18.722  0.00  0.00    +0.000 C 
ATOM     19  C   UNL     1       2.093   2.649  18.041  0.00  0.00    +0.000 C 
ENDBRANCH  17  19
BRANCH  17  20
ATOM     20  C   UNL     1       2.014   5.083  18.590  0.00  0.00    +0.000 C 
ATOM     21  C   UNL     1       2.570   6.462  18.243  0.00  0.00    +0.000 C 
ENDBRANCH  17  20
ENDBRANCH  13  17
ENDBRANCH  12  13
ENDBRANCH   1  12
TORSDOF 6
ENDMDL
MODEL 5
REMARK VINA RESULT:      -7.5      0.558      1.604
REMARK  Name = 
REMARK  8 active torsions:
REMARK  status: ('A' for Active; 'I' for Inactive)
REMARK    1  A    between atoms: C_1  and  C_2
REMARK    2  A    between atoms: C_2  and  N_3
REMARK    3  A    between atoms: N_3  and  C_4
REMARK    4  A    between atoms: N_3  and  C_6
REMARK    5  A    between atoms: C_4  and  C_5
REMARK    6  A    between atoms: C_6  and  C_7
REMARK    7  A    between atoms: C_7  and  C_8
REMARK    8  A    between atoms: C_10  and  C_11
REMARK                            x       y       z     vdW  Elec       q    Type
REMARK                         _______ _______ _______ _____ _____    ______ ____
ROOT
ATOM      1  C   UNL     1       5.889   4.610  18.137  0.00  0.00    +0.000 A 
ATOM      2  C   UNL     1       5.404   4.624  16.813  0.00  0.00    +0.000 A 
ATOM      3  C   UNL     1       6.525   4.519  16.024  0.00  0.00    +0.000 A 
ATOM      4  O   UNL     1       7.617   4.412  16.831  0.00  0.00    +0.000 OA
ATOM      5  N   UNL     1       7.222   4.464  18.160  0.00  0.00    +0.000 NA
ENDROOT
BRANCH   3   6
ATOM      6  C   UNL     1       6.747   4.545  14.593  0.00  0.00    +0.000 A 
ATOM      7  C   UNL     1       6.066   3.725  13.700  0.00  0.00    +0.000 A 
ATOM      8  C   UNL     1       6.417   3.772  12.353  0.00  0.00    +0.000 A 
ATOM      9  C   UNL     1       7.425   4.635  11.939  0.00  0.00    +0.000 A 
ATOM     10  C   UNL     1       8.033   5.434  12.890  0.00  0.00    +0.000 A 
ATOM     11  N   UNL     1       7.716   5.412  14.201  0.00  0.00    +0.000 NA
ENDBRANCH   3   6
BRANCH   1  12
ATOM     12  C   UNL     1       5.119   4.677  19.409  0.00  0.00    +0.000 C 
BRANCH  12  13
ATOM     13  C   UNL     1       3.873   3.769  19.478  0.00  0.00    +0.000 C 
ATOM     14  C   UNL     1       4.065   2.637  20.522  0.00  0.00    +0.000 C 
ATOM     15  O   UNL     1       4.514   1.726  19.473  0.00  0.00    +0.000 OA
ATOM     16  C   UNL     1       3.952   2.602  18.461  0.00  0.00    +0.000 C 
BRANCH  13  17
ATOM     17  N   UNL     1       2.512   4.456  19.464  0.00  0.00    +0.000 NA
BRANCH  17  19
ATOM     18  C   UNL     1       2.437   6.607  18.052  0.00  0.00    +0.000 C 
ATOM     19  C   UNL     1       2.710   5.922  19.390  0.00  0.00    +0.000 C 
ENDBRANCH  17  19
BRANCH  17  20
ATOM     20  C   UNL     1       1.572   3.900  18.468  0.00  0.00    +0.000 C 
ATOM     21  C   UNL     1       0.623   2.783  18.896  0.00  0.00    +0.000 C 
ENDBRANCH  17  20
ENDBRANCH  13  17
ENDBRANCH  12  13
ENDBRANCH   1  12
TORSDOF 6
ENDMDL
MODEL 6
REMARK VINA RESULT:      -7.4      1.482      2.429
REMARK  Name = 
REMARK  8 active torsions:
REMARK  status: ('A' for Active; 'I' for Inactive)
REMARK    1  A    between atoms: C_1  and  C_2
REMARK    2  A    between atoms: C_2  and  N_3
REMARK    3  A    between atoms: N_3  and  C_4
REMARK    4  A    between atoms: N_3  and  C_6
REMARK    5  A    between atoms: C_4  and  C_5
REMARK    6  A    between atoms: C_6  and  C_7
REMARK    7  A    between atoms: C_7  and  C_8
REMARK    8  A    between atoms: C_10  and  C_11
REMARK                            x       y       z     vdW  Elec       q    Type
REMARK                         _______ _______ _______ _____ _____    ______ ____
ROOT
ATOM      1  C   UNL     1       5.708   5.283  18.017  0.00  0.00    +0.000 A 
ATOM      2  C   UNL     1       5.297   4.812  16.753  0.00  0.00    +0.000 A 
ATOM      3  C   UNL     1       6.400   4.956  15.946  0.00  0.00    +0.000 A 
ATOM      4  O   UNL     1       7.426   5.451  16.694  0.00  0.00    +0.000 OA
ATOM      5  N   UNL     1       6.997   5.656  17.996  0.00  0.00    +0.000 NA
ENDROOT
BRANCH   3   6
ATOM      6  C   UNL     1       6.644   4.734  14.535  0.00  0.00    +0.000 A 
ATOM      7  C   UNL     1       5.947   3.799  13.778  0.00  0.00    +0.000 A 
ATOM      8  C   UNL     1       6.318   3.608  12.449  0.00  0.00    +0.000 A 
ATOM      9  C   UNL     1       7.363   4.356  11.918  0.00  0.00    +0.000 A 
ATOM     10  C   UNL     1       7.985   5.282  12.734  0.00  0.00    +0.000 A 
ATOM     11  N   UNL     1       7.649   5.491  14.024  0.00  0.00    +0.000 NA
ENDBRANCH   3   6
BRANCH   1  12
ATOM     12  C   UNL     1       4.927   5.347  19.283  0.00  0.00    +0.000 C 
BRANCH  12  13
ATOM     13  C   UNL     1       3.464   4.869  19.183  0.00  0.00    +0.000 C 
ATOM     14  C   UNL     1       2.598   5.885  18.392  0.00  0.00    +0.000 C 
ATOM     15  O   UNL     1       2.173   6.516  19.639  0.00  0.00    +0.000 OA
ATOM     16  C   UNL     1       2.616   5.353  20.387  0.00  0.00    +0.000 C 
BRANCH  13  17
ATOM     17  N   UNL     1       3.236   3.394  18.872  0.00  0.00    +0.000 NA
BRANCH  17  19
ATOM     18  C   UNL     1       4.640   1.859  20.388  0.00  0.00    +0.000 C 
ATOM     19  C   UNL     1       3.337   2.612  20.126  0.00  0.00    +0.000 C 
ENDBRANCH  17  19
BRANCH  17  20
ATOM     20  C   UNL     1       2.023   3.134  18.068  0.00  0.00    +0.000 C 
ATOM     21  C   UNL     1       0.803   2.521  18.752  0.00  0.00    +0.000 C 
ENDBRANCH  17  20
ENDBRANCH  13  17
ENDBRANCH  12  13
ENDBRANCH   1  12
TORSDOF 6
ENDMDL
MODEL 7
REMARK VINA RESULT:      -7.2      0.696      1.625
REMARK  Name = 
REMARK  8 active torsions:
REMARK  status: ('A' for Active; 'I' for Inactive)
REMARK    1  A    between atoms: C_1  and  C_2
REMARK    2  A    between atoms: C_2  and  N_3
REMARK    3  A    between atoms: N_3  and  C_4
REMARK    4  A    between atoms: N_3  and  C_6
REMARK    5  A    between atoms: C_4  and  C_5
REMARK    6  A    between atoms: C_6  and  C_7
REMARK    7  A    between atoms: C_7  and  C_8
REMARK    8  A    between atoms: C_10  and  C_11
REMARK                            x       y       z     vdW  Elec       q    Type
REMARK                         _______ _______ _______ _____ _____    ______ ____
ROOT
ATOM      1  C   UNL     1       6.106   4.957  18.006  0.00  0.00    +0.000 A 
ATOM      2  C   UNL     1       5.607   5.072  16.692  0.00  0.00    +0.000 A 
ATOM      3  C   UNL     1       6.643   4.668  15.884  0.00  0.00    +0.000 A 
ATOM      4  O   UNL     1       7.691   4.297  16.671  0.00  0.00    +0.000 OA
ATOM      5  N   UNL     1       7.357   4.474  18.006  0.00  0.00    +0.000 NA
ENDROOT
BRANCH   3   6
ATOM      6  C   UNL     1       6.828   4.609  14.448  0.00  0.00    +0.000 A 
ATOM      7  C   UNL     1       6.133   3.730  13.624  0.00  0.00    +0.000 A 
ATOM      8  C   UNL     1       6.449   3.698  12.268  0.00  0.00    +0.000 A 
ATOM      9  C   UNL     1       7.436   4.544  11.777  0.00  0.00    +0.000 A 
ATOM     10  C   UNL     1       8.060   5.404  12.662  0.00  0.00    +0.000 A 
ATOM     11  N   UNL     1       7.777   5.459  13.979  0.00  0.00    +0.000 NA
ENDBRANCH   3   6
BRANCH   1  12
ATOM     12  C   UNL     1       5.411   5.244  19.291  0.00  0.00    +0.000 C 
BRANCH  12  13
ATOM     13  C   UNL     1       4.090   4.479  19.516  0.00  0.00    +0.000 C 
ATOM     14  C   UNL     1       4.362   2.991  19.867  0.00  0.00    +0.000 C 
ATOM     15  O   UNL     1       4.193   2.615  18.465  0.00  0.00    +0.000 OA
ATOM     16  C   UNL     1       3.538   3.881  18.196  0.00  0.00    +0.000 C 
BRANCH  13  17
ATOM     17  N   UNL     1       3.010   5.182  20.328  0.00  0.00    +0.000 NA
BRANCH  17  19
ATOM     18  C   UNL     1       1.897   7.495  20.130  0.00  0.00    +0.000 C 
ATOM     19  C   UNL     1       2.337   6.187  19.474  0.00  0.00    +0.000 C 
ENDBRANCH  17  19
BRANCH  17  20
ATOM     20  C   UNL     1       2.103   4.259  21.042  0.00  0.00    +0.000 C 
ATOM     21  C   UNL     1       0.810   3.820  20.357  0.00  0.00    +0.000 C 
ENDBRANCH  17  20
ENDBRANCH  13  17
ENDBRANCH  12  13
ENDBRANCH   1  12
TORSDOF 6
ENDMDL
MODEL 8
REMARK VINA RESULT:      -7.1      1.743      2.820
REMARK  Name = 
REMARK  8 active torsions:
REMARK  status: ('A' for Active; 'I' for Inactive)
REMARK    1  A    between atoms: C_1  and  C_2
REMARK    2  A    between atoms: C_2  and  N_3
REMARK    3  A    between atoms: N_3  and  C_4
REMARK    4  A    between atoms: N_3  and  C_6
REMARK    5  A    between atoms: C_4  and  C_5
REMARK    6  A    between atoms: C_6  and  C_7
REMARK    7  A    between atoms: C_7  and  C_8
REMARK    8  A    between atoms: C_10  and  C_11
REMARK                            x       y       z     vdW  Elec       q    Type
REMARK                         _______ _______ _______ _____ _____    ______ ____
ROOT
ATOM      1  C   UNL     1       5.337   5.301  17.869  0.00  0.00    +0.000 A 
ATOM      2  C   UNL     1       5.396   4.402  16.784  0.00  0.00    +0.000 A 
ATOM      3  C   UNL     1       6.165   5.040  15.839  0.00  0.00    +0.000 A 
ATOM      4  O   UNL     1       6.573   6.237  16.344  0.00  0.00    +0.000 OA
ATOM      5  N   UNL     1       6.058   6.404  17.621  0.00  0.00    +0.000 NA
ENDROOT
BRANCH   3   6
ATOM      6  C   UNL     1       6.557   4.714  14.482  0.00  0.00    +0.000 A 
ATOM      7  C   UNL     1       7.550   5.398  13.790  0.00  0.00    +0.000 A 
ATOM      8  C   UNL     1       7.790   5.058  12.461  0.00  0.00    +0.000 A 
ATOM      9  C   UNL     1       7.041   4.048  11.869  0.00  0.00    +0.000 A 
ATOM     10  C   UNL     1       6.090   3.403  12.638  0.00  0.00    +0.000 A 
ATOM     11  N   UNL     1       5.834   3.708  13.926  0.00  0.00    +0.000 NA
ENDBRANCH   3   6
BRANCH   1  12
ATOM     12  C   UNL     1       4.652   5.129  19.180  0.00  0.00    +0.000 C 
BRANCH  12  13
ATOM     13  C   UNL     1       3.110   5.098  19.123  0.00  0.00    +0.000 C 
ATOM     14  C   UNL     1       2.569   6.132  18.100  0.00  0.00    +0.000 C 
ATOM     15  O   UNL     1       2.384   7.112  19.167  0.00  0.00    +0.000 OA
ATOM     16  C   UNL     1       2.476   6.058  20.161  0.00  0.00    +0.000 C 
BRANCH  13  17
ATOM     17  N   UNL     1       2.444   3.727  19.121  0.00  0.00    +0.000 NA
BRANCH  17  19
ATOM     18  C   UNL     1       3.542   1.504  18.431  0.00  0.00    +0.000 C 
ATOM     19  C   UNL     1       3.466   2.690  19.391  0.00  0.00    +0.000 C 
ENDBRANCH  17  19
BRANCH  17  20
ATOM     20  C   UNL     1       1.234   3.649  19.967  0.00  0.00    +0.000 C 
ATOM     21  C   UNL     1       1.288   2.832  21.255  0.00  0.00    +0.000 C 
ENDBRANCH  17  20
ENDBRANCH  13  17
ENDBRANCH  12  13
ENDBRANCH   1  12
TORSDOF 6
ENDMDL
MODEL 9
REMARK VINA RESULT:      -7.1      1.334      2.037
REMARK  Name = 
REMARK  8 active torsions:
REMARK  status: ('A' for Active; 'I' for Inactive)
REMARK    1  A    between atoms: C_1  and  C_2
REMARK    2  A    between atoms: C_2  and  N_3
REMARK    3  A    between atoms: N_3  and  C_4
REMARK    4  A    between atoms: N_3  and  C_6
REMARK    5  A    between atoms: C_4  and  C_5
REMARK    6  A    between atoms: C_6  and  C_7
REMARK    7  A    between atoms: C_7  and  C_8
REMARK    8  A    between atoms: C_10  and  C_11
REMARK                            x       y       z     vdW  Elec       q    Type
REMARK                         _______ _______ _______ _____ _____    ______ ____
ROOT
ATOM      1  C   UNL     1       5.060   4.126  17.909  0.00  0.00    +0.000 A 
ATOM      2  C   UNL     1       4.987   3.697  16.568  0.00  0.00    +0.000 A 
ATOM      3  C   UNL     1       6.001   4.368  15.926  0.00  0.00    +0.000 A 
ATOM      4  O   UNL     1       6.667   5.127  16.839  0.00  0.00    +0.000 OA
ATOM      5  N   UNL     1       6.082   4.976  18.088  0.00  0.00    +0.000 NA
ENDROOT
BRANCH   3   6
ATOM      6  C   UNL     1       6.433   4.444  14.545  0.00  0.00    +0.000 A 
ATOM      7  C   UNL     1       5.876   3.677  13.527  0.00  0.00    +0.000 A 
ATOM      8  C   UNL     1       6.423   3.768  12.250  0.00  0.00    +0.000 A 
ATOM      9  C   UNL     1       7.499   4.620  12.027  0.00  0.00    +0.000 A 
ATOM     10  C   UNL     1       7.975   5.364  13.090  0.00  0.00    +0.000 A 
ATOM     11  N   UNL     1       7.467   5.300  14.338  0.00  0.00    +0.000 NA
ENDBRANCH   3   6
BRANCH   1  12
ATOM     12  C   UNL     1       4.216   3.713  19.063  0.00  0.00    +0.000 C 
BRANCH  12  13
ATOM     13  C   UNL     1       2.811   4.350  19.118  0.00  0.00    +0.000 C 
ATOM     14  C   UNL     1       1.813   3.433  19.875  0.00  0.00    +0.000 C 
ATOM     15  O   UNL     1       1.362   2.856  18.611  0.00  0.00    +0.000 OA
ATOM     16  C   UNL     1       1.954   3.965  17.885  0.00  0.00    +0.000 C 
BRANCH  13  17
ATOM     17  N   UNL     1       2.736   5.839  19.431  0.00  0.00    +0.000 NA
BRANCH  17  19
ATOM     18  C   UNL     1       3.524   7.457  17.590  0.00  0.00    +0.000 C 
ATOM     19  C   UNL     1       2.424   6.581  18.188  0.00  0.00    +0.000 C 
ENDBRANCH  17  19
BRANCH  17  20
ATOM     20  C   UNL     1       1.875   6.165  20.588  0.00  0.00    +0.000 C 
ATOM     21  C   UNL     1       1.524   7.626  20.856  0.00  0.00    +0.000 C 
ENDBRANCH  17  20
ENDBRANCH  13  17
ENDBRANCH  12  13
ENDBRANCH   1  12
TORSDOF 6
ENDMDL
