MODEL 1
REMARK VINA RESULT:      -8.3      0.000      0.000
REMARK  Name = 
REMARK  16 active torsions:
REMARK  status: ('A' for Active; 'I' for Inactive)
REMARK    1  A    between atoms: C_1  and  O_2
REMARK    2  A    between atoms: O_2  and  C_3
REMARK    3  A    between atoms: C_3  and  C_5
REMARK    4  A    between atoms: C_5  and  C_6
REMARK    5  A    between atoms: C_6  and  C_7
REMARK    6  A    between atoms: C_7  and  C_8
REMARK    7  A    between atoms: C_9  and  C_10
REMARK    8  A    between atoms: C_9  and  C_20
REMARK    9  A    between atoms: C_13  and  O_14
REMARK   10  A    between atoms: O_14  and  C_15
REMARK   11  A    between atoms: C_16  and  O_17
REMARK   12  A    between atoms: O_17  and  C_18
REMARK   13  A    between atoms: C_23  and  O_24
REMARK   14  A    between atoms: O_24  and  C_25
REMARK   15  A    between atoms: C_26  and  O_27
REMARK   16  A    between atoms: O_27  and  C_28
REMARK                            x       y       z     vdW  Elec       q    Type
REMARK                         _______ _______ _______ _____ _____    ______ ____
ROOT
ATOM      1  C   UNL     1       3.294   4.995  19.698  0.00  0.00    +0.000 C 
ATOM      2  C   UNL     1       3.423   5.979  18.779  0.00  0.00    +0.000 C 
ENDROOT
BRANCH   2   3
ATOM      3  C   UNL     1       2.573   7.185  18.850  0.00  0.00    +0.000 A 
ATOM      4  C   UNL     1       2.248   7.914  17.709  0.00  0.00    +0.000 A 
ATOM      5  C   UNL     1       1.471   9.069  17.831  0.00  0.00    +0.000 A 
ATOM      6  C   UNL     1       0.998   9.500  19.081  0.00  0.00    +0.000 A 
ATOM      7  C   UNL     1       1.331   8.768  20.236  0.00  0.00    +0.000 A 
ATOM      8  C   UNL     1       2.128   7.623  20.102  0.00  0.00    +0.000 A 
BRANCH   6   9
ATOM      9  O   UNL     1       0.237  10.638  18.980  0.00  0.00    +0.000 OA
ATOM     10  C   UNL     1      -0.995  10.571  18.278  0.00  0.00    +0.000 C 
ENDBRANCH   6   9
BRANCH   7  11
ATOM     11  O   UNL     1       0.872   9.206  21.449  0.00  0.00    +0.000 OA
ATOM     12  C   UNL     1      -0.414   8.777  21.876  0.00  0.00    +0.000 C 
ENDBRANCH   7  11
ENDBRANCH   2   3
BRANCH   2  13
ATOM     13  C   UNL     1       4.434   5.833  17.710  0.00  0.00    +0.000 A 
ATOM     14  C   UNL     1       4.335   4.824  16.752  0.00  0.00    +0.000 A 
ATOM     15  C   UNL     1       5.373   4.640  15.837  0.00  0.00    +0.000 A 
ATOM     16  C   UNL     1       6.518   5.453  15.857  0.00  0.00    +0.000 A 
ATOM     17  C   UNL     1       6.624   6.472  16.820  0.00  0.00    +0.000 A 
ATOM     18  C   UNL     1       5.569   6.655  17.731  0.00  0.00    +0.000 A 
BRANCH  16  19
ATOM     19  O   UNL     1       7.421   5.101  14.884  0.00  0.00    +0.000 OA
ATOM     20  C   UNL     1       6.943   4.478  13.701  0.00  0.00    +0.000 C 
ENDBRANCH  16  19
BRANCH  17  21
ATOM     21  O   UNL     1       7.760   7.234  16.846  0.00  0.00    +0.000 OA
ATOM     22  C   UNL     1       7.817   8.335  17.744  0.00  0.00    +0.000 C 
ENDBRANCH  17  21
ENDBRANCH   2  13
BRANCH   1  23
ATOM     23  C   UNL     1       2.285   4.979  20.824  0.00  0.00    +0.000 C 
BRANCH  23  24
ATOM     24  C   UNL     1       1.215   3.895  20.653  0.00  0.00    +0.000 C 
BRANCH  24  25
ATOM     25  C   UNL     1       1.814   2.593  20.112  0.00  0.00    +0.000 C 
BRANCH  25  26
ATOM     26  C   UNL     1       1.279   2.268  18.739  0.00  0.00    +0.000 C 
ATOM     27  O   UNL     1       0.093   2.186  18.448  0.00  0.00    +0.000 OA
BRANCH  26  29
ATOM     28  C   UNL     1       3.482   1.542  18.471  0.00  0.00    +0.000 C 
ATOM     29  O   UNL     1       2.309   2.081  17.864  0.00  0.00    +0.000 OA
ENDBRANCH  26  29
ENDBRANCH  25  26
ENDBRANCH  24  25
ENDBRANCH  23  24
ENDBRANCH   1  23
TORSDOF 11
ENDMDL
MODEL 2
REMARK VINA RESULT:      -8.0      1.452      6.235
REMARK  Name = 
REMARK  16 active torsions:
REMARK  status: ('A' for Active; 'I' for Inactive)
REMARK    1  A    between atoms: C_1  and  O_2
REMARK    2  A    between atoms: O_2  and  C_3
REMARK    3  A    between atoms: C_3  and  C_5
REMARK    4  A    between atoms: C_5  and  C_6
REMARK    5  A    between atoms: C_6  and  C_7
REMARK    6  A    between atoms: C_7  and  C_8
REMARK    7  A    between atoms: C_9  and  C_10
REMARK    8  A    between atoms: C_9  and  C_20
REMARK    9  A    between atoms: C_13  and  O_14
REMARK   10  A    between atoms: O_14  and  C_15
REMARK   11  A    between atoms: C_16  and  O_17
REMARK   12  A    between atoms: O_17  and  C_18
REMARK   13  A    between atoms: C_23  and  O_24
REMARK   14  A    between atoms: O_24  and  C_25
REMARK   15  A    between atoms: C_26  and  O_27
REMARK   16  A    between atoms: O_27  and  C_28
REMARK                            x       y       z     vdW  Elec       q    Type
REMARK                         _______ _______ _______ _____ _____    ______ ____
ROOT
ATOM      1  C   UNL     1       1.806   5.544  20.745  0.00  0.00    +0.000 C 
ATOM      2  C   UNL     1       2.372   6.302  19.778  0.00  0.00    +0.000 C 
ENDROOT
BRANCH   2   3
ATOM      3  C   UNL     1       3.448   5.751  18.930  0.00  0.00    +0.000 A 
ATOM      4  C   UNL     1       3.205   5.338  17.622  0.00  0.00    +0.000 A 
ATOM      5  C   UNL     1       4.247   4.789  16.871  0.00  0.00    +0.000 A 
ATOM      6  C   UNL     1       5.540   4.659  17.404  0.00  0.00    +0.000 A 
ATOM      7  C   UNL     1       5.786   5.068  18.728  0.00  0.00    +0.000 A 
ATOM      8  C   UNL     1       4.727   5.600  19.477  0.00  0.00    +0.000 A 
BRANCH   6   9
ATOM      9  O   UNL     1       6.420   4.120  16.500  0.00  0.00    +0.000 OA
ATOM     10  C   UNL     1       6.926   4.951  15.466  0.00  0.00    +0.000 C 
ENDBRANCH   6   9
BRANCH   7  11
ATOM     11  O   UNL     1       7.048   4.926  19.239  0.00  0.00    +0.000 OA
ATOM     12  C   UNL     1       7.957   6.009  19.096  0.00  0.00    +0.000 C 
ENDBRANCH   7  11
ENDBRANCH   2   3
BRANCH   2  13
ATOM     13  C   UNL     1       1.890   7.685  19.578  0.00  0.00    +0.000 A 
ATOM     14  C   UNL     1       1.951   8.300  18.327  0.00  0.00    +0.000 A 
ATOM     15  C   UNL     1       1.606   9.647  18.204  0.00  0.00    +0.000 A 
ATOM     16  C   UNL     1       1.193  10.400  19.315  0.00  0.00    +0.000 A 
ATOM     17  C   UNL     1       1.129   9.786  20.578  0.00  0.00    +0.000 A 
ATOM     18  C   UNL     1       1.470   8.427  20.689  0.00  0.00    +0.000 A 
BRANCH  16  19
ATOM     19  O   UNL     1       0.910  11.701  18.983  0.00  0.00    +0.000 OA
ATOM     20  C   UNL     1      -0.430  12.054  18.678  0.00  0.00    +0.000 C 
ENDBRANCH  16  19
BRANCH  17  21
ATOM     21  O   UNL     1       0.756  10.542  21.656  0.00  0.00    +0.000 OA
ATOM     22  C   UNL     1      -0.527  10.321  22.228  0.00  0.00    +0.000 C 
ENDBRANCH  17  21
ENDBRANCH   2  13
BRANCH   1  23
ATOM     23  C   UNL     1       2.213   4.132  21.097  0.00  0.00    +0.000 C 
BRANCH  23  24
ATOM     24  C   UNL     1       1.119   3.102  20.799  0.00  0.00    +0.000 C 
BRANCH  24  25
ATOM     25  C   UNL     1       0.751   3.086  19.312  0.00  0.00    +0.000 C 
BRANCH  25  26
ATOM     26  C   UNL     1       1.745   2.286  18.506  0.00  0.00    +0.000 C 
ATOM     27  O   UNL     1       1.811   2.274  17.284  0.00  0.00    +0.000 OA
BRANCH  26  29
ATOM     28  C   UNL     1       3.939   1.629  18.957  0.00  0.00    +0.000 C 
ATOM     29  O   UNL     1       2.565   1.579  19.336  0.00  0.00    +0.000 OA
ENDBRANCH  26  29
ENDBRANCH  25  26
ENDBRANCH  24  25
ENDBRANCH  23  24
ENDBRANCH   1  23
TORSDOF 11
ENDMDL
MODEL 3
REMARK VINA RESULT:      -7.8      0.809      6.259
REMARK  Name = 
REMARK  16 active torsions:
REMARK  status: ('A' for Active; 'I' for Inactive)
REMARK    1  A    between atoms: C_1  and  O_2
REMARK    2  A    between atoms: O_2  and  C_3
REMARK    3  A    between atoms: C_3  and  C_5
REMARK    4  A    between atoms: C_5  and  C_6
REMARK    5  A    between atoms: C_6  and  C_7
REMARK    6  A    between atoms: C_7  and  C_8
REMARK    7  A    between atoms: C_9  and  C_10
REMARK    8  A    between atoms: C_9  and  C_20
REMARK    9  A    between atoms: C_13  and  O_14
REMARK   10  A    between atoms: O_14  and  C_15
REMARK   11  A    between atoms: C_16  and  O_17
REMARK   12  A    between atoms: O_17  and  C_18
REMARK   13  A    between atoms: C_23  and  O_24
REMARK   14  A    between atoms: O_24  and  C_25
REMARK   15  A    between atoms: C_26  and  O_27
REMARK   16  A    between atoms: O_27  and  C_28
REMARK                            x       y       z     vdW  Elec       q    Type
REMARK                         _______ _______ _______ _____ _____    ______ ____
ROOT
ATOM      1  C   UNL     1       3.317   5.201  19.851  0.00  0.00    +0.000 C 
ATOM      2  C   UNL     1       3.471   6.110  18.862  0.00  0.00    +0.000 C 
ENDROOT
BRANCH   2   3
ATOM      3  C   UNL     1       4.492   5.908  17.813  0.00  0.00    +0.000 A 
ATOM      4  C   UNL     1       4.307   4.987  16.785  0.00  0.00    +0.000 A 
ATOM      5  C   UNL     1       5.317   4.804  15.838  0.00  0.00    +0.000 A 
ATOM      6  C   UNL     1       6.509   5.544  15.892  0.00  0.00    +0.000 A 
ATOM      7  C   UNL     1       6.701   6.471  16.934  0.00  0.00    +0.000 A 
ATOM      8  C   UNL     1       5.688   6.630  17.889  0.00  0.00    +0.000 A 
BRANCH   6   9
ATOM      9  O   UNL     1       7.358   5.233  14.859  0.00  0.00    +0.000 OA
ATOM     10  C   UNL     1       6.837   4.532  13.740  0.00  0.00    +0.000 C 
ENDBRANCH   6   9
BRANCH   7  11
ATOM     11  O   UNL     1       7.872   7.177  16.981  0.00  0.00    +0.000 OA
ATOM     12  C   UNL     1       7.878   8.425  17.662  0.00  0.00    +0.000 C 
ENDBRANCH   7  11
ENDBRANCH   2   3
BRANCH   2  13
ATOM     13  C   UNL     1       2.598   7.303  18.841  0.00  0.00    +0.000 A 
ATOM     14  C   UNL     1       2.525   8.129  17.719  0.00  0.00    +0.000 A 
ATOM     15  C   UNL     1       1.789   9.313  17.783  0.00  0.00    +0.000 A 
ATOM     16  C   UNL     1       1.113   9.692  18.954  0.00  0.00    +0.000 A 
ATOM     17  C   UNL     1       1.183   8.864  20.088  0.00  0.00    +0.000 A 
ATOM     18  C   UNL     1       1.919   7.669  20.011  0.00  0.00    +0.000 A 
BRANCH  16  19
ATOM     19  O   UNL     1       0.460  10.891  18.811  0.00  0.00    +0.000 OA
ATOM     20  C   UNL     1      -0.893  10.885  18.383  0.00  0.00    +0.000 C 
ENDBRANCH  16  19
BRANCH  17  21
ATOM     21  O   UNL     1       0.546   9.263  21.232  0.00  0.00    +0.000 OA
ATOM     22  C   UNL     1       1.249   9.179  22.465  0.00  0.00    +0.000 C 
ENDBRANCH  17  21
ENDBRANCH   2  13
BRANCH   1  23
ATOM     23  C   UNL     1       4.155   3.956  20.031  0.00  0.00    +0.000 C 
BRANCH  23  24
ATOM     24  C   UNL     1       3.381   2.803  20.680  0.00  0.00    +0.000 C 
BRANCH  24  25
ATOM     25  C   UNL     1       2.235   2.320  19.786  0.00  0.00    +0.000 C 
BRANCH  25  26
ATOM     26  C   UNL     1       2.730   1.936  18.413  0.00  0.00    +0.000 C 
ATOM     27  O   UNL     1       3.687   1.208  18.189  0.00  0.00    +0.000 OA
BRANCH  26  29
ATOM     28  C   UNL     1       1.092   3.536  17.957  0.00  0.00    +0.000 C 
ATOM     29  O   UNL     1       1.953   2.516  17.453  0.00  0.00    +0.000 OA
ENDBRANCH  26  29
ENDBRANCH  25  26
ENDBRANCH  24  25
ENDBRANCH  23  24
ENDBRANCH   1  23
TORSDOF 11
ENDMDL
MODEL 4
REMARK VINA RESULT:      -7.7      1.711      6.545
REMARK  Name = 
REMARK  16 active torsions:
REMARK  status: ('A' for Active; 'I' for Inactive)
REMARK    1  A    between atoms: C_1  and  O_2
REMARK    2  A    between atoms: O_2  and  C_3
REMARK    3  A    between atoms: C_3  and  C_5
REMARK    4  A    between atoms: C_5  and  C_6
REMARK    5  A    between atoms: C_6  and  C_7
REMARK    6  A    between atoms: C_7  and  C_8
REMARK    7  A    between atoms: C_9  and  C_10
REMARK    8  A    between atoms: C_9  and  C_20
REMARK    9  A    between atoms: C_13  and  O_14
REMARK   10  A    between atoms: O_14  and  C_15
REMARK   11  A    between atoms: C_16  and  O_17
REMARK   12  A    between atoms: O_17  and  C_18
REMARK   13  A    between atoms: C_23  and  O_24
REMARK   14  A    between atoms: O_24  and  C_25
REMARK   15  A    between atoms: C_26  and  O_27
REMARK   16  A    between atoms: O_27  and  C_28
REMARK                            x       y       z     vdW  Elec       q    Type
REMARK                         _______ _______ _______ _____ _____    ______ ____
ROOT
ATOM      1  C   UNL     1       1.497   5.306  17.929  0.00  0.00    +0.000 C 
ATOM      2  C   UNL     1       2.407   6.243  18.281  0.00  0.00    +0.000 C 
ENDROOT
BRANCH   2   3
ATOM      3  C   UNL     1       3.848   5.919  18.290  0.00  0.00    +0.000 A 
ATOM      4  C   UNL     1       4.488   5.473  19.443  0.00  0.00    +0.000 A 
ATOM      5  C   UNL     1       5.860   5.216  19.412  0.00  0.00    +0.000 A 
ATOM      6  C   UNL     1       6.606   5.382  18.233  0.00  0.00    +0.000 A 
ATOM      7  C   UNL     1       5.963   5.839  17.067  0.00  0.00    +0.000 A 
ATOM      8  C   UNL     1       4.589   6.112  17.118  0.00  0.00    +0.000 A 
BRANCH   6   9
ATOM      9  O   UNL     1       7.927   5.053  18.407  0.00  0.00    +0.000 OA
ATOM     10  C   UNL     1       8.528   5.300  19.669  0.00  0.00    +0.000 C 
ENDBRANCH   6   9
BRANCH   7  11
ATOM     11  O   UNL     1       6.704   6.006  15.929  0.00  0.00    +0.000 OA
ATOM     12  C   UNL     1       6.861   4.893  15.059  0.00  0.00    +0.000 C 
ENDBRANCH   7  11
ENDBRANCH   2   3
BRANCH   2  13
ATOM     13  C   UNL     1       1.938   7.596  18.648  0.00  0.00    +0.000 A 
ATOM     14  C   UNL     1       1.910   8.631  17.713  0.00  0.00    +0.000 A 
ATOM     15  C   UNL     1       1.583   9.924  18.126  0.00  0.00    +0.000 A 
ATOM     16  C   UNL     1       1.276  10.206  19.468  0.00  0.00    +0.000 A 
ATOM     17  C   UNL     1       1.303   9.167  20.414  0.00  0.00    +0.000 A 
ATOM     18  C   UNL     1       1.624   7.868  19.986  0.00  0.00    +0.000 A 
BRANCH  16  19
ATOM     19  O   UNL     1       0.993  11.535  19.666  0.00  0.00    +0.000 OA
ATOM     20  C   UNL     1      -0.324  11.999  19.412  0.00  0.00    +0.000 C 
ENDBRANCH  16  19
BRANCH  17  21
ATOM     21  O   UNL     1       1.033   9.466  21.722  0.00  0.00    +0.000 OA
ATOM     22  C   UNL     1      -0.282   9.238  22.212  0.00  0.00    +0.000 C 
ENDBRANCH  17  21
ENDBRANCH   2  13
BRANCH   1  23
ATOM     23  C   UNL     1       1.814   3.873  17.568  0.00  0.00    +0.000 C 
BRANCH  23  24
ATOM     24  C   UNL     1       1.180   2.860  18.527  0.00  0.00    +0.000 C 
BRANCH  24  25
ATOM     25  C   UNL     1       1.161   3.384  19.966  0.00  0.00    +0.000 C 
BRANCH  25  26
ATOM     26  C   UNL     1       2.272   2.779  20.789  0.00  0.00    +0.000 C 
ATOM     27  O   UNL     1       2.392   2.893  22.001  0.00  0.00    +0.000 OA
BRANCH  26  29
ATOM     28  C   UNL     1       4.456   2.006  20.496  0.00  0.00    +0.000 C 
ATOM     29  O   UNL     1       3.126   2.080  19.985  0.00  0.00    +0.000 OA
ENDBRANCH  26  29
ENDBRANCH  25  26
ENDBRANCH  24  25
ENDBRANCH  23  24
ENDBRANCH   1  23
TORSDOF 11
ENDMDL
MODEL 5
REMARK VINA RESULT:      -7.7      1.514      2.411
REMARK  Name = 
REMARK  16 active torsions:
REMARK  status: ('A' for Active; 'I' for Inactive)
REMARK    1  A    between atoms: C_1  and  O_2
REMARK    2  A    between atoms: O_2  and  C_3
REMARK    3  A    between atoms: C_3  and  C_5
REMARK    4  A    between atoms: C_5  and  C_6
REMARK    5  A    between atoms: C_6  and  C_7
REMARK    6  A    between atoms: C_7  and  C_8
REMARK    7  A    between atoms: C_9  and  C_10
REMARK    8  A    between atoms: C_9  and  C_20
REMARK    9  A    between atoms: C_13  and  O_14
REMARK   10  A    between atoms: O_14  and  C_15
REMARK   11  A    between atoms: C_16  and  O_17
REMARK   12  A    between atoms: O_17  and  C_18
REMARK   13  A    between atoms: C_23  and  O_24
REMARK   14  A    between atoms: O_24  and  C_25
REMARK   15  A    between atoms: C_26  and  O_27
REMARK   16  A    between atoms: O_27  and  C_28
REMARK                            x       y       z     vdW  Elec       q    Type
REMARK                         _______ _______ _______ _____ _____    ______ ____
ROOT
ATOM      1  C   UNL     1       2.256   4.081  17.622  0.00  0.00    +0.000 C 
ATOM      2  C   UNL     1       2.961   5.234  17.666  0.00  0.00    +0.000 C 
ENDROOT
BRANCH   2   3
ATOM      3  C   UNL     1       2.497   6.364  18.497  0.00  0.00    +0.000 A 
ATOM      4  C   UNL     1       2.385   6.251  19.880  0.00  0.00    +0.000 A 
ATOM      5  C   UNL     1       1.905   7.335  20.620  0.00  0.00    +0.000 A 
ATOM      6  C   UNL     1       1.550   8.543  19.997  0.00  0.00    +0.000 A 
ATOM      7  C   UNL     1       1.657   8.656  18.598  0.00  0.00    +0.000 A 
ATOM      8  C   UNL     1       2.120   7.554  17.866  0.00  0.00    +0.000 A 
BRANCH   6   9
ATOM      9  O   UNL     1       1.128   9.486  20.900  0.00  0.00    +0.000 OA
ATOM     10  C   UNL     1       1.176   9.171  22.284  0.00  0.00    +0.000 C 
ENDBRANCH   6   9
BRANCH   7  11
ATOM     11  O   UNL     1       1.297   9.835  18.003  0.00  0.00    +0.000 OA
ATOM     12  C   UNL     1       2.237  10.901  18.001  0.00  0.00    +0.000 C 
ENDBRANCH   7  11
ENDBRANCH   2   3
BRANCH   2  13
ATOM     13  C   UNL     1       4.207   5.343  16.877  0.00  0.00    +0.000 A 
ATOM     14  C   UNL     1       4.492   4.450  15.844  0.00  0.00    +0.000 A 
ATOM     15  C   UNL     1       5.733   4.506  15.208  0.00  0.00    +0.000 A 
ATOM     16  C   UNL     1       6.705   5.449  15.583  0.00  0.00    +0.000 A 
ATOM     17  C   UNL     1       6.424   6.352  16.623  0.00  0.00    +0.000 A 
ATOM     18  C   UNL     1       5.168   6.292  17.251  0.00  0.00    +0.000 A 
BRANCH  16  19
ATOM     19  O   UNL     1       7.855   5.330  14.842  0.00  0.00    +0.000 OA
ATOM     20  C   UNL     1       7.749   5.133  13.441  0.00  0.00    +0.000 C 
ENDBRANCH  16  19
BRANCH  17  21
ATOM     21  O   UNL     1       7.393   7.242  16.998  0.00  0.00    +0.000 OA
ATOM     22  C   UNL     1       7.967   7.115  18.293  0.00  0.00    +0.000 C 
ENDBRANCH  17  21
ENDBRANCH   2  13
BRANCH   1  23
ATOM     23  C   UNL     1       0.949   3.830  18.338  0.00  0.00    +0.000 C 
BRANCH  23  24
ATOM     24  C   UNL     1       0.995   2.604  19.255  0.00  0.00    +0.000 C 
BRANCH  24  25
ATOM     25  C   UNL     1       1.130   3.007  20.727  0.00  0.00    +0.000 C 
BRANCH  25  26
ATOM     26  C   UNL     1       2.511   2.705  21.257  0.00  0.00    +0.000 C 
ATOM     27  O   UNL     1       2.754   2.248  22.365  0.00  0.00    +0.000 OA
BRANCH  26  29
ATOM     28  C   UNL     1       4.512   2.061  20.242  0.00  0.00    +0.000 C 
ATOM     29  O   UNL     1       3.453   3.013  20.319  0.00  0.00    +0.000 OA
ENDBRANCH  26  29
ENDBRANCH  25  26
ENDBRANCH  24  25
ENDBRANCH  23  24
ENDBRANCH   1  23
TORSDOF 11
ENDMDL
MODEL 6
REMARK VINA RESULT:      -7.5      1.090      1.102
REMARK  Name = 
REMARK  16 active torsions:
REMARK  status: ('A' for Active; 'I' for Inactive)
REMARK    1  A    between atoms: C_1  and  O_2
REMARK    2  A    between atoms: O_2  and  C_3
REMARK    3  A    between atoms: C_3  and  C_5
REMARK    4  A    between atoms: C_5  and  C_6
REMARK    5  A    between atoms: C_6  and  C_7
REMARK    6  A    between atoms: C_7  and  C_8
REMARK    7  A    between atoms: C_9  and  C_10
REMARK    8  A    between atoms: C_9  and  C_20
REMARK    9  A    between atoms: C_13  and  O_14
REMARK   10  A    between atoms: O_14  and  C_15
REMARK   11  A    between atoms: C_16  and  O_17
REMARK   12  A    between atoms: O_17  and  C_18
REMARK   13  A    between atoms: C_23  and  O_24
REMARK   14  A    between atoms: O_24  and  C_25
REMARK   15  A    between atoms: C_26  and  O_27
REMARK   16  A    between atoms: O_27  and  C_28
REMARK                            x       y       z     vdW  Elec       q    Type
REMARK                         _______ _______ _______ _____ _____    ______ ____
ROOT
ATOM      1  C   UNL     1       2.989   5.139  19.924  0.00  0.00    +0.000 C 
ATOM      2  C   UNL     1       3.285   6.123  19.045  0.00  0.00    +0.000 C 
ENDROOT
BRANCH   2   3
ATOM      3  C   UNL     1       2.449   7.339  18.973  0.00  0.00    +0.000 A 
ATOM      4  C   UNL     1       2.230   8.002  17.769  0.00  0.00    +0.000 A 
ATOM      5  C   UNL     1       1.463   9.170  17.758  0.00  0.00    +0.000 A 
ATOM      6  C   UNL     1       0.894   9.678  18.936  0.00  0.00    +0.000 A 
ATOM      7  C   UNL     1       1.119   9.013  20.156  0.00  0.00    +0.000 A 
ATOM      8  C   UNL     1       1.907   7.854  20.156  0.00  0.00    +0.000 A 
BRANCH   6   9
ATOM      9  O   UNL     1       0.160  10.815  18.706  0.00  0.00    +0.000 OA
ATOM     10  C   UNL     1      -1.225  10.684  18.421  0.00  0.00    +0.000 C 
ENDBRANCH   6   9
BRANCH   7  11
ATOM     11  O   UNL     1       0.567   9.526  21.298  0.00  0.00    +0.000 OA
ATOM     12  C   UNL     1       1.165   9.190  22.544  0.00  0.00    +0.000 C 
ENDBRANCH   7  11
ENDBRANCH   2   3
BRANCH   2  13
ATOM     13  C   UNL     1       4.462   5.967  18.164  0.00  0.00    +0.000 A 
ATOM     14  C   UNL     1       4.345   6.052  16.777  0.00  0.00    +0.000 A 
ATOM     15  C   UNL     1       5.454   5.773  15.974  0.00  0.00    +0.000 A 
ATOM     16  C   UNL     1       6.690   5.412  16.535  0.00  0.00    +0.000 A 
ATOM     17  C   UNL     1       6.814   5.325  17.933  0.00  0.00    +0.000 A 
ATOM     18  C   UNL     1       5.695   5.616  18.732  0.00  0.00    +0.000 A 
BRANCH  16  19
ATOM     19  O   UNL     1       7.643   5.172  15.577  0.00  0.00    +0.000 OA
ATOM     20  C   UNL     1       7.223   4.849  14.260  0.00  0.00    +0.000 C 
ENDBRANCH  16  19
BRANCH  17  21
ATOM     21  O   UNL     1       8.016   4.941  18.461  0.00  0.00    +0.000 OA
ATOM     22  C   UNL     1       8.363   5.400  19.761  0.00  0.00    +0.000 C 
ENDBRANCH  17  21
ENDBRANCH   2  13
BRANCH   1  23
ATOM     23  C   UNL     1       1.802   5.133  20.860  0.00  0.00    +0.000 C 
BRANCH  23  24
ATOM     24  C   UNL     1       0.777   4.047  20.520  0.00  0.00    +0.000 C 
BRANCH  24  25
ATOM     25  C   UNL     1       1.458   2.716  20.185  0.00  0.00    +0.000 C 
BRANCH  25  26
ATOM     26  C   UNL     1       1.207   2.313  18.752  0.00  0.00    +0.000 C 
ATOM     27  O   UNL     1       0.132   1.941  18.304  0.00  0.00    +0.000 OA
BRANCH  26  29
ATOM     28  C   UNL     1       3.421   1.612  18.508  0.00  0.00    +0.000 C 
ATOM     29  O   UNL     1       2.355   2.427  18.023  0.00  0.00    +0.000 OA
ENDBRANCH  26  29
ENDBRANCH  25  26
ENDBRANCH  24  25
ENDBRANCH  23  24
ENDBRANCH   1  23
TORSDOF 11
ENDMDL
MODEL 7
REMARK VINA RESULT:      -7.5      1.270      6.385
REMARK  Name = 
REMARK  16 active torsions:
REMARK  status: ('A' for Active; 'I' for Inactive)
REMARK    1  A    between atoms: C_1  and  O_2
REMARK    2  A    between atoms: O_2  and  C_3
REMARK    3  A    between atoms: C_3  and  C_5
REMARK    4  A    between atoms: C_5  and  C_6
REMARK    5  A    between atoms: C_6  and  C_7
REMARK    6  A    between atoms: C_7  and  C_8
REMARK    7  A    between atoms: C_9  and  C_10
REMARK    8  A    between atoms: C_9  and  C_20
REMARK    9  A    between atoms: C_13  and  O_14
REMARK   10  A    between atoms: O_14  and  C_15
REMARK   11  A    between atoms: C_16  and  O_17
REMARK   12  A    between atoms: O_17  and  C_18
REMARK   13  A    between atoms: C_23  and  O_24
REMARK   14  A    between atoms: O_24  and  C_25
REMARK   15  A    between atoms: C_26  and  O_27
REMARK   16  A    between atoms: O_27  and  C_28
REMARK                            x       y       z     vdW  Elec       q    Type
REMARK                         _______ _______ _______ _____ _____    ______ ____
ROOT
ATOM      1  C   UNL     1       3.899   4.799  19.561  0.00  0.00    +0.000 C 
ATOM      2  C   UNL     1       3.931   5.787  18.638  0.00  0.00    +0.000 C 
ENDROOT
BRANCH   2   3
ATOM      3  C   UNL     1       4.924   5.757  17.545  0.00  0.00    +0.000 A 
ATOM      4  C   UNL     1       4.789   4.892  16.462  0.00  0.00    +0.000 A 
ATOM      5  C   UNL     1       5.774   4.874  15.472  0.00  0.00    +0.000 A 
ATOM      6  C   UNL     1       6.891   5.722  15.539  0.00  0.00    +0.000 A 
ATOM      7  C   UNL     1       7.033   6.592  16.636  0.00  0.00    +0.000 A 
ATOM      8  C   UNL     1       6.048   6.586  17.633  0.00  0.00    +0.000 A 
BRANCH   6   9
ATOM      9  O   UNL     1       7.724   5.566  14.459  0.00  0.00    +0.000 OA
ATOM     10  C   UNL     1       7.254   4.832  13.339  0.00  0.00    +0.000 C 
ENDBRANCH   6   9
BRANCH   7  11
ATOM     11  O   UNL     1       8.132   7.406  16.694  0.00  0.00    +0.000 OA
ATOM     12  C   UNL     1       8.165   8.421  17.689  0.00  0.00    +0.000 C 
ENDBRANCH   7  11
ENDBRANCH   2   3
BRANCH   2  13
ATOM     13  C   UNL     1       2.952   6.891  18.734  0.00  0.00    +0.000 A 
ATOM     14  C   UNL     1       2.789   7.807  17.695  0.00  0.00    +0.000 A 
ATOM     15  C   UNL     1       1.948   8.907  17.873  0.00  0.00    +0.000 A 
ATOM     16  C   UNL     1       1.257   9.111  19.079  0.00  0.00    +0.000 A 
ATOM     17  C   UNL     1       1.418   8.192  20.130  0.00  0.00    +0.000 A 
ATOM     18  C   UNL     1       2.259   7.082  19.937  0.00  0.00    +0.000 A 
BRANCH  16  19
ATOM     19  O   UNL     1       0.495  10.253  19.052  0.00  0.00    +0.000 OA
ATOM     20  C   UNL     1      -0.793  10.202  18.460  0.00  0.00    +0.000 C 
ENDBRANCH  16  19
BRANCH  17  21
ATOM     21  O   UNL     1       0.763   8.423  21.309  0.00  0.00    +0.000 OA
ATOM     22  C   UNL     1       1.398   9.233  22.290  0.00  0.00    +0.000 C 
ENDBRANCH  17  21
ENDBRANCH   2  13
BRANCH   1  23
ATOM     23  C   UNL     1       4.853   3.628  19.621  0.00  0.00    +0.000 C 
BRANCH  23  24
ATOM     24  C   UNL     1       4.138   2.273  19.630  0.00  0.00    +0.000 C 
BRANCH  24  25
ATOM     25  C   UNL     1       2.618   2.440  19.726  0.00  0.00    +0.000 C 
BRANCH  25  26
ATOM     26  C   UNL     1       2.162   2.528  21.161  0.00  0.00    +0.000 C 
ATOM     27  O   UNL     1       2.860   2.289  22.137  0.00  0.00    +0.000 OA
BRANCH  26  29
ATOM     28  C   UNL     1       0.513   3.904  20.246  0.00  0.00    +0.000 C 
ATOM     29  O   UNL     1       0.855   2.917  21.217  0.00  0.00    +0.000 OA
ENDBRANCH  26  29
ENDBRANCH  25  26
ENDBRANCH  24  25
ENDBRANCH  23  24
ENDBRANCH   1  23
TORSDOF 11
ENDMDL
MODEL 8
REMARK VINA RESULT:      -7.4      1.099      1.352
REMARK  Name = 
REMARK  16 active torsions:
REMARK  status: ('A' for Active; 'I' for Inactive)
REMARK    1  A    between atoms: C_1  and  O_2
REMARK    2  A    between atoms: O_2  and  C_3
REMARK    3  A    between atoms: C_3  and  C_5
REMARK    4  A    between atoms: C_5  and  C_6
REMARK    5  A    between atoms: C_6  and  C_7
REMARK    6  A    between atoms: C_7  and  C_8
REMARK    7  A    between atoms: C_9  and  C_10
REMARK    8  A    between atoms: C_9  and  C_20
REMARK    9  A    between atoms: C_13  and  O_14
REMARK   10  A    between atoms: O_14  and  C_15
REMARK   11  A    between atoms: C_16  and  O_17
REMARK   12  A    between atoms: O_17  and  C_18
REMARK   13  A    between atoms: C_23  and  O_24
REMARK   14  A    between atoms: O_24  and  C_25
REMARK   15  A    between atoms: C_26  and  O_27
REMARK   16  A    between atoms: O_27  and  C_28
REMARK                            x       y       z     vdW  Elec       q    Type
REMARK                         _______ _______ _______ _____ _____    ______ ____
ROOT
ATOM      1  C   UNL     1       2.479   4.861  19.013  0.00  0.00    +0.000 C 
ATOM      2  C   UNL     1       2.942   6.000  18.452  0.00  0.00    +0.000 C 
ENDROOT
BRANCH   2   3
ATOM      3  C   UNL     1       2.302   7.297  18.754  0.00  0.00    +0.000 A 
ATOM      4  C   UNL     1       2.043   8.231  17.754  0.00  0.00    +0.000 A 
ATOM      5  C   UNL     1       1.469   9.459  18.094  0.00  0.00    +0.000 A 
ATOM      6  C   UNL     1       1.134   9.763  19.423  0.00  0.00    +0.000 A 
ATOM      7  C   UNL     1       1.401   8.823  20.436  0.00  0.00    +0.000 A 
ATOM      8  C   UNL     1       1.995   7.603  20.084  0.00  0.00    +0.000 A 
BRANCH   6   9
ATOM      9  O   UNL     1       0.562  11.005  19.540  0.00  0.00    +0.000 OA
ATOM     10  C   UNL     1       1.128  12.085  18.814  0.00  0.00    +0.000 C 
ENDBRANCH   6   9
BRANCH   7  11
ATOM     11  O   UNL     1       1.078   9.137  21.729  0.00  0.00    +0.000 OA
ATOM     12  C   UNL     1      -0.265   8.944  22.153  0.00  0.00    +0.000 C 
ENDBRANCH   7  11
ENDBRANCH   2   3
BRANCH   2  13
ATOM     13  C   UNL     1       4.105   5.930  17.541  0.00  0.00    +0.000 A 
ATOM     14  C   UNL     1       4.304   4.831  16.704  0.00  0.00    +0.000 A 
ATOM     15  C   UNL     1       5.477   4.743  15.953  0.00  0.00    +0.000 A 
ATOM     16  C   UNL     1       6.464   5.740  16.017  0.00  0.00    +0.000 A 
ATOM     17  C   UNL     1       6.268   6.850  16.858  0.00  0.00    +0.000 A 
ATOM     18  C   UNL     1       5.080   6.934  17.603  0.00  0.00    +0.000 A 
BRANCH  16  19
ATOM     19  O   UNL     1       7.539   5.458  15.212  0.00  0.00    +0.000 OA
ATOM     20  C   UNL     1       7.305   4.889  13.933  0.00  0.00    +0.000 C 
ENDBRANCH  16  19
BRANCH  17  21
ATOM     21  O   UNL     1       7.253   7.797  16.933  0.00  0.00    +0.000 OA
ATOM     22  C   UNL     1       8.078   7.827  18.092  0.00  0.00    +0.000 C 
ENDBRANCH  17  21
ENDBRANCH   2  13
BRANCH   1  23
ATOM     23  C   UNL     1       1.281   4.764  19.930  0.00  0.00    +0.000 C 
BRANCH  23  24
ATOM     24  C   UNL     1       1.187   3.415  20.652  0.00  0.00    +0.000 C 
BRANCH  24  25
ATOM     25  C   UNL     1       2.495   3.071  21.372  0.00  0.00    +0.000 C 
BRANCH  25  26
ATOM     26  C   UNL     1       3.430   2.294  20.478  0.00  0.00    +0.000 C 
ATOM     27  O   UNL     1       4.639   2.199  20.638  0.00  0.00    +0.000 OA
BRANCH  26  29
ATOM     28  C   UNL     1       3.512   1.483  18.290  0.00  0.00    +0.000 C 
ATOM     29  O   UNL     1       2.731   1.707  19.463  0.00  0.00    +0.000 OA
ENDBRANCH  26  29
ENDBRANCH  25  26
ENDBRANCH  24  25
ENDBRANCH  23  24
ENDBRANCH   1  23
TORSDOF 11
ENDMDL
MODEL 9
REMARK VINA RESULT:      -7.4      1.732      6.479
REMARK  Name = 
REMARK  16 active torsions:
REMARK  status: ('A' for Active; 'I' for Inactive)
REMARK    1  A    between atoms: C_1  and  O_2
REMARK    2  A    between atoms: O_2  and  C_3
REMARK    3  A    between atoms: C_3  and  C_5
REMARK    4  A    between atoms: C_5  and  C_6
REMARK    5  A    between atoms: C_6  and  C_7
REMARK    6  A    between atoms: C_7  and  C_8
REMARK    7  A    between atoms: C_9  and  C_10
REMARK    8  A    between atoms: C_9  and  C_20
REMARK    9  A    between atoms: C_13  and  O_14
REMARK   10  A    between atoms: O_14  and  C_15
REMARK   11  A    between atoms: C_16  and  O_17
REMARK   12  A    between atoms: O_17  and  C_18
REMARK   13  A    between atoms: C_23  and  O_24
REMARK   14  A    between atoms: O_24  and  C_25
REMARK   15  A    between atoms: C_26  and  O_27
REMARK   16  A    between atoms: O_27  and  C_28
REMARK                            x       y       z     vdW  Elec       q    Type
REMARK                         _______ _______ _______ _____ _____    ______ ____
ROOT
ATOM      1  C   UNL     1       1.391   5.397  18.521  0.00  0.00    +0.000 C 
ATOM      2  C   UNL     1       2.300   6.384  18.683  0.00  0.00    +0.000 C 
ENDROOT
BRANCH   2   3
ATOM      3  C   UNL     1       3.633   6.285  18.054  0.00  0.00    +0.000 A 
ATOM      4  C   UNL     1       3.879   6.803  16.785  0.00  0.00    +0.000 A 
ATOM      5  C   UNL     1       5.146   6.651  16.216  0.00  0.00    +0.000 A 
ATOM      6  C   UNL     1       6.181   6.000  16.906  0.00  0.00    +0.000 A 
ATOM      7  C   UNL     1       5.932   5.470  18.186  0.00  0.00    +0.000 A 
ATOM      8  C   UNL     1       4.651   5.611  18.737  0.00  0.00    +0.000 A 
BRANCH   6   9
ATOM      9  O   UNL     1       7.349   5.979  16.185  0.00  0.00    +0.000 OA
ATOM     10  C   UNL     1       7.442   5.108  15.068  0.00  0.00    +0.000 C 
ENDBRANCH   6   9
BRANCH   7  11
ATOM     11  O   UNL     1       6.948   4.828  18.842  0.00  0.00    +0.000 OA
ATOM     12  C   UNL     1       7.866   5.613  19.591  0.00  0.00    +0.000 C 
ENDBRANCH   7  11
ENDBRANCH   2   3
BRANCH   2  13
ATOM     13  C   UNL     1       1.936   7.569  19.491  0.00  0.00    +0.000 A 
ATOM     14  C   UNL     1       1.774   7.480  20.874  0.00  0.00    +0.000 A 
ATOM     15  C   UNL     1       1.308   8.588  21.584  0.00  0.00    +0.000 A 
ATOM     16  C   UNL     1       1.001   9.796  20.935  0.00  0.00    +0.000 A 
ATOM     17  C   UNL     1       1.162   9.890  19.542  0.00  0.00    +0.000 A 
ATOM     18  C   UNL     1       1.641   8.773  18.838  0.00  0.00    +0.000 A 
BRANCH  16  19
ATOM     19  O   UNL     1       0.550  10.753  21.810  0.00  0.00    +0.000 OA
ATOM     20  C   UNL     1      -0.457  10.404  22.747  0.00  0.00    +0.000 C 
ENDBRANCH  16  19
BRANCH  17  21
ATOM     21  O   UNL     1       0.828  11.064  18.922  0.00  0.00    +0.000 OA
ATOM     22  C   UNL     1      -0.539  11.297  18.604  0.00  0.00    +0.000 C 
ENDBRANCH  17  21
ENDBRANCH   2  13
BRANCH   1  23
ATOM     23  C   UNL     1       1.624   4.111  17.761  0.00  0.00    +0.000 C 
BRANCH  23  24
ATOM     24  C   UNL     1       1.125   2.873  18.512  0.00  0.00    +0.000 C 
BRANCH  24  25
ATOM     25  C   UNL     1       0.856   3.180  19.988  0.00  0.00    +0.000 C 
BRANCH  25  26
ATOM     26  C   UNL     1       2.098   2.995  20.826  0.00  0.00    +0.000 C 
ATOM     27  O   UNL     1       2.355   3.613  21.850  0.00  0.00    +0.000 OA
BRANCH  26  29
ATOM     28  C   UNL     1       4.276   2.390  20.241  0.00  0.00    +0.000 C 
ATOM     29  O   UNL     1       2.896   2.032  20.279  0.00  0.00    +0.000 OA
ENDBRANCH  26  29
ENDBRANCH  25  26
ENDBRANCH  24  25
ENDBRANCH  23  24
ENDBRANCH   1  23
TORSDOF 11
ENDMDL
