MODEL 1
REMARK VINA RESULT:      -6.1      0.000      0.000
REMARK  Name = 
REMARK  4 active torsions:
REMARK  status: ('A' for Active; 'I' for Inactive)
REMARK    1  A    between atoms: C_1  and  C_2
REMARK    2  A    between atoms: C_2  and  N_3
REMARK    3  A    between atoms: C_2  and  C_4
REMARK    4  A    between atoms: C_4  and  C_5
REMARK                            x       y       z     vdW  Elec       q    Type
REMARK                         _______ _______ _______ _____ _____    ______ ____
ROOT
ATOM      1  C   UNL     1       5.110   4.074  18.344  0.00  0.00    +0.000 C 
ATOM      2  C   UNL     1       4.415   3.115  19.325  0.00  0.00    +0.000 C 
ATOM      3  C   UNL     1       3.704   1.914  18.702  0.00  0.00    +0.000 C 
ATOM      4  C   UNL     1       2.409   2.151  17.922  0.00  0.00    +0.000 C 
ATOM      5  C   UNL     1       1.494   3.248  18.467  0.00  0.00    +0.000 C 
ATOM      6  C   UNL     1       1.603   4.588  17.737  0.00  0.00    +0.000 C 
ATOM      7  C   UNL     1       2.907   5.375  17.888  0.00  0.00    +0.000 C 
ATOM      8  C   UNL     1       4.157   4.706  17.306  0.00  0.00    +0.000 C 
ENDROOT
BRANCH   1   9
ATOM      9  C   UNL     1       5.890   5.194  19.099  0.00  0.00    +0.000 C 
BRANCH   9  11
ATOM     10  C   UNL     1       7.435   6.750  17.827  0.00  0.00    +0.000 C 
ATOM     11  C   UNL     1       7.340   5.450  18.631  0.00  0.00    +0.000 C 
BRANCH  11  12
ATOM     12  N   UNL     1       7.836   4.359  17.788  0.00  0.00    +0.000 NA
ATOM     13  H   UNL     1       8.225   4.738  16.928  0.00  0.00    +0.000 HD
ATOM     14  H   UNL     1       7.059   3.758  17.512  0.00  0.00    +0.000 HD
ENDBRANCH  11  12
ENDBRANCH   9  11
ENDBRANCH   1   9
TORSDOF 3
ENDMDL
MODEL 2
REMARK VINA RESULT:      -6.0      1.487      1.954
REMARK  Name = 
REMARK  4 active torsions:
REMARK  status: ('A' for Active; 'I' for Inactive)
REMARK    1  A    between atoms: C_1  and  C_2
REMARK    2  A    between atoms: C_2  and  N_3
REMARK    3  A    between atoms: C_2  and  C_4
REMARK    4  A    between atoms: C_4  and  C_5
REMARK                            x       y       z     vdW  Elec       q    Type
REMARK                         _______ _______ _______ _____ _____    ______ ____
ROOT
ATOM      1  C   UNL     1       4.086   4.054  17.813  0.00  0.00    +0.000 C 
ATOM      2  C   UNL     1       3.666   2.682  18.365  0.00  0.00    +0.000 C 
ATOM      3  C   UNL     1       2.246   2.226  18.028  0.00  0.00    +0.000 C 
ATOM      4  C   UNL     1       1.069   2.928  18.709  0.00  0.00    +0.000 C 
ATOM      5  C   UNL     1       1.297   3.356  20.160  0.00  0.00    +0.000 C 
ATOM      6  C   UNL     1       1.649   4.834  20.338  0.00  0.00    +0.000 C 
ATOM      7  C   UNL     1       3.005   5.310  19.814  0.00  0.00    +0.000 C 
ATOM      8  C   UNL     1       3.198   5.221  18.296  0.00  0.00    +0.000 C 
ENDROOT
BRANCH   1   9
ATOM      9  C   UNL     1       5.583   4.361  18.126  0.00  0.00    +0.000 C 
BRANCH   9  11
ATOM     10  C   UNL     1       5.996   3.874  15.673  0.00  0.00    +0.000 C 
ATOM     11  C   UNL     1       6.492   4.632  16.907  0.00  0.00    +0.000 C 
BRANCH  11  12
ATOM     12  N   UNL     1       7.876   4.224  17.163  0.00  0.00    +0.000 NA
ATOM     13  H   UNL     1       7.896   3.508  17.886  0.00  0.00    +0.000 HD
ATOM     14  H   UNL     1       8.405   5.016  17.529  0.00  0.00    +0.000 HD
ENDBRANCH  11  12
ENDBRANCH   9  11
ENDBRANCH   1   9
TORSDOF 3
ENDMDL
MODEL 3
REMARK VINA RESULT:      -6.0      1.301      2.012
REMARK  Name = 
REMARK  4 active torsions:
REMARK  status: ('A' for Active; 'I' for Inactive)
REMARK    1  A    between atoms: C_1  and  C_2
REMARK    2  A    between atoms: C_2  and  N_3
REMARK    3  A    between atoms: C_2  and  C_4
REMARK    4  A    between atoms: C_4  and  C_5
REMARK                            x       y       z     vdW  Elec       q    Type
REMARK                         _______ _______ _______ _____ _____    ______ ____
ROOT
ATOM      1  C   UNL     1       3.218   4.439  17.452  0.00  0.00    +0.000 C 
ATOM      2  C   UNL     1       3.359   3.032  18.057  0.00  0.00    +0.000 C 
ATOM      3  C   UNL     1       2.097   2.169  18.056  0.00  0.00    +0.000 C 
ATOM      4  C   UNL     1       0.958   2.533  19.011  0.00  0.00    +0.000 C 
ATOM      5  C   UNL     1       1.381   3.078  20.375  0.00  0.00    +0.000 C 
ATOM      6  C   UNL     1       1.317   4.602  20.499  0.00  0.00    +0.000 C 
ATOM      7  C   UNL     1       2.314   5.424  19.679  0.00  0.00    +0.000 C 
ATOM      8  C   UNL     1       2.166   5.321  18.157  0.00  0.00    +0.000 C 
ENDROOT
BRANCH   1   9
ATOM      9  C   UNL     1       4.590   5.180  17.409  0.00  0.00    +0.000 C 
BRANCH   9  11
ATOM     10  C   UNL     1       6.294   5.356  19.277  0.00  0.00    +0.000 C 
ATOM     11  C   UNL     1       5.764   4.486  18.134  0.00  0.00    +0.000 C 
BRANCH  11  12
ATOM     12  N   UNL     1       6.876   4.209  17.221  0.00  0.00    +0.000 NA
ATOM     13  H   UNL     1       7.725   4.648  17.570  0.00  0.00    +0.000 HD
ATOM     14  H   UNL     1       6.687   4.631  16.312  0.00  0.00    +0.000 HD
ENDBRANCH  11  12
ENDBRANCH   9  11
ENDBRANCH   1   9
TORSDOF 3
ENDMDL
MODEL 4
REMARK VINA RESULT:      -5.8      1.851      2.400
REMARK  Name = 
REMARK  4 active torsions:
REMARK  status: ('A' for Active; 'I' for Inactive)
REMARK    1  A    between atoms: C_1  and  C_2
REMARK    2  A    between atoms: C_2  and  N_3
REMARK    3  A    between atoms: C_2  and  C_4
REMARK    4  A    between atoms: C_4  and  C_5
REMARK                            x       y       z     vdW  Elec       q    Type
REMARK                         _______ _______ _______ _____ _____    ______ ____
ROOT
ATOM      1  C   UNL     1       3.302   4.597  17.538  0.00  0.00    +0.000 C 
ATOM      2  C   UNL     1       3.527   3.155  18.023  0.00  0.00    +0.000 C 
ATOM      3  C   UNL     1       2.352   2.194  17.847  0.00  0.00    +0.000 C 
ATOM      4  C   UNL     1       1.122   2.366  18.740  0.00  0.00    +0.000 C 
ATOM      5  C   UNL     1       1.399   2.811  20.177  0.00  0.00    +0.000 C 
ATOM      6  C   UNL     1       1.188   4.305  20.432  0.00  0.00    +0.000 C 
ATOM      7  C   UNL     1       2.161   5.283  19.769  0.00  0.00    +0.000 C 
ATOM      8  C   UNL     1       2.129   5.316  18.237  0.00  0.00    +0.000 C 
ENDROOT
BRANCH   1   9
ATOM      9  C   UNL     1       4.601   5.451  17.668  0.00  0.00    +0.000 C 
BRANCH   9  11
ATOM     10  C   UNL     1       5.527   5.009  15.350  0.00  0.00    +0.000 C 
ATOM     11  C   UNL     1       5.132   6.086  16.364  0.00  0.00    +0.000 C 
BRANCH  11  12
ATOM     12  N   UNL     1       6.306   6.928  16.611  0.00  0.00    +0.000 NA
ATOM     13  H   UNL     1       6.947   6.449  17.240  0.00  0.00    +0.000 HD
ATOM     14  H   UNL     1       6.020   7.783  17.089  0.00  0.00    +0.000 HD
ENDBRANCH  11  12
ENDBRANCH   9  11
ENDBRANCH   1   9
TORSDOF 3
ENDMDL
MODEL 5
REMARK VINA RESULT:      -5.8      1.663      2.158
REMARK  Name = 
REMARK  4 active torsions:
REMARK  status: ('A' for Active; 'I' for Inactive)
REMARK    1  A    between atoms: C_1  and  C_2
REMARK    2  A    between atoms: C_2  and  N_3
REMARK    3  A    between atoms: C_2  and  C_4
REMARK    4  A    between atoms: C_4  and  C_5
REMARK                            x       y       z     vdW  Elec       q    Type
REMARK                         _______ _______ _______ _____ _____    ______ ____
ROOT
ATOM      1  C   UNL     1       3.606   4.113  17.761  0.00  0.00    +0.000 C 
ATOM      2  C   UNL     1       3.430   2.700  18.341  0.00  0.00    +0.000 C 
ATOM      3  C   UNL     1       2.068   2.044  18.116  0.00  0.00    +0.000 C 
ATOM      4  C   UNL     1       0.860   2.577  18.890  0.00  0.00    +0.000 C 
ATOM      5  C   UNL     1       1.137   3.045  20.319  0.00  0.00    +0.000 C 
ATOM      6  C   UNL     1       1.288   4.560  20.473  0.00  0.00    +0.000 C 
ATOM      7  C   UNL     1       2.518   5.220  19.845  0.00  0.00    +0.000 C 
ATOM      8  C   UNL     1       2.602   5.146  18.317  0.00  0.00    +0.000 C 
ENDROOT
BRANCH   1   9
ATOM      9  C   UNL     1       5.064   4.632  17.957  0.00  0.00    +0.000 C 
BRANCH   9  11
ATOM     10  C   UNL     1       5.325   5.832  15.739  0.00  0.00    +0.000 C 
ATOM     11  C   UNL     1       5.915   4.773  16.675  0.00  0.00    +0.000 C 
BRANCH  11  12
ATOM     12  N   UNL     1       5.995   3.510  15.937  0.00  0.00    +0.000 NA
ATOM     13  H   UNL     1       5.936   3.691  14.937  0.00  0.00    +0.000 HD
ATOM     14  H   UNL     1       5.194   2.924  16.171  0.00  0.00    +0.000 HD
ENDBRANCH  11  12
ENDBRANCH   9  11
ENDBRANCH   1   9
TORSDOF 3
ENDMDL
MODEL 6
REMARK VINA RESULT:      -5.8      1.606      2.367
REMARK  Name = 
REMARK  4 active torsions:
REMARK  status: ('A' for Active; 'I' for Inactive)
REMARK    1  A    between atoms: C_1  and  C_2
REMARK    2  A    between atoms: C_2  and  N_3
REMARK    3  A    between atoms: C_2  and  C_4
REMARK    4  A    between atoms: C_4  and  C_5
REMARK                            x       y       z     vdW  Elec       q    Type
REMARK                         _______ _______ _______ _____ _____    ______ ____
ROOT
ATOM      1  C   UNL     1       4.330   4.793  19.373  0.00  0.00    +0.000 C 
ATOM      2  C   UNL     1       2.967   5.471  19.590  0.00  0.00    +0.000 C 
ATOM      3  C   UNL     1       2.135   4.950  20.762  0.00  0.00    +0.000 C 
ATOM      4  C   UNL     1       1.495   3.564  20.648  0.00  0.00    +0.000 C 
ATOM      5  C   UNL     1       0.993   3.174  19.258  0.00  0.00    +0.000 C 
ATOM      6  C   UNL     1       1.939   2.264  18.472  0.00  0.00    +0.000 C 
ATOM      7  C   UNL     1       3.269   2.858  18.003  0.00  0.00    +0.000 C 
ATOM      8  C   UNL     1       4.239   3.274  19.114  0.00  0.00    +0.000 C 
ENDROOT
BRANCH   1   9
ATOM      9  C   UNL     1       5.131   5.480  18.224  0.00  0.00    +0.000 C 
BRANCH   9  11
ATOM     10  C   UNL     1       7.432   4.643  17.570  0.00  0.00    +0.000 C 
ATOM     11  C   UNL     1       6.653   5.627  18.447  0.00  0.00    +0.000 C 
BRANCH  11  12
ATOM     12  N   UNL     1       7.022   5.379  19.843  0.00  0.00    +0.000 NA
ATOM     13  H   UNL     1       7.296   4.406  19.960  0.00  0.00    +0.000 HD
ATOM     14  H   UNL     1       6.209   5.523  20.443  0.00  0.00    +0.000 HD
ENDBRANCH  11  12
ENDBRANCH   9  11
ENDBRANCH   1   9
TORSDOF 3
ENDMDL
MODEL 7
REMARK VINA RESULT:      -5.8      1.399      1.723
REMARK  Name = 
REMARK  4 active torsions:
REMARK  status: ('A' for Active; 'I' for Inactive)
REMARK    1  A    between atoms: C_1  and  C_2
REMARK    2  A    between atoms: C_2  and  N_3
REMARK    3  A    between atoms: C_2  and  C_4
REMARK    4  A    between atoms: C_4  and  C_5
REMARK                            x       y       z     vdW  Elec       q    Type
REMARK                         _______ _______ _______ _____ _____    ______ ____
ROOT
ATOM      1  C   UNL     1       4.107   4.872  18.526  0.00  0.00    +0.000 C 
ATOM      2  C   UNL     1       3.843   3.365  18.370  0.00  0.00    +0.000 C 
ATOM      3  C   UNL     1       2.604   2.978  17.563  0.00  0.00    +0.000 C 
ATOM      4  C   UNL     1       1.223   3.218  18.179  0.00  0.00    +0.000 C 
ATOM      5  C   UNL     1       1.120   3.001  19.689  0.00  0.00    +0.000 C 
ATOM      6  C   UNL     1       1.174   4.284  20.520  0.00  0.00    +0.000 C 
ATOM      7  C   UNL     1       2.497   5.053  20.557  0.00  0.00    +0.000 C 
ATOM      8  C   UNL     1       2.961   5.639  19.219  0.00  0.00    +0.000 C 
ENDROOT
BRANCH   1   9
ATOM      9  C   UNL     1       5.452   5.140  19.270  0.00  0.00    +0.000 C 
BRANCH   9  11
ATOM     10  C   UNL     1       6.190   6.217  17.097  0.00  0.00    +0.000 C 
ATOM     11  C   UNL     1       6.656   5.529  18.383  0.00  0.00    +0.000 C 
BRANCH  11  12
ATOM     12  N   UNL     1       7.451   4.357  18.008  0.00  0.00    +0.000 NA
ATOM     13  H   UNL     1       6.834   3.584  17.770  0.00  0.00    +0.000 HD
ATOM     14  H   UNL     1       8.005   4.048  18.807  0.00  0.00    +0.000 HD
ENDBRANCH  11  12
ENDBRANCH   9  11
ENDBRANCH   1   9
TORSDOF 3
ENDMDL
MODEL 8
REMARK VINA RESULT:      -5.7      1.654      2.513
REMARK  Name = 
REMARK  4 active torsions:
REMARK  status: ('A' for Active; 'I' for Inactive)
REMARK    1  A    between atoms: C_1  and  C_2
REMARK    2  A    between atoms: C_2  and  N_3
REMARK    3  A    between atoms: C_2  and  C_4
REMARK    4  A    between atoms: C_4  and  C_5
REMARK                            x       y       z     vdW  Elec       q    Type
REMARK                         _______ _______ _______ _____ _____    ______ ____
ROOT
ATOM      1  C   UNL     1       4.300   3.816  18.533  0.00  0.00    +0.000 C 
ATOM      2  C   UNL     1       3.366   4.954  18.975  0.00  0.00    +0.000 C 
ATOM      3  C   UNL     1       2.832   4.871  20.405  0.00  0.00    +0.000 C 
ATOM      4  C   UNL     1       1.788   3.803  20.737  0.00  0.00    +0.000 C 
ATOM      5  C   UNL     1       0.771   3.499  19.636  0.00  0.00    +0.000 C 
ATOM      6  C   UNL     1       1.079   2.245  18.815  0.00  0.00    +0.000 C 
ATOM      7  C   UNL     1       2.304   2.278  17.900  0.00  0.00    +0.000 C 
ATOM      8  C   UNL     1       3.657   2.414  18.606  0.00  0.00    +0.000 C 
ENDROOT
BRANCH   1   9
ATOM      9  C   UNL     1       4.866   4.066  17.101  0.00  0.00    +0.000 C 
BRANCH   9  11
ATOM     10  C   UNL     1       6.882   4.564  15.647  0.00  0.00    +0.000 C 
ATOM     11  C   UNL     1       6.240   4.766  17.023  0.00  0.00    +0.000 C 
BRANCH  11  12
ATOM     12  N   UNL     1       7.167   4.253  18.035  0.00  0.00    +0.000 NA
ATOM     13  H   UNL     1       8.026   3.940  17.588  0.00  0.00    +0.000 HD
ATOM     14  H   UNL     1       6.762   3.433  18.486  0.00  0.00    +0.000 HD
ENDBRANCH  11  12
ENDBRANCH   9  11
ENDBRANCH   1   9
TORSDOF 3
ENDMDL
MODEL 9
REMARK VINA RESULT:      -5.7      2.012      3.153
REMARK  Name = 
REMARK  4 active torsions:
REMARK  status: ('A' for Active; 'I' for Inactive)
REMARK    1  A    between atoms: C_1  and  C_2
REMARK    2  A    between atoms: C_2  and  N_3
REMARK    3  A    between atoms: C_2  and  C_4
REMARK    4  A    between atoms: C_4  and  C_5
REMARK                            x       y       z     vdW  Elec       q    Type
REMARK                         _______ _______ _______ _____ _____    ______ ____
ROOT
ATOM      1  C   UNL     1       5.513   4.984  17.654  0.00  0.00    +0.000 C 
ATOM      2  C   UNL     1       4.487   5.917  16.990  0.00  0.00    +0.000 C 
ATOM      3  C   UNL     1       3.484   6.590  17.927  0.00  0.00    +0.000 C 
ATOM      4  C   UNL     1       2.386   5.735  18.563  0.00  0.00    +0.000 C 
ATOM      5  C   UNL     1       1.820   4.617  17.686  0.00  0.00    +0.000 C 
ATOM      6  C   UNL     1       2.392   3.229  17.979  0.00  0.00    +0.000 C 
ATOM      7  C   UNL     1       3.862   2.978  17.634  0.00  0.00    +0.000 C 
ATOM      8  C   UNL     1       4.880   3.806  18.425  0.00  0.00    +0.000 C 
ENDROOT
BRANCH   1   9
ATOM      9  C   UNL     1       6.547   4.445  16.618  0.00  0.00    +0.000 C 
BRANCH   9  11
ATOM     10  C   UNL     1       5.937   3.925  14.213  0.00  0.00    +0.000 C 
ATOM     11  C   UNL     1       6.428   5.004  15.182  0.00  0.00    +0.000 C 
BRANCH  11  12
ATOM     12  N   UNL     1       7.714   5.505  14.689  0.00  0.00    +0.000 NA
ATOM     13  H   UNL     1       8.124   6.135  15.375  0.00  0.00    +0.000 HD
ATOM     14  H   UNL     1       7.564   6.059  13.845  0.00  0.00    +0.000 HD
ENDBRANCH  11  12
ENDBRANCH   9  11
ENDBRANCH   1   9
TORSDOF 3
ENDMDL
