MODEL 1
REMARK VINA RESULT:      -8.6      0.000      0.000
REMARK  Name = 
REMARK  8 active torsions:
REMARK  status: ('A' for Active; 'I' for Inactive)
REMARK    1  A    between atoms: C_1  and  O_2
REMARK    2  A    between atoms: O_2  and  C_3
REMARK    3  A    between atoms: C_6  and  C_7
REMARK    4  A    between atoms: C_9  and  C_10
REMARK    5  A    between atoms: C_10  and  O_12
REMARK    6  A    between atoms: O_12  and  C_13
REMARK    7  A    between atoms: C_17  and  C_18
REMARK    8  A    between atoms: C_22  and  C_23
REMARK                            x       y       z     vdW  Elec       q    Type
REMARK                         _______ _______ _______ _____ _____    ______ ____
ROOT
ATOM      1  C   UNL     1       6.696   6.330  16.495  0.00  0.00    +0.000 A 
ATOM      2  C   UNL     1       5.379   5.952  16.664  0.00  0.00    +0.000 A 
ATOM      3  C   UNL     1       4.919   4.862  15.953  0.00  0.00    +0.000 A 
ATOM      4  C   UNL     1       5.538   4.533  14.755  0.00  0.00    +0.000 A 
ATOM      5  C   UNL     1       4.856   3.815  13.756  0.00  0.00    +0.000 A 
ATOM      6  C   UNL     1       5.472   3.508  12.551  0.00  0.00    +0.000 A 
ATOM      7  C   UNL     1       4.685   2.835  11.466  0.00  0.00    +0.000 C 
ATOM      8  C   UNL     1       6.810   3.867  12.391  0.00  0.00    +0.000 A 
ATOM      9  C   UNL     1       7.482   4.590  13.397  0.00  0.00    +0.000 A 
ATOM     10  C   UNL     1       6.844   5.002  14.568  0.00  0.00    +0.000 A 
ATOM     11  N   UNL     1       7.444   5.819  15.479  0.00  0.00    +0.000 NA
ENDROOT
BRANCH   1  15
ATOM     12  C   UNL     1       8.817   9.174  18.933  0.00  0.00    +0.000 A 
ATOM     13  C   UNL     1       8.011   9.609  17.890  0.00  0.00    +0.000 A 
ATOM     14  C   UNL     1       7.239   8.696  17.177  0.00  0.00    +0.000 A 
ATOM     15  C   UNL     1       7.299   7.307  17.432  0.00  0.00    +0.000 A 
ATOM     16  C   UNL     1       8.030   6.905  18.556  0.00  0.00    +0.000 A 
ATOM     17  C   UNL     1       8.792   7.828  19.293  0.00  0.00    +0.000 A 
BRANCH  12  19
ATOM     18  C   UNL     1       9.748  11.341  18.727  0.00  0.00    +0.000 C 
ATOM     19  O   UNL     1       9.591  10.152  19.487  0.00  0.00    +0.000 OA
ENDBRANCH  12  19
ENDBRANCH   1  15
BRANCH   3  20
ATOM     20  C   UNL     1       4.230   3.779  16.730  0.00  0.00    +0.000 C 
ATOM     21  O   UNL     1       4.789   2.877  17.323  0.00  0.00    +0.000 OA
BRANCH  20  22
ATOM     22  O   UNL     1       2.885   4.092  16.840  0.00  0.00    +0.000 OA
BRANCH  22  23
ATOM     23  C   UNL     1       2.422   4.399  18.133  0.00  0.00    +0.000 A 
ATOM     24  C   UNL     1       2.529   5.734  18.506  0.00  0.00    +0.000 A 
ATOM     25  C   UNL     1       2.219   6.105  19.814  0.00  0.00    +0.000 A 
ATOM     26  C   UNL     1       1.820   5.142  20.746  0.00  0.00    +0.000 A 
ATOM     27  C   UNL     1       1.733   3.794  20.383  0.00  0.00    +0.000 A 
ATOM     28  C   UNL     1       1.337   2.753  21.389  0.00  0.00    +0.000 C 
ATOM     29  C   UNL     1       2.037   3.424  19.062  0.00  0.00    +0.000 A 
ENDBRANCH  22  23
ENDBRANCH  20  22
ENDBRANCH   3  20
TORSDOF 5
ENDMDL
MODEL 2
REMARK VINA RESULT:      -8.4      0.641      1.276
REMARK  Name = 
REMARK  8 active torsions:
REMARK  status: ('A' for Active; 'I' for Inactive)
REMARK    1  A    between atoms: C_1  and  O_2
REMARK    2  A    between atoms: O_2  and  C_3
REMARK    3  A    between atoms: C_6  and  C_7
REMARK    4  A    between atoms: C_9  and  C_10
REMARK    5  A    between atoms: C_10  and  O_12
REMARK    6  A    between atoms: O_12  and  C_13
REMARK    7  A    between atoms: C_17  and  C_18
REMARK    8  A    between atoms: C_22  and  C_23
REMARK                            x       y       z     vdW  Elec       q    Type
REMARK                         _______ _______ _______ _____ _____    ______ ____
ROOT
ATOM      1  C   UNL     1       6.757   6.364  16.508  0.00  0.00    +0.000 A 
ATOM      2  C   UNL     1       5.458   5.939  16.705  0.00  0.00    +0.000 A 
ATOM      3  C   UNL     1       5.021   4.836  15.999  0.00  0.00    +0.000 A 
ATOM      4  C   UNL     1       5.624   4.534  14.786  0.00  0.00    +0.000 A 
ATOM      5  C   UNL     1       4.945   3.796  13.799  0.00  0.00    +0.000 A 
ATOM      6  C   UNL     1       5.545   3.516  12.578  0.00  0.00    +0.000 A 
ATOM      7  C   UNL     1       4.758   2.821  11.508  0.00  0.00    +0.000 C 
ATOM      8  C   UNL     1       6.865   3.923  12.390  0.00  0.00    +0.000 A 
ATOM      9  C   UNL     1       7.534   4.664  13.385  0.00  0.00    +0.000 A 
ATOM     10  C   UNL     1       6.909   5.049  14.572  0.00  0.00    +0.000 A 
ATOM     11  N   UNL     1       7.499   5.883  15.473  0.00  0.00    +0.000 NA
ENDROOT
BRANCH   1  15
ATOM     12  C   UNL     1       8.837   9.261  18.918  0.00  0.00    +0.000 A 
ATOM     13  C   UNL     1       8.020   9.675  17.875  0.00  0.00    +0.000 A 
ATOM     14  C   UNL     1       7.261   8.743  17.172  0.00  0.00    +0.000 A 
ATOM     15  C   UNL     1       7.346   7.357  17.436  0.00  0.00    +0.000 A 
ATOM     16  C   UNL     1       8.089   6.976  18.560  0.00  0.00    +0.000 A 
ATOM     17  C   UNL     1       8.837   7.917  19.288  0.00  0.00    +0.000 A 
BRANCH  12  19
ATOM     18  C   UNL     1       9.173  10.757  20.721  0.00  0.00    +0.000 C 
ATOM     19  O   UNL     1       9.596  10.256  19.463  0.00  0.00    +0.000 OA
ENDBRANCH  12  19
ENDBRANCH   1  15
BRANCH   3  20
ATOM     20  C   UNL     1       4.388   3.727  16.786  0.00  0.00    +0.000 C 
ATOM     21  O   UNL     1       4.990   2.913  17.460  0.00  0.00    +0.000 OA
BRANCH  20  22
ATOM     22  O   UNL     1       3.014   3.907  16.791  0.00  0.00    +0.000 OA
BRANCH  22  23
ATOM     23  C   UNL     1       2.405   3.993  18.057  0.00  0.00    +0.000 A 
ATOM     24  C   UNL     1       1.623   2.902  18.421  0.00  0.00    +0.000 A 
ATOM     25  C   UNL     1       0.877   2.959  19.597  0.00  0.00    +0.000 A 
ATOM     26  C   UNL     1       0.902   4.106  20.396  0.00  0.00    +0.000 A 
ATOM     27  C   UNL     1       1.668   5.216  20.023  0.00  0.00    +0.000 A 
ATOM     28  C   UNL     1       1.671   6.461  20.861  0.00  0.00    +0.000 C 
ATOM     29  C   UNL     1       2.427   5.153  18.842  0.00  0.00    +0.000 A 
ENDBRANCH  22  23
ENDBRANCH  20  22
ENDBRANCH   3  20
TORSDOF 5
ENDMDL
MODEL 3
REMARK VINA RESULT:      -8.4      3.146      5.038
REMARK  Name = 
REMARK  8 active torsions:
REMARK  status: ('A' for Active; 'I' for Inactive)
REMARK    1  A    between atoms: C_1  and  O_2
REMARK    2  A    between atoms: O_2  and  C_3
REMARK    3  A    between atoms: C_6  and  C_7
REMARK    4  A    between atoms: C_9  and  C_10
REMARK    5  A    between atoms: C_10  and  O_12
REMARK    6  A    between atoms: O_12  and  C_13
REMARK    7  A    between atoms: C_17  and  C_18
REMARK    8  A    between atoms: C_22  and  C_23
REMARK                            x       y       z     vdW  Elec       q    Type
REMARK                         _______ _______ _______ _____ _____    ______ ____
ROOT
ATOM      1  C   UNL     1       3.074   7.005  18.503  0.00  0.00    +0.000 A 
ATOM      2  C   UNL     1       3.396   5.737  18.945  0.00  0.00    +0.000 A 
ATOM      3  C   UNL     1       4.460   5.091  18.349  0.00  0.00    +0.000 A 
ATOM      4  C   UNL     1       4.808   5.431  17.049  0.00  0.00    +0.000 A 
ATOM      5  C   UNL     1       5.489   4.524  16.216  0.00  0.00    +0.000 A 
ATOM      6  C   UNL     1       5.814   4.861  14.909  0.00  0.00    +0.000 A 
ATOM      7  C   UNL     1       6.444   3.836  14.014  0.00  0.00    +0.000 C 
ATOM      8  C   UNL     1       5.512   6.150  14.472  0.00  0.00    +0.000 A 
ATOM      9  C   UNL     1       4.826   7.049  15.313  0.00  0.00    +0.000 A 
ATOM     10  C   UNL     1       4.395   6.689  16.591  0.00  0.00    +0.000 A 
ATOM     11  N   UNL     1       3.610   7.500  17.354  0.00  0.00    +0.000 NA
ENDROOT
BRANCH   1  15
ATOM     12  C   UNL     1       0.703   9.670  20.912  0.00  0.00    +0.000 A 
ATOM     13  C   UNL     1       0.935   9.955  19.573  0.00  0.00    +0.000 A 
ATOM     14  C   UNL     1       1.605   9.036  18.770  0.00  0.00    +0.000 A 
ATOM     15  C   UNL     1       2.131   7.832  19.292  0.00  0.00    +0.000 A 
ATOM     16  C   UNL     1       1.790   7.516  20.612  0.00  0.00    +0.000 A 
ATOM     17  C   UNL     1       1.092   8.431  21.419  0.00  0.00    +0.000 A 
BRANCH  12  19
ATOM     18  C   UNL     1      -0.525  10.339  22.822  0.00  0.00    +0.000 C 
ATOM     19  O   UNL     1       0.121  10.690  21.608  0.00  0.00    +0.000 OA
ENDBRANCH  12  19
ENDBRANCH   1  15
BRANCH   3  20
ATOM     20  C   UNL     1       5.518   4.533  19.255  0.00  0.00    +0.000 C 
ATOM     21  O   UNL     1       6.260   5.193  19.957  0.00  0.00    +0.000 OA
BRANCH  20  22
ATOM     22  O   UNL     1       5.370   3.157  19.324  0.00  0.00    +0.000 OA
BRANCH  22  23
ATOM     23  C   UNL     1       4.052   2.681  19.460  0.00  0.00    +0.000 A 
ATOM     24  C   UNL     1       3.471   2.188  18.297  0.00  0.00    +0.000 A 
ATOM     25  C   UNL     1       2.127   1.818  18.310  0.00  0.00    +0.000 A 
ATOM     26  C   UNL     1       1.366   1.957  19.475  0.00  0.00    +0.000 A 
ATOM     27  C   UNL     1       1.939   2.474  20.641  0.00  0.00    +0.000 A 
ATOM     28  C   UNL     1       1.118   2.655  21.884  0.00  0.00    +0.000 C 
ATOM     29  C   UNL     1       3.297   2.837  20.629  0.00  0.00    +0.000 A 
ENDBRANCH  22  23
ENDBRANCH  20  22
ENDBRANCH   3  20
TORSDOF 5
ENDMDL
MODEL 4
REMARK VINA RESULT:      -8.3      3.339      6.893
REMARK  Name = 
REMARK  8 active torsions:
REMARK  status: ('A' for Active; 'I' for Inactive)
REMARK    1  A    between atoms: C_1  and  O_2
REMARK    2  A    between atoms: O_2  and  C_3
REMARK    3  A    between atoms: C_6  and  C_7
REMARK    4  A    between atoms: C_9  and  C_10
REMARK    5  A    between atoms: C_10  and  O_12
REMARK    6  A    between atoms: O_12  and  C_13
REMARK    7  A    between atoms: C_17  and  C_18
REMARK    8  A    between atoms: C_22  and  C_23
REMARK                            x       y       z     vdW  Elec       q    Type
REMARK                         _______ _______ _______ _____ _____    ______ ____
ROOT
ATOM      1  C   UNL     1       2.548   7.211  18.338  0.00  0.00    +0.000 A 
ATOM      2  C   UNL     1       3.874   7.089  17.973  0.00  0.00    +0.000 A 
ATOM      3  C   UNL     1       4.278   5.911  17.377  0.00  0.00    +0.000 A 
ATOM      4  C   UNL     1       3.570   4.747  17.642  0.00  0.00    +0.000 A 
ATOM      5  C   UNL     1       4.174   3.483  17.518  0.00  0.00    +0.000 A 
ATOM      6  C   UNL     1       3.468   2.323  17.806  0.00  0.00    +0.000 A 
ATOM      7  C   UNL     1       4.169   0.999  17.767  0.00  0.00    +0.000 C 
ATOM      8  C   UNL     1       2.122   2.446  18.149  0.00  0.00    +0.000 A 
ATOM      9  C   UNL     1       1.528   3.718  18.274  0.00  0.00    +0.000 A 
ATOM     10  C   UNL     1       2.253   4.897  18.095  0.00  0.00    +0.000 A 
ATOM     11  N   UNL     1       1.725   6.127  18.351  0.00  0.00    +0.000 NA
ENDROOT
BRANCH   1  15
ATOM     12  C   UNL     1       0.592  10.921  19.309  0.00  0.00    +0.000 A 
ATOM     13  C   UNL     1       0.650   9.895  20.242  0.00  0.00    +0.000 A 
ATOM     14  C   UNL     1       1.380   8.742  19.966  0.00  0.00    +0.000 A 
ATOM     15  C   UNL     1       2.019   8.541  18.721  0.00  0.00    +0.000 A 
ATOM     16  C   UNL     1       2.039   9.631  17.842  0.00  0.00    +0.000 A 
ATOM     17  C   UNL     1       1.324  10.806  18.128  0.00  0.00    +0.000 A 
BRANCH  12  19
ATOM     18  C   UNL     1      -1.202  12.342  18.703  0.00  0.00    +0.000 C 
ATOM     19  O   UNL     1      -0.231  11.951  19.662  0.00  0.00    +0.000 OA
ENDBRANCH  12  19
ENDBRANCH   1  15
BRANCH   3  20
ATOM     20  C   UNL     1       5.024   6.022  16.080  0.00  0.00    +0.000 C 
ATOM     21  O   UNL     1       4.980   6.974  15.325  0.00  0.00    +0.000 OA
BRANCH  20  22
ATOM     22  O   UNL     1       5.922   4.971  15.987  0.00  0.00    +0.000 OA
BRANCH  22  23
ATOM     23  C   UNL     1       6.289   4.582  14.685  0.00  0.00    +0.000 A 
ATOM     24  C   UNL     1       7.444   5.172  14.186  0.00  0.00    +0.000 A 
ATOM     25  C   UNL     1       7.809   4.947  12.860  0.00  0.00    +0.000 A 
ATOM     26  C   UNL     1       7.013   4.148  12.033  0.00  0.00    +0.000 A 
ATOM     27  C   UNL     1       5.836   3.570  12.522  0.00  0.00    +0.000 A 
ATOM     28  C   UNL     1       4.962   2.739  11.630  0.00  0.00    +0.000 C 
ATOM     29  C   UNL     1       5.476   3.791  13.862  0.00  0.00    +0.000 A 
ENDBRANCH  22  23
ENDBRANCH  20  22
ENDBRANCH   3  20
TORSDOF 5
ENDMDL
MODEL 5
REMARK VINA RESULT:      -8.2      3.387      7.218
REMARK  Name = 
REMARK  8 active torsions:
REMARK  status: ('A' for Active; 'I' for Inactive)
REMARK    1  A    between atoms: C_1  and  O_2
REMARK    2  A    between atoms: O_2  and  C_3
REMARK    3  A    between atoms: C_6  and  C_7
REMARK    4  A    between atoms: C_9  and  C_10
REMARK    5  A    between atoms: C_10  and  O_12
REMARK    6  A    between atoms: O_12  and  C_13
REMARK    7  A    between atoms: C_17  and  C_18
REMARK    8  A    between atoms: C_22  and  C_23
REMARK                            x       y       z     vdW  Elec       q    Type
REMARK                         _______ _______ _______ _____ _____    ______ ____
ROOT
ATOM      1  C   UNL     1       2.226   6.915  19.651  0.00  0.00    +0.000 A 
ATOM      2  C   UNL     1       3.317   6.692  18.835  0.00  0.00    +0.000 A 
ATOM      3  C   UNL     1       3.726   5.388  18.640  0.00  0.00    +0.000 A 
ATOM      4  C   UNL     1       3.444   4.443  19.617  0.00  0.00    +0.000 A 
ATOM      5  C   UNL     1       4.226   3.282  19.755  0.00  0.00    +0.000 A 
ATOM      6  C   UNL     1       3.954   2.351  20.747  0.00  0.00    +0.000 A 
ATOM      7  C   UNL     1       4.869   1.179  20.937  0.00  0.00    +0.000 C 
ATOM      8  C   UNL     1       2.837   2.565  21.555  0.00  0.00    +0.000 A 
ATOM      9  C   UNL     1       2.062   3.734  21.410  0.00  0.00    +0.000 A 
ATOM     10  C   UNL     1       2.387   4.732  20.490  0.00  0.00    +0.000 A 
ATOM     11  N   UNL     1       1.730   5.924  20.441  0.00  0.00    +0.000 NA
ENDROOT
BRANCH   1  15
ATOM     12  C   UNL     1      -0.021  10.587  19.602  0.00  0.00    +0.000 A 
ATOM     13  C   UNL     1       0.101   9.856  20.776  0.00  0.00    +0.000 A 
ATOM     14  C   UNL     1       0.921   8.732  20.816  0.00  0.00    +0.000 A 
ATOM     15  C   UNL     1       1.591   8.255  19.666  0.00  0.00    +0.000 A 
ATOM     16  C   UNL     1       1.542   9.067  18.527  0.00  0.00    +0.000 A 
ATOM     17  C   UNL     1       0.735  10.217  18.491  0.00  0.00    +0.000 A 
BRANCH  12  19
ATOM     18  C   UNL     1      -1.728  11.818  18.519  0.00  0.00    +0.000 C 
ATOM     19  O   UNL     1      -0.925  11.608  19.670  0.00  0.00    +0.000 OA
ENDBRANCH  12  19
ENDBRANCH   1  15
BRANCH   3  20
ATOM     20  C   UNL     1       3.899   4.930  17.222  0.00  0.00    +0.000 C 
ATOM     21  O   UNL     1       3.292   4.013  16.702  0.00  0.00    +0.000 OA
BRANCH  20  22
ATOM     22  O   UNL     1       4.693   5.844  16.548  0.00  0.00    +0.000 OA
BRANCH  22  23
ATOM     23  C   UNL     1       5.940   6.132  17.134  0.00  0.00    +0.000 A 
ATOM     24  C   UNL     1       6.537   5.080  17.820  0.00  0.00    +0.000 A 
ATOM     25  C   UNL     1       7.708   5.312  18.541  0.00  0.00    +0.000 A 
ATOM     26  C   UNL     1       8.267   6.592  18.588  0.00  0.00    +0.000 A 
ATOM     27  C   UNL     1       7.658   7.660  17.919  0.00  0.00    +0.000 A 
ATOM     28  C   UNL     1       8.238   9.042  17.994  0.00  0.00    +0.000 C 
ATOM     29  C   UNL     1       6.485   7.422  17.185  0.00  0.00    +0.000 A 
ENDBRANCH  22  23
ENDBRANCH  20  22
ENDBRANCH   3  20
TORSDOF 5
ENDMDL
MODEL 6
REMARK VINA RESULT:      -8.2      3.383      6.712
REMARK  Name = 
REMARK  8 active torsions:
REMARK  status: ('A' for Active; 'I' for Inactive)
REMARK    1  A    between atoms: C_1  and  O_2
REMARK    2  A    between atoms: O_2  and  C_3
REMARK    3  A    between atoms: C_6  and  C_7
REMARK    4  A    between atoms: C_9  and  C_10
REMARK    5  A    between atoms: C_10  and  O_12
REMARK    6  A    between atoms: O_12  and  C_13
REMARK    7  A    between atoms: C_17  and  C_18
REMARK    8  A    between atoms: C_22  and  C_23
REMARK                            x       y       z     vdW  Elec       q    Type
REMARK                         _______ _______ _______ _____ _____    ______ ____
ROOT
ATOM      1  C   UNL     1       2.467   7.281  18.218  0.00  0.00    +0.000 A 
ATOM      2  C   UNL     1       3.805   7.152  17.903  0.00  0.00    +0.000 A 
ATOM      3  C   UNL     1       4.233   5.959  17.357  0.00  0.00    +0.000 A 
ATOM      4  C   UNL     1       3.518   4.801  17.631  0.00  0.00    +0.000 A 
ATOM      5  C   UNL     1       4.130   3.536  17.565  0.00  0.00    +0.000 A 
ATOM      6  C   UNL     1       3.417   2.382  17.863  0.00  0.00    +0.000 A 
ATOM      7  C   UNL     1       4.123   1.060  17.887  0.00  0.00    +0.000 C 
ATOM      8  C   UNL     1       2.059   2.511  18.155  0.00  0.00    +0.000 A 
ATOM      9  C   UNL     1       1.458   3.784  18.222  0.00  0.00    +0.000 A 
ATOM     10  C   UNL     1       2.186   4.960  18.034  0.00  0.00    +0.000 A 
ATOM     11  N   UNL     1       1.647   6.194  18.235  0.00  0.00    +0.000 NA
ENDROOT
BRANCH   1  15
ATOM     12  C   UNL     1       1.300  11.267  19.350  0.00  0.00    +0.000 A 
ATOM     13  C   UNL     1       1.906  11.036  18.122  0.00  0.00    +0.000 A 
ATOM     14  C   UNL     1       2.177   9.734  17.712  0.00  0.00    +0.000 A 
ATOM     15  C   UNL     1       1.921   8.619  18.543  0.00  0.00    +0.000 A 
ATOM     16  C   UNL     1       1.212   8.867  19.725  0.00  0.00    +0.000 A 
ATOM     17  C   UNL     1       0.914  10.179  20.130  0.00  0.00    +0.000 A 
BRANCH  12  19
ATOM     18  C   UNL     1      -0.148  13.095  19.752  0.00  0.00    +0.000 C 
ATOM     19  O   UNL     1       1.175  12.587  19.672  0.00  0.00    +0.000 OA
ENDBRANCH  12  19
ENDBRANCH   1  15
BRANCH   3  20
ATOM     20  C   UNL     1       5.023   6.035  16.083  0.00  0.00    +0.000 C 
ATOM     21  O   UNL     1       5.052   6.990  15.331  0.00  0.00    +0.000 OA
BRANCH  20  22
ATOM     22  O   UNL     1       5.867   4.939  16.013  0.00  0.00    +0.000 OA
BRANCH  22  23
ATOM     23  C   UNL     1       6.300   4.569  14.726  0.00  0.00    +0.000 A 
ATOM     24  C   UNL     1       7.423   5.241  14.256  0.00  0.00    +0.000 A 
ATOM     25  C   UNL     1       7.841   5.034  12.942  0.00  0.00    +0.000 A 
ATOM     26  C   UNL     1       7.131   4.174  12.100  0.00  0.00    +0.000 A 
ATOM     27  C   UNL     1       5.986   3.513  12.560  0.00  0.00    +0.000 A 
ATOM     28  C   UNL     1       5.203   2.614  11.650  0.00  0.00    +0.000 C 
ATOM     29  C   UNL     1       5.572   3.715  13.887  0.00  0.00    +0.000 A 
ENDBRANCH  22  23
ENDBRANCH  20  22
ENDBRANCH   3  20
TORSDOF 5
ENDMDL
MODEL 7
REMARK VINA RESULT:      -8.2      3.458      6.314
REMARK  Name = 
REMARK  8 active torsions:
REMARK  status: ('A' for Active; 'I' for Inactive)
REMARK    1  A    between atoms: C_1  and  O_2
REMARK    2  A    between atoms: O_2  and  C_3
REMARK    3  A    between atoms: C_6  and  C_7
REMARK    4  A    between atoms: C_9  and  C_10
REMARK    5  A    between atoms: C_10  and  O_12
REMARK    6  A    between atoms: O_12  and  C_13
REMARK    7  A    between atoms: C_17  and  C_18
REMARK    8  A    between atoms: C_22  and  C_23
REMARK                            x       y       z     vdW  Elec       q    Type
REMARK                         _______ _______ _______ _____ _____    ______ ____
ROOT
ATOM      1  C   UNL     1       2.421   7.419  18.176  0.00  0.00    +0.000 A 
ATOM      2  C   UNL     1       3.762   7.289  17.873  0.00  0.00    +0.000 A 
ATOM      3  C   UNL     1       4.193   6.093  17.335  0.00  0.00    +0.000 A 
ATOM      4  C   UNL     1       3.475   4.937  17.607  0.00  0.00    +0.000 A 
ATOM      5  C   UNL     1       4.086   3.671  17.552  0.00  0.00    +0.000 A 
ATOM      6  C   UNL     1       3.370   2.519  17.847  0.00  0.00    +0.000 A 
ATOM      7  C   UNL     1       4.074   1.196  17.883  0.00  0.00    +0.000 C 
ATOM      8  C   UNL     1       2.010   2.650  18.128  0.00  0.00    +0.000 A 
ATOM      9  C   UNL     1       1.409   3.924  18.184  0.00  0.00    +0.000 A 
ATOM     10  C   UNL     1       2.140   5.098  17.998  0.00  0.00    +0.000 A 
ATOM     11  N   UNL     1       1.600   6.334  18.190  0.00  0.00    +0.000 NA
ENDROOT
BRANCH   1  15
ATOM     12  C   UNL     1       1.236  11.399  19.311  0.00  0.00    +0.000 A 
ATOM     13  C   UNL     1       1.927  11.186  18.126  0.00  0.00    +0.000 A 
ATOM     14  C   UNL     1       2.208   9.888  17.707  0.00  0.00    +0.000 A 
ATOM     15  C   UNL     1       1.874   8.760  18.491  0.00  0.00    +0.000 A 
ATOM     16  C   UNL     1       1.083   8.993  19.623  0.00  0.00    +0.000 A 
ATOM     17  C   UNL     1       0.776  10.301  20.036  0.00  0.00    +0.000 A 
BRANCH  12  19
ATOM     18  C   UNL     1       2.045  13.612  19.078  0.00  0.00    +0.000 C 
ATOM     19  O   UNL     1       1.108  12.715  19.654  0.00  0.00    +0.000 OA
ENDBRANCH  12  19
ENDBRANCH   1  15
BRANCH   3  20
ATOM     20  C   UNL     1       4.994   6.163  16.068  0.00  0.00    +0.000 C 
ATOM     21  O   UNL     1       4.712   6.837  15.096  0.00  0.00    +0.000 OA
BRANCH  20  22
ATOM     22  O   UNL     1       6.201   5.510  16.263  0.00  0.00    +0.000 OA
BRANCH  22  23
ATOM     23  C   UNL     1       7.069   6.082  17.212  0.00  0.00    +0.000 A 
ATOM     24  C   UNL     1       7.417   5.261  18.278  0.00  0.00    +0.000 A 
ATOM     25  C   UNL     1       8.164   5.787  19.331  0.00  0.00    +0.000 A 
ATOM     26  C   UNL     1       8.547   7.132  19.323  0.00  0.00    +0.000 A 
ATOM     27  C   UNL     1       8.181   7.969  18.264  0.00  0.00    +0.000 A 
ATOM     28  C   UNL     1       8.562   9.421  18.268  0.00  0.00    +0.000 C 
ATOM     29  C   UNL     1       7.436   7.434  17.200  0.00  0.00    +0.000 A 
ENDBRANCH  22  23
ENDBRANCH  20  22
ENDBRANCH   3  20
TORSDOF 5
ENDMDL
MODEL 8
REMARK VINA RESULT:      -8.2      3.402      6.942
REMARK  Name = 
REMARK  8 active torsions:
REMARK  status: ('A' for Active; 'I' for Inactive)
REMARK    1  A    between atoms: C_1  and  O_2
REMARK    2  A    between atoms: O_2  and  C_3
REMARK    3  A    between atoms: C_6  and  C_7
REMARK    4  A    between atoms: C_9  and  C_10
REMARK    5  A    between atoms: C_10  and  O_12
REMARK    6  A    between atoms: O_12  and  C_13
REMARK    7  A    between atoms: C_17  and  C_18
REMARK    8  A    between atoms: C_22  and  C_23
REMARK                            x       y       z     vdW  Elec       q    Type
REMARK                         _______ _______ _______ _____ _____    ______ ____
ROOT
ATOM      1  C   UNL     1       2.201   6.874  19.666  0.00  0.00    +0.000 A 
ATOM      2  C   UNL     1       3.301   6.671  18.856  0.00  0.00    +0.000 A 
ATOM      3  C   UNL     1       3.730   5.375  18.656  0.00  0.00    +0.000 A 
ATOM      4  C   UNL     1       3.453   4.419  19.624  0.00  0.00    +0.000 A 
ATOM      5  C   UNL     1       4.251   3.269  19.760  0.00  0.00    +0.000 A 
ATOM      6  C   UNL     1       3.984   2.327  20.744  0.00  0.00    +0.000 A 
ATOM      7  C   UNL     1       4.914   1.166  20.932  0.00  0.00    +0.000 C 
ATOM      8  C   UNL     1       2.858   2.520  21.544  0.00  0.00    +0.000 A 
ATOM      9  C   UNL     1       2.068   3.678  21.401  0.00  0.00    +0.000 A 
ATOM     10  C   UNL     1       2.387   4.687  20.491  0.00  0.00    +0.000 A 
ATOM     11  N   UNL     1       1.713   5.870  20.445  0.00  0.00    +0.000 NA
ENDROOT
BRANCH   1  15
ATOM     12  C   UNL     1       0.726  10.916  19.816  0.00  0.00    +0.000 A 
ATOM     13  C   UNL     1       1.215  10.392  18.626  0.00  0.00    +0.000 A 
ATOM     14  C   UNL     1       1.584   9.052  18.554  0.00  0.00    +0.000 A 
ATOM     15  C   UNL     1       1.548   8.204  19.685  0.00  0.00    +0.000 A 
ATOM     16  C   UNL     1       0.949   8.722  20.840  0.00  0.00    +0.000 A 
ATOM     17  C   UNL     1       0.552  10.068  20.909  0.00  0.00    +0.000 A 
BRANCH  12  19
ATOM     18  C   UNL     1       0.953  12.952  18.631  0.00  0.00    +0.000 C 
ATOM     19  O   UNL     1       0.489  12.260  19.779  0.00  0.00    +0.000 OA
ENDBRANCH  12  19
ENDBRANCH   1  15
BRANCH   3  20
ATOM     20  C   UNL     1       3.919   4.929  17.236  0.00  0.00    +0.000 C 
ATOM     21  O   UNL     1       3.334   4.004  16.707  0.00  0.00    +0.000 OA
BRANCH  20  22
ATOM     22  O   UNL     1       4.701   5.861  16.573  0.00  0.00    +0.000 OA
BRANCH  22  23
ATOM     23  C   UNL     1       5.950   6.150  17.154  0.00  0.00    +0.000 A 
ATOM     24  C   UNL     1       6.548   5.100  17.840  0.00  0.00    +0.000 A 
ATOM     25  C   UNL     1       7.721   5.334  18.557  0.00  0.00    +0.000 A 
ATOM     26  C   UNL     1       8.281   6.614  18.600  0.00  0.00    +0.000 A 
ATOM     27  C   UNL     1       7.670   7.680  17.931  0.00  0.00    +0.000 A 
ATOM     28  C   UNL     1       8.251   9.062  18.001  0.00  0.00    +0.000 C 
ATOM     29  C   UNL     1       6.494   7.441  17.201  0.00  0.00    +0.000 A 
ENDBRANCH  22  23
ENDBRANCH  20  22
ENDBRANCH   3  20
TORSDOF 5
ENDMDL
MODEL 9
REMARK VINA RESULT:      -8.0      5.577      9.577
REMARK  Name = 
REMARK  8 active torsions:
REMARK  status: ('A' for Active; 'I' for Inactive)
REMARK    1  A    between atoms: C_1  and  O_2
REMARK    2  A    between atoms: O_2  and  C_3
REMARK    3  A    between atoms: C_6  and  C_7
REMARK    4  A    between atoms: C_9  and  C_10
REMARK    5  A    between atoms: C_10  and  O_12
REMARK    6  A    between atoms: O_12  and  C_13
REMARK    7  A    between atoms: C_17  and  C_18
REMARK    8  A    between atoms: C_22  and  C_23
REMARK                            x       y       z     vdW  Elec       q    Type
REMARK                         _______ _______ _______ _____ _____    ______ ____
ROOT
ATOM      1  C   UNL     1       1.814   8.207  19.004  0.00  0.00    +0.000 A 
ATOM      2  C   UNL     1       1.049   9.147  18.342  0.00  0.00    +0.000 A 
ATOM      3  C   UNL     1       0.557  10.213  19.068  0.00  0.00    +0.000 A 
ATOM      4  C   UNL     1       0.355  10.059  20.433  0.00  0.00    +0.000 A 
ATOM      5  C   UNL     1      -0.579  10.851  21.124  0.00  0.00    +0.000 A 
ATOM      6  C   UNL     1      -0.795  10.678  22.485  0.00  0.00    +0.000 A 
ATOM      7  C   UNL     1      -1.871  11.464  23.172  0.00  0.00    +0.000 C 
ATOM      8  C   UNL     1      -0.004   9.747  23.157  0.00  0.00    +0.000 A 
ATOM      9  C   UNL     1       0.926   8.955  22.454  0.00  0.00    +0.000 A 
ATOM     10  C   UNL     1       1.076   9.040  21.069  0.00  0.00    +0.000 A 
ATOM     11  N   UNL     1       1.867   8.184  20.364  0.00  0.00    +0.000 NA
ENDROOT
BRANCH   1  15
ATOM     12  C   UNL     1       4.285   5.229  17.120  0.00  0.00    +0.000 A 
ATOM     13  C   UNL     1       3.109   4.860  17.759  0.00  0.00    +0.000 A 
ATOM     14  C   UNL     1       2.256   5.837  18.267  0.00  0.00    +0.000 A 
ATOM     15  C   UNL     1       2.582   7.212  18.221  0.00  0.00    +0.000 A 
ATOM     16  C   UNL     1       3.714   7.564  17.476  0.00  0.00    +0.000 A 
ATOM     17  C   UNL     1       4.564   6.582  16.940  0.00  0.00    +0.000 A 
BRANCH  12  19
ATOM     18  C   UNL     1       6.106   4.458  15.819  0.00  0.00    +0.000 C 
ATOM     19  O   UNL     1       5.074   4.177  16.752  0.00  0.00    +0.000 OA
ENDBRANCH  12  19
ENDBRANCH   1  15
BRANCH   3  20
ATOM     20  C   UNL     1       0.820  11.588  18.529  0.00  0.00    +0.000 C 
ATOM     21  O   UNL     1      -0.034  12.392  18.210  0.00  0.00    +0.000 OA
BRANCH  20  22
ATOM     22  O   UNL     1       2.171  11.868  18.654  0.00  0.00    +0.000 OA
BRANCH  22  23
ATOM     23  C   UNL     1       2.500  13.176  19.057  0.00  0.00    +0.000 A 
ATOM     24  C   UNL     1       2.360  13.437  20.415  0.00  0.00    +0.000 A 
ATOM     25  C   UNL     1       2.536  14.739  20.882  0.00  0.00    +0.000 A 
ATOM     26  C   UNL     1       2.833  15.775  19.992  0.00  0.00    +0.000 A 
ATOM     27  C   UNL     1       2.952  15.523  18.621  0.00  0.00    +0.000 A 
ATOM     28  C   UNL     1       3.239  16.638  17.659  0.00  0.00    +0.000 C 
ATOM     29  C   UNL     1       2.784  14.209  18.154  0.00  0.00    +0.000 A 
ENDBRANCH  22  23
ENDBRANCH  20  22
ENDBRANCH   3  20
TORSDOF 5
ENDMDL
