MODEL 1
REMARK VINA RESULT:      -9.3      0.000      0.000
REMARK  Name = 
REMARK  7 active torsions:
REMARK  status: ('A' for Active; 'I' for Inactive)
REMARK    1  A    between atoms: C_1  and  C_2
REMARK    2  A    between atoms: C_7  and  C_8
REMARK    3  A    between atoms: C_8  and  C_9
REMARK    4  A    between atoms: C_8  and  N_10
REMARK    5  A    between atoms: C_11  and  C_13
REMARK    6  A    between atoms: C_14  and  C_15
REMARK    7  A    between atoms: C_18  and  C_19
REMARK                            x       y       z     vdW  Elec       q    Type
REMARK                         _______ _______ _______ _____ _____    ______ ____
ROOT
ATOM      1  N   UNL     1       6.842   6.945  16.736  0.00  0.00    +0.000 N 
ATOM      2  C   UNL     1       7.634   7.335  17.785  0.00  0.00    +0.000 C 
ATOM      3  O   UNL     1       7.992   6.584  18.684  0.00  0.00    +0.000 OA
ATOM      4  H   UNL     1       6.569   7.600  16.009  0.00  0.00    +0.000 HD
ENDROOT
BRANCH   1   5
ATOM      5  C   UNL     1       6.327   5.583  16.632  0.00  0.00    +0.000 C 
ATOM      6  C   UNL     1       7.456   4.567  16.737  0.00  0.00    +0.000 C 
BRANCH   5  13
ATOM      7  C   UNL     1       2.264   3.381  21.520  0.00  0.00    +0.000 C 
ATOM      8  C   UNL     1       2.508   4.566  20.642  0.00  0.00    +0.000 A 
ATOM      9  C   UNL     1       1.735   5.712  20.646  0.00  0.00    +0.000 A 
ATOM     10  S   UNL     1       2.292   6.891  19.538  0.00  0.00    +0.000 S 
ATOM     11  C   UNL     1       3.559   5.882  19.014  0.00  0.00    +0.000 A 
ATOM     12  N   UNL     1       4.417   6.260  18.045  0.00  0.00    +0.000 NA
ATOM     13  C   UNL     1       5.294   5.352  17.734  0.00  0.00    +0.000 A 
ATOM     14  O   UNL     1       5.452   4.126  18.303  0.00  0.00    +0.000 OA
ATOM     15  C   UNL     1       4.593   3.733  19.295  0.00  0.00    +0.000 A 
ATOM     16  O   UNL     1       4.707   2.633  19.823  0.00  0.00    +0.000 OA
ATOM     17  C   UNL     1       3.564   4.679  19.671  0.00  0.00    +0.000 A 
ENDBRANCH   5  13
ENDBRANCH   1   5
BRANCH   2  18
ATOM     18  C   UNL     1       8.010   8.768  17.737  0.00  0.00    +0.000 C 
ATOM     19  C   UNL     1       8.855   9.273  18.652  0.00  0.00    +0.000 C 
BRANCH  19  20
ATOM     20  C   UNL     1       9.246  10.689  18.709  0.00  0.00    +0.000 A 
ATOM     21  C   UNL     1       8.666  11.647  17.868  0.00  0.00    +0.000 A 
ATOM     22  C   UNL     1       9.032  12.993  17.956  0.00  0.00    +0.000 A 
ATOM     23  C   UNL     1       9.974  13.394  18.904  0.00  0.00    +0.000 A 
ATOM     24  C   UNL     1      10.544  12.459  19.768  0.00  0.00    +0.000 A 
ATOM     25  C   UNL     1      10.175  11.111  19.673  0.00  0.00    +0.000 A 
BRANCH  23  26
ATOM     26  C   UNL     1      10.364  14.815  18.999  0.00  0.00    +0.000 C 
ATOM     27  O   UNL     1      11.181  15.318  18.237  0.00  0.00    +0.000 OA
ENDBRANCH  23  26
ENDBRANCH  19  20
ENDBRANCH   2  18
TORSDOF 5
ENDMDL
MODEL 2
REMARK VINA RESULT:      -9.2      1.943      2.232
REMARK  Name = 
REMARK  7 active torsions:
REMARK  status: ('A' for Active; 'I' for Inactive)
REMARK    1  A    between atoms: C_1  and  C_2
REMARK    2  A    between atoms: C_7  and  C_8
REMARK    3  A    between atoms: C_8  and  C_9
REMARK    4  A    between atoms: C_8  and  N_10
REMARK    5  A    between atoms: C_11  and  C_13
REMARK    6  A    between atoms: C_14  and  C_15
REMARK    7  A    between atoms: C_18  and  C_19
REMARK                            x       y       z     vdW  Elec       q    Type
REMARK                         _______ _______ _______ _____ _____    ______ ____
ROOT
ATOM      1  N   UNL     1       6.375   6.976  16.613  0.00  0.00    +0.000 N 
ATOM      2  C   UNL     1       7.388   6.579  17.446  0.00  0.00    +0.000 C 
ATOM      3  O   UNL     1       7.724   5.412  17.603  0.00  0.00    +0.000 OA
ATOM      4  H   UNL     1       6.130   7.957  16.511  0.00  0.00    +0.000 HD
ENDROOT
BRANCH   1   5
ATOM      5  C   UNL     1       5.580   6.010  15.861  0.00  0.00    +0.000 C 
ATOM      6  C   UNL     1       6.475   4.979  15.188  0.00  0.00    +0.000 C 
BRANCH   5  13
ATOM      7  C   UNL     1       1.020   4.183  20.456  0.00  0.00    +0.000 C 
ATOM      8  C   UNL     1       1.985   3.611  19.469  0.00  0.00    +0.000 A 
ATOM      9  C   UNL     1       2.202   2.258  19.285  0.00  0.00    +0.000 A 
ATOM     10  S   UNL     1       3.355   1.932  18.064  0.00  0.00    +0.000 S 
ATOM     11  C   UNL     1       3.605   3.591  17.778  0.00  0.00    +0.000 A 
ATOM     12  N   UNL     1       4.496   4.032  16.866  0.00  0.00    +0.000 NA
ATOM     13  C   UNL     1       4.595   5.326  16.808  0.00  0.00    +0.000 A 
ATOM     14  O   UNL     1       3.880   6.243  17.516  0.00  0.00    +0.000 OA
ATOM     15  C   UNL     1       2.965   5.809  18.438  0.00  0.00    +0.000 A 
ATOM     16  O   UNL     1       2.310   6.610  19.096  0.00  0.00    +0.000 OA
ATOM     17  C   UNL     1       2.825   4.376  18.586  0.00  0.00    +0.000 A 
ENDBRANCH   5  13
ENDBRANCH   1   5
BRANCH   2  18
ATOM     18  C   UNL     1       8.039   7.705  18.159  0.00  0.00    +0.000 C 
ATOM     19  C   UNL     1       7.988   8.946  17.645  0.00  0.00    +0.000 C 
BRANCH  19  20
ATOM     20  C   UNL     1       8.644  10.111  18.257  0.00  0.00    +0.000 A 
ATOM     21  C   UNL     1       8.569  11.385  17.681  0.00  0.00    +0.000 A 
ATOM     22  C   UNL     1       9.177  12.485  18.293  0.00  0.00    +0.000 A 
ATOM     23  C   UNL     1       9.855  12.318  19.501  0.00  0.00    +0.000 A 
ATOM     24  C   UNL     1       9.919  11.061  20.104  0.00  0.00    +0.000 A 
ATOM     25  C   UNL     1       9.309   9.963  19.484  0.00  0.00    +0.000 A 
BRANCH  23  26
ATOM     26  C   UNL     1      10.500  13.477  20.150  0.00  0.00    +0.000 C 
ATOM     27  O   UNL     1       9.971  14.582  20.183  0.00  0.00    +0.000 OA
ENDBRANCH  23  26
ENDBRANCH  19  20
ENDBRANCH   2  18
TORSDOF 5
ENDMDL
MODEL 3
REMARK VINA RESULT:      -9.2      1.871      2.381
REMARK  Name = 
REMARK  7 active torsions:
REMARK  status: ('A' for Active; 'I' for Inactive)
REMARK    1  A    between atoms: C_1  and  C_2
REMARK    2  A    between atoms: C_7  and  C_8
REMARK    3  A    between atoms: C_8  and  C_9
REMARK    4  A    between atoms: C_8  and  N_10
REMARK    5  A    between atoms: C_11  and  C_13
REMARK    6  A    between atoms: C_14  and  C_15
REMARK    7  A    between atoms: C_18  and  C_19
REMARK                            x       y       z     vdW  Elec       q    Type
REMARK                         _______ _______ _______ _____ _____    ______ ____
ROOT
ATOM      1  N   UNL     1       6.534   6.745  16.535  0.00  0.00    +0.000 N 
ATOM      2  C   UNL     1       7.343   6.383  17.580  0.00  0.00    +0.000 C 
ATOM      3  O   UNL     1       7.485   5.229  17.964  0.00  0.00    +0.000 OA
ATOM      4  H   UNL     1       6.447   7.715  16.247  0.00  0.00    +0.000 HD
ENDROOT
BRANCH   1   5
ATOM      5  C   UNL     1       5.738   5.761  15.808  0.00  0.00    +0.000 C 
ATOM      6  C   UNL     1       6.627   4.684  15.203  0.00  0.00    +0.000 C 
BRANCH   5  13
ATOM      7  C   UNL     1       1.057   4.229  20.389  0.00  0.00    +0.000 C 
ATOM      8  C   UNL     1       2.016   3.595  19.435  0.00  0.00    +0.000 A 
ATOM      9  C   UNL     1       2.191   2.230  19.296  0.00  0.00    +0.000 A 
ATOM     10  S   UNL     1       3.350   1.829  18.103  0.00  0.00    +0.000 S 
ATOM     11  C   UNL     1       3.658   3.469  17.769  0.00  0.00    +0.000 A 
ATOM     12  N   UNL     1       4.576   3.851  16.857  0.00  0.00    +0.000 NA
ATOM     13  C   UNL     1       4.718   5.140  16.761  0.00  0.00    +0.000 A 
ATOM     14  O   UNL     1       4.023   6.101  17.429  0.00  0.00    +0.000 OA
ATOM     15  C   UNL     1       3.082   5.726  18.351  0.00  0.00    +0.000 A 
ATOM     16  O   UNL     1       2.444   6.569  18.973  0.00  0.00    +0.000 OA
ATOM     17  C   UNL     1       2.893   4.304  18.541  0.00  0.00    +0.000 A 
ENDBRANCH   5  13
ENDBRANCH   1   5
BRANCH   2  18
ATOM     18  C   UNL     1       8.027   7.532  18.220  0.00  0.00    +0.000 C 
ATOM     19  C   UNL     1       7.853   8.774  17.735  0.00  0.00    +0.000 C 
BRANCH  19  20
ATOM     20  C   UNL     1       8.528   9.963  18.275  0.00  0.00    +0.000 A 
ATOM     21  C   UNL     1       9.271   9.913  19.461  0.00  0.00    +0.000 A 
ATOM     22  C   UNL     1       9.927  11.048  19.944  0.00  0.00    +0.000 A 
ATOM     23  C   UNL     1       9.856  12.246  19.230  0.00  0.00    +0.000 A 
ATOM     24  C   UNL     1       9.140  12.309  18.034  0.00  0.00    +0.000 A 
ATOM     25  C   UNL     1       8.483  11.168  17.557  0.00  0.00    +0.000 A 
BRANCH  23  26
ATOM     26  C   UNL     1      10.546  13.448  19.738  0.00  0.00    +0.000 C 
ATOM     27  O   UNL     1      10.807  14.402  19.016  0.00  0.00    +0.000 OA
ENDBRANCH  23  26
ENDBRANCH  19  20
ENDBRANCH   2  18
TORSDOF 5
ENDMDL
MODEL 4
REMARK VINA RESULT:      -8.9      1.263      1.349
REMARK  Name = 
REMARK  7 active torsions:
REMARK  status: ('A' for Active; 'I' for Inactive)
REMARK    1  A    between atoms: C_1  and  C_2
REMARK    2  A    between atoms: C_7  and  C_8
REMARK    3  A    between atoms: C_8  and  C_9
REMARK    4  A    between atoms: C_8  and  N_10
REMARK    5  A    between atoms: C_11  and  C_13
REMARK    6  A    between atoms: C_14  and  C_15
REMARK    7  A    between atoms: C_18  and  C_19
REMARK                            x       y       z     vdW  Elec       q    Type
REMARK                         _______ _______ _______ _____ _____    ______ ____
ROOT
ATOM      1  N   UNL     1       6.282   7.241  16.805  0.00  0.00    +0.000 N 
ATOM      2  C   UNL     1       7.376   6.782  17.491  0.00  0.00    +0.000 C 
ATOM      3  O   UNL     1       7.691   5.601  17.560  0.00  0.00    +0.000 OA
ATOM      4  H   UNL     1       6.058   8.231  16.771  0.00  0.00    +0.000 HD
ENDROOT
BRANCH   1   5
ATOM      5  C   UNL     1       5.370   6.330  16.121  0.00  0.00    +0.000 C 
ATOM      6  C   UNL     1       6.143   5.274  15.343  0.00  0.00    +0.000 C 
BRANCH   5  13
ATOM      7  C   UNL     1       1.535   2.366  19.972  0.00  0.00    +0.000 C 
ATOM      8  C   UNL     1       1.936   3.794  19.793  0.00  0.00    +0.000 A 
ATOM      9  C   UNL     1       1.454   4.842  20.556  0.00  0.00    +0.000 A 
ATOM     10  S   UNL     1       2.129   6.350  20.112  0.00  0.00    +0.000 S 
ATOM     11  C   UNL     1       3.056   5.637  18.876  0.00  0.00    +0.000 A 
ATOM     12  N   UNL     1       3.854   6.367  18.070  0.00  0.00    +0.000 NA
ATOM     13  C   UNL     1       4.454   5.671  17.151  0.00  0.00    +0.000 A 
ATOM     14  O   UNL     1       4.393   4.324  16.962  0.00  0.00    +0.000 OA
ATOM     15  C   UNL     1       3.594   3.569  17.779  0.00  0.00    +0.000 A 
ATOM     16  O   UNL     1       3.515   2.355  17.629  0.00  0.00    +0.000 OA
ATOM     17  C   UNL     1       2.864   4.281  18.806  0.00  0.00    +0.000 A 
ENDBRANCH   5  13
ENDBRANCH   1   5
BRANCH   2  18
ATOM     18  C   UNL     1       8.145   7.859  18.160  0.00  0.00    +0.000 C 
ATOM     19  C   UNL     1       7.995   9.136  17.769  0.00  0.00    +0.000 C 
BRANCH  19  20
ATOM     20  C   UNL     1       8.750  10.260  18.342  0.00  0.00    +0.000 A 
ATOM     21  C   UNL     1       8.798  11.511  17.714  0.00  0.00    +0.000 A 
ATOM     22  C   UNL     1       9.500  12.574  18.288  0.00  0.00    +0.000 A 
ATOM     23  C   UNL     1      10.149  12.396  19.511  0.00  0.00    +0.000 A 
ATOM     24  C   UNL     1      10.092  11.164  20.164  0.00  0.00    +0.000 A 
ATOM     25  C   UNL     1       9.388  10.102  19.582  0.00  0.00    +0.000 A 
BRANCH  23  26
ATOM     26  C   UNL     1      10.893  13.517  20.120  0.00  0.00    +0.000 C 
ATOM     27  O   UNL     1      10.639  14.686  19.856  0.00  0.00    +0.000 OA
ENDBRANCH  23  26
ENDBRANCH  19  20
ENDBRANCH   2  18
TORSDOF 5
ENDMDL
MODEL 5
REMARK VINA RESULT:      -8.9      1.606      2.095
REMARK  Name = 
REMARK  7 active torsions:
REMARK  status: ('A' for Active; 'I' for Inactive)
REMARK    1  A    between atoms: C_1  and  C_2
REMARK    2  A    between atoms: C_7  and  C_8
REMARK    3  A    between atoms: C_8  and  C_9
REMARK    4  A    between atoms: C_8  and  N_10
REMARK    5  A    between atoms: C_11  and  C_13
REMARK    6  A    between atoms: C_14  and  C_15
REMARK    7  A    between atoms: C_18  and  C_19
REMARK                            x       y       z     vdW  Elec       q    Type
REMARK                         _______ _______ _______ _____ _____    ______ ____
ROOT
ATOM      1  N   UNL     1       6.692   7.069  16.530  0.00  0.00    +0.000 N 
ATOM      2  C   UNL     1       7.494   7.293  17.619  0.00  0.00    +0.000 C 
ATOM      3  O   UNL     1       7.868   6.411  18.383  0.00  0.00    +0.000 OA
ATOM      4  H   UNL     1       6.407   7.830  15.921  0.00  0.00    +0.000 HD
ENDROOT
BRANCH   1   5
ATOM      5  C   UNL     1       6.186   5.737  16.214  0.00  0.00    +0.000 C 
ATOM      6  C   UNL     1       7.322   4.726  16.153  0.00  0.00    +0.000 C 
BRANCH   5  13
ATOM      7  C   UNL     1       1.252   5.133  20.746  0.00  0.00    +0.000 C 
ATOM      8  C   UNL     1       2.411   4.388  20.168  0.00  0.00    +0.000 A 
ATOM      9  C   UNL     1       2.811   3.128  20.575  0.00  0.00    +0.000 A 
ATOM     10  S   UNL     1       4.160   2.545  19.699  0.00  0.00    +0.000 S 
ATOM     11  C   UNL     1       4.252   3.974  18.779  0.00  0.00    +0.000 A 
ATOM     12  N   UNL     1       5.208   4.163  17.846  0.00  0.00    +0.000 NA
ATOM     13  C   UNL     1       5.161   5.327  17.270  0.00  0.00    +0.000 A 
ATOM     14  O   UNL     1       4.247   6.315  17.476  0.00  0.00    +0.000 OA
ATOM     15  C   UNL     1       3.265   6.133  18.413  0.00  0.00    +0.000 A 
ATOM     16  O   UNL     1       2.432   7.007  18.624  0.00  0.00    +0.000 OA
ATOM     17  C   UNL     1       3.275   4.872  19.123  0.00  0.00    +0.000 A 
ENDBRANCH   5  13
ENDBRANCH   1   5
BRANCH   2  18
ATOM     18  C   UNL     1       7.859   8.718  17.798  0.00  0.00    +0.000 C 
ATOM     19  C   UNL     1       8.816   9.063  18.677  0.00  0.00    +0.000 C 
BRANCH  19  20
ATOM     20  C   UNL     1       9.209  10.452  18.953  0.00  0.00    +0.000 A 
ATOM     21  C   UNL     1       9.431  10.909  20.259  0.00  0.00    +0.000 A 
ATOM     22  C   UNL     1       9.830  12.227  20.498  0.00  0.00    +0.000 A 
ATOM     23  C   UNL     1      10.026  13.097  19.425  0.00  0.00    +0.000 A 
ATOM     24  C   UNL     1       9.835  12.654  18.117  0.00  0.00    +0.000 A 
ATOM     25  C   UNL     1       9.432  11.333  17.883  0.00  0.00    +0.000 A 
BRANCH  23  26
ATOM     26  C   UNL     1      10.446  14.491  19.675  0.00  0.00    +0.000 C 
ATOM     27  O   UNL     1      11.491  14.761  20.256  0.00  0.00    +0.000 OA
ENDBRANCH  23  26
ENDBRANCH  19  20
ENDBRANCH   2  18
TORSDOF 5
ENDMDL
MODEL 6
REMARK VINA RESULT:      -8.8      1.051      1.096
REMARK  Name = 
REMARK  7 active torsions:
REMARK  status: ('A' for Active; 'I' for Inactive)
REMARK    1  A    between atoms: C_1  and  C_2
REMARK    2  A    between atoms: C_7  and  C_8
REMARK    3  A    between atoms: C_8  and  C_9
REMARK    4  A    between atoms: C_8  and  N_10
REMARK    5  A    between atoms: C_11  and  C_13
REMARK    6  A    between atoms: C_14  and  C_15
REMARK    7  A    between atoms: C_18  and  C_19
REMARK                            x       y       z     vdW  Elec       q    Type
REMARK                         _______ _______ _______ _____ _____    ______ ____
ROOT
ATOM      1  N   UNL     1       7.581   6.583  18.306  0.00  0.00    +0.000 N 
ATOM      2  C   UNL     1       7.559   7.797  17.670  0.00  0.00    +0.000 C 
ATOM      3  O   UNL     1       6.977   8.002  16.613  0.00  0.00    +0.000 OA
ATOM      4  H   UNL     1       8.075   6.457  19.185  0.00  0.00    +0.000 HD
ENDROOT
BRANCH   1   5
ATOM      5  C   UNL     1       6.926   5.410  17.737  0.00  0.00    +0.000 C 
ATOM      6  C   UNL     1       7.876   4.220  17.709  0.00  0.00    +0.000 C 
BRANCH   5  13
ATOM      7  C   UNL     1       1.933   2.782  21.399  0.00  0.00    +0.000 C 
ATOM      8  C   UNL     1       2.341   4.040  20.703  0.00  0.00    +0.000 A 
ATOM      9  C   UNL     1       1.564   5.182  20.636  0.00  0.00    +0.000 A 
ATOM     10  S   UNL     1       2.328   6.455  19.785  0.00  0.00    +0.000 S 
ATOM     11  C   UNL     1       3.698   5.496  19.467  0.00  0.00    +0.000 A 
ATOM     12  N   UNL     1       4.741   5.958  18.747  0.00  0.00    +0.000 NA
ATOM     13  C   UNL     1       5.682   5.081  18.560  0.00  0.00    +0.000 A 
ATOM     14  O   UNL     1       5.735   3.809  19.041  0.00  0.00    +0.000 OA
ATOM     15  C   UNL     1       4.686   3.330  19.781  0.00  0.00    +0.000 A 
ATOM     16  O   UNL     1       4.703   2.187  20.223  0.00  0.00    +0.000 OA
ATOM     17  C   UNL     1       3.582   4.239  20.002  0.00  0.00    +0.000 A 
ENDBRANCH   5  13
ENDBRANCH   1   5
BRANCH   2  18
ATOM     18  C   UNL     1       8.324   8.848  18.383  0.00  0.00    +0.000 C 
ATOM     19  C   UNL     1       8.477  10.063  17.827  0.00  0.00    +0.000 C 
BRANCH  19  20
ATOM     20  C   UNL     1       9.258  11.148  18.438  0.00  0.00    +0.000 A 
ATOM     21  C   UNL     1       9.359  12.410  17.839  0.00  0.00    +0.000 A 
ATOM     22  C   UNL     1      10.085  13.436  18.450  0.00  0.00    +0.000 A 
ATOM     23  C   UNL     1      10.705  13.210  19.680  0.00  0.00    +0.000 A 
ATOM     24  C   UNL     1      10.595  11.967  20.304  0.00  0.00    +0.000 A 
ATOM     25  C   UNL     1       9.868  10.942  19.685  0.00  0.00    +0.000 A 
BRANCH  23  26
ATOM     26  C   UNL     1      11.474  14.292  20.327  0.00  0.00    +0.000 C 
ATOM     27  O   UNL     1      11.798  15.309  19.726  0.00  0.00    +0.000 OA
ENDBRANCH  23  26
ENDBRANCH  19  20
ENDBRANCH   2  18
TORSDOF 5
ENDMDL
MODEL 7
REMARK VINA RESULT:      -8.8      1.207      1.531
REMARK  Name = 
REMARK  7 active torsions:
REMARK  status: ('A' for Active; 'I' for Inactive)
REMARK    1  A    between atoms: C_1  and  C_2
REMARK    2  A    between atoms: C_7  and  C_8
REMARK    3  A    between atoms: C_8  and  C_9
REMARK    4  A    between atoms: C_8  and  N_10
REMARK    5  A    between atoms: C_11  and  C_13
REMARK    6  A    between atoms: C_14  and  C_15
REMARK    7  A    between atoms: C_18  and  C_19
REMARK                            x       y       z     vdW  Elec       q    Type
REMARK                         _______ _______ _______ _____ _____    ______ ____
ROOT
ATOM      1  N   UNL     1       7.287   6.667  18.490  0.00  0.00    +0.000 N 
ATOM      2  C   UNL     1       7.885   7.643  17.738  0.00  0.00    +0.000 C 
ATOM      3  O   UNL     1       7.970   7.607  16.517  0.00  0.00    +0.000 OA
ATOM      4  H   UNL     1       7.236   6.738  19.502  0.00  0.00    +0.000 HD
ENDROOT
BRANCH   1   5
ATOM      5  C   UNL     1       6.724   5.466  17.879  0.00  0.00    +0.000 C 
ATOM      6  C   UNL     1       7.756   4.348  17.832  0.00  0.00    +0.000 C 
BRANCH   5  13
ATOM      7  C   UNL     1       1.873   2.385  21.373  0.00  0.00    +0.000 C 
ATOM      8  C   UNL     1       2.208   3.693  20.734  0.00  0.00    +0.000 A 
ATOM      9  C   UNL     1       1.361   4.787  20.705  0.00  0.00    +0.000 A 
ATOM     10  S   UNL     1       2.052   6.139  19.916  0.00  0.00    +0.000 S 
ATOM     11  C   UNL     1       3.481   5.281  19.574  0.00  0.00    +0.000 A 
ATOM     12  N   UNL     1       4.500   5.836  18.886  0.00  0.00    +0.000 NA
ATOM     13  C   UNL     1       5.496   5.028  18.673  0.00  0.00    +0.000 A 
ATOM     14  O   UNL     1       5.623   3.742  19.102  0.00  0.00    +0.000 OA
ATOM     15  C   UNL     1       4.600   3.169  19.810  0.00  0.00    +0.000 A 
ATOM     16  O   UNL     1       4.684   2.011  20.205  0.00  0.00    +0.000 OA
ATOM     17  C   UNL     1       3.440   3.998  20.056  0.00  0.00    +0.000 A 
ENDBRANCH   5  13
ENDBRANCH   1   5
BRANCH   2  18
ATOM     18  C   UNL     1       8.439   8.754  18.549  0.00  0.00    +0.000 C 
ATOM     19  C   UNL     1       8.690   9.945  17.977  0.00  0.00    +0.000 C 
BRANCH  19  20
ATOM     20  C   UNL     1       9.281  11.085  18.692  0.00  0.00    +0.000 A 
ATOM     21  C   UNL     1       9.809  10.952  19.982  0.00  0.00    +0.000 A 
ATOM     22  C   UNL     1      10.391  12.042  20.634  0.00  0.00    +0.000 A 
ATOM     23  C   UNL     1      10.464  13.277  19.989  0.00  0.00    +0.000 A 
ATOM     24  C   UNL     1       9.966  13.424  18.694  0.00  0.00    +0.000 A 
ATOM     25  C   UNL     1       9.382  12.327  18.047  0.00  0.00    +0.000 A 
BRANCH  23  26
ATOM     26  C   UNL     1      11.077  14.432  20.676  0.00  0.00    +0.000 C 
ATOM     27  O   UNL     1      10.402  15.298  21.220  0.00  0.00    +0.000 OA
ENDBRANCH  23  26
ENDBRANCH  19  20
ENDBRANCH   2  18
TORSDOF 5
ENDMDL
MODEL 8
REMARK VINA RESULT:      -8.3      6.394      9.376
REMARK  Name = 
REMARK  7 active torsions:
REMARK  status: ('A' for Active; 'I' for Inactive)
REMARK    1  A    between atoms: C_1  and  C_2
REMARK    2  A    between atoms: C_7  and  C_8
REMARK    3  A    between atoms: C_8  and  C_9
REMARK    4  A    between atoms: C_8  and  N_10
REMARK    5  A    between atoms: C_11  and  C_13
REMARK    6  A    between atoms: C_14  and  C_15
REMARK    7  A    between atoms: C_18  and  C_19
REMARK                            x       y       z     vdW  Elec       q    Type
REMARK                         _______ _______ _______ _____ _____    ______ ____
ROOT
ATOM      1  N   UNL     1       1.206   9.723  18.840  0.00  0.00    +0.000 N 
ATOM      2  C   UNL     1       1.792   8.547  19.231  0.00  0.00    +0.000 C 
ATOM      3  O   UNL     1       1.685   8.073  20.355  0.00  0.00    +0.000 OA
ATOM      4  H   UNL     1       1.319  10.079  17.895  0.00  0.00    +0.000 HD
ENDROOT
BRANCH   1   5
ATOM      5  C   UNL     1       0.423  10.532  19.767  0.00  0.00    +0.000 C 
ATOM      6  C   UNL     1       1.177  11.797  20.154  0.00  0.00    +0.000 C 
BRANCH   5  13
ATOM      7  C   UNL     1      -5.749  12.584  18.050  0.00  0.00    +0.000 C 
ATOM      8  C   UNL     1      -4.582  11.812  17.527  0.00  0.00    +0.000 A 
ATOM      9  C   UNL     1      -4.547  11.191  16.292  0.00  0.00    +0.000 A 
ATOM     10  S   UNL     1      -3.057  10.409  15.984  0.00  0.00    +0.000 S 
ATOM     11  C   UNL     1      -2.441  10.862  17.505  0.00  0.00    +0.000 A 
ATOM     12  N   UNL     1      -1.209  10.495  17.914  0.00  0.00    +0.000 NA
ATOM     13  C   UNL     1      -0.914  10.886  19.118  0.00  0.00    +0.000 A 
ATOM     14  O   UNL     1      -1.680  11.640  19.953  0.00  0.00    +0.000 OA
ATOM     15  C   UNL     1      -2.930  12.028  19.546  0.00  0.00    +0.000 A 
ATOM     16  O   UNL     1      -3.645  12.703  20.278  0.00  0.00    +0.000 OA
ATOM     17  C   UNL     1      -3.343  11.598  18.228  0.00  0.00    +0.000 A 
ENDBRANCH   5  13
ENDBRANCH   1   5
BRANCH   2  18
ATOM     18  C   UNL     1       2.587   7.901  18.159  0.00  0.00    +0.000 C 
ATOM     19  C   UNL     1       3.099   6.673  18.348  0.00  0.00    +0.000 C 
BRANCH  19  20
ATOM     20  C   UNL     1       3.938   5.977  17.361  0.00  0.00    +0.000 A 
ATOM     21  C   UNL     1       4.775   6.676  16.483  0.00  0.00    +0.000 A 
ATOM     22  C   UNL     1       5.585   5.995  15.571  0.00  0.00    +0.000 A 
ATOM     23  C   UNL     1       5.573   4.600  15.541  0.00  0.00    +0.000 A 
ATOM     24  C   UNL     1       4.764   3.885  16.424  0.00  0.00    +0.000 A 
ATOM     25  C   UNL     1       3.954   4.574  17.335  0.00  0.00    +0.000 A 
BRANCH  23  26
ATOM     26  C   UNL     1       6.426   3.876  14.576  0.00  0.00    +0.000 C 
ATOM     27  O   UNL     1       6.079   3.686  13.417  0.00  0.00    +0.000 OA
ENDBRANCH  23  26
ENDBRANCH  19  20
ENDBRANCH   2  18
TORSDOF 5
ENDMDL
MODEL 9
REMARK VINA RESULT:      -8.3      1.924      2.323
REMARK  Name = 
REMARK  7 active torsions:
REMARK  status: ('A' for Active; 'I' for Inactive)
REMARK    1  A    between atoms: C_1  and  C_2
REMARK    2  A    between atoms: C_7  and  C_8
REMARK    3  A    between atoms: C_8  and  C_9
REMARK    4  A    between atoms: C_8  and  N_10
REMARK    5  A    between atoms: C_11  and  C_13
REMARK    6  A    between atoms: C_14  and  C_15
REMARK    7  A    between atoms: C_18  and  C_19
REMARK                            x       y       z     vdW  Elec       q    Type
REMARK                         _______ _______ _______ _____ _____    ______ ____
ROOT
ATOM      1  N   UNL     1       7.014   6.632  18.139  0.00  0.00    +0.000 N 
ATOM      2  C   UNL     1       7.801   7.594  17.563  0.00  0.00    +0.000 C 
ATOM      3  O   UNL     1       8.208   7.542  16.410  0.00  0.00    +0.000 OA
ATOM      4  H   UNL     1       6.696   6.716  19.100  0.00  0.00    +0.000 HD
ENDROOT
BRANCH   1   5
ATOM      5  C   UNL     1       6.623   5.428  17.413  0.00  0.00    +0.000 C 
ATOM      6  C   UNL     1       7.715   4.369  17.491  0.00  0.00    +0.000 C 
BRANCH   5  13
ATOM      7  C   UNL     1       0.765   4.236  20.497  0.00  0.00    +0.000 C 
ATOM      8  C   UNL     1       1.833   3.556  19.703  0.00  0.00    +0.000 A 
ATOM      9  C   UNL     1       1.838   2.207  19.398  0.00  0.00    +0.000 A 
ATOM     10  S   UNL     1       3.190   1.745  18.457  0.00  0.00    +0.000 S 
ATOM     11  C   UNL     1       3.807   3.332  18.462  0.00  0.00    +0.000 A 
ATOM     12  N   UNL     1       4.971   3.647  17.857  0.00  0.00    +0.000 NA
ATOM     13  C   UNL     1       5.317   4.892  17.996  0.00  0.00    +0.000 A 
ATOM     14  O   UNL     1       4.622   5.878  18.628  0.00  0.00    +0.000 OA
ATOM     15  C   UNL     1       3.434   5.573  19.238  0.00  0.00    +0.000 A 
ATOM     16  O   UNL     1       2.789   6.439  19.819  0.00  0.00    +0.000 OA
ATOM     17  C   UNL     1       3.000   4.196  19.156  0.00  0.00    +0.000 A 
ENDBRANCH   5  13
ENDBRANCH   1   5
BRANCH   2  18
ATOM     18  C   UNL     1       8.130   8.712  18.481  0.00  0.00    +0.000 C 
ATOM     19  C   UNL     1       8.696   9.832  18.000  0.00  0.00    +0.000 C 
BRANCH  19  20
ATOM     20  C   UNL     1       9.099  10.969  18.841  0.00  0.00    +0.000 A 
ATOM     21  C   UNL     1       9.578  10.787  20.145  0.00  0.00    +0.000 A 
ATOM     22  C   UNL     1       9.981  11.878  20.919  0.00  0.00    +0.000 A 
ATOM     23  C   UNL     1       9.920  13.166  20.385  0.00  0.00    +0.000 A 
ATOM     24  C   UNL     1       9.468  13.366  19.080  0.00  0.00    +0.000 A 
ATOM     25  C   UNL     1       9.065  12.268  18.310  0.00  0.00    +0.000 A 
BRANCH  23  26
ATOM     26  C   UNL     1      10.343  14.323  21.201  0.00  0.00    +0.000 C 
ATOM     27  O   UNL     1      11.159  15.141  20.796  0.00  0.00    +0.000 OA
ENDBRANCH  23  26
ENDBRANCH  19  20
ENDBRANCH   2  18
TORSDOF 5
ENDMDL
