MODEL 1
REMARK VINA RESULT:      -7.0      0.000      0.000
REMARK  Name = 
REMARK  13 active torsions:
REMARK  status: ('A' for Active; 'I' for Inactive)
REMARK    1  A    between atoms: C_2  and  O_3
REMARK    2  A    between atoms: C_2  and  C_4
REMARK    3  A    between atoms: C_4  and  C_5
REMARK    4  A    between atoms: C_5  and  C_6
REMARK    5  A    between atoms: C_6  and  C_7
REMARK    6  A    between atoms: C_7  and  C_8
REMARK    7  A    between atoms: C_8  and  C_9
REMARK    8  A    between atoms: C_9  and  C_10
REMARK    9  A    between atoms: C_10  and  C_11
REMARK   10  A    between atoms: C_11  and  N_12
REMARK   11  A    between atoms: C_13  and  C_15
REMARK   12  A    between atoms: C_15  and  C_16
REMARK   13  A    between atoms: C_17  and  C_18
REMARK                            x       y       z     vdW  Elec       q    Type
REMARK                         _______ _______ _______ _____ _____    ______ ____
ROOT
ATOM      1  N   UNL     1       6.762   7.222  17.212  0.00  0.00    +0.000 N 
ATOM      2  C   UNL     1       6.691   6.078  16.445  0.00  0.00    +0.000 C 
ATOM      3  O   UNL     1       7.661   5.359  16.217  0.00  0.00    +0.000 OA
ATOM      4  H   UNL     1       5.924   7.759  17.389  0.00  0.00    +0.000 HD
ENDROOT
BRANCH   1   5
ATOM      5  C   UNL     1       8.012   7.651  17.802  0.00  0.00    +0.000 C 
BRANCH   5   6
ATOM      6  C   UNL     1       8.123   9.172  17.841  0.00  0.00    +0.000 C 
BRANCH   6   7
ATOM      7  C   UNL     1       8.939   9.624  19.051  0.00  0.00    +0.000 C 
BRANCH   7   8
ATOM      8  C   UNL     1       9.374  11.079  18.903  0.00  0.00    +0.000 C 
BRANCH   8   9
ATOM      9  C   UNL     1      10.225  11.267  17.651  0.00  0.00    +0.000 C 
BRANCH   9  10
ATOM     10  C   UNL     1      11.447  12.134  17.947  0.00  0.00    +0.000 C 
BRANCH  10  11
ATOM     11  C   UNL     1      11.494  13.339  17.004  0.00  0.00    +0.000 C 
BRANCH  11  12
ATOM     12  C   UNL     1      11.286  14.650  17.756  0.00  0.00    +0.000 C 
BRANCH  12  14
ATOM     13  O   UNL     1      12.330  16.673  16.917  0.00  0.00    +0.000 OA
ATOM     14  C   UNL     1      11.446  15.840  16.837  0.00  0.00    +0.000 C 
BRANCH  14  15
ATOM     15  O   UNL     1      10.489  15.901  15.879  0.00  0.00    +0.000 OA
ATOM     16  H   UNL     1      10.590  16.644  15.256  0.00  0.00    +0.000 HD
ENDBRANCH  14  15
ENDBRANCH  12  14
ENDBRANCH  11  12
ENDBRANCH  10  11
ENDBRANCH   9  10
ENDBRANCH   8   9
ENDBRANCH   7   8
ENDBRANCH   6   7
ENDBRANCH   5   6
ENDBRANCH   1   5
BRANCH   2  17
ATOM     17  C   UNL     1       5.302   5.751  15.914  0.00  0.00    +0.000 C 
BRANCH  17  18
ATOM     18  C   UNL     1       4.374   5.485  17.057  0.00  0.00    +0.000 C 
ATOM     19  C   UNL     1       3.551   4.427  17.152  0.00  0.00    +0.000 C 
BRANCH  19  20
ATOM     20  C   UNL     1       2.648   4.237  18.296  0.00  0.00    +0.000 A 
ATOM     21  C   UNL     1       1.649   3.252  18.269  0.00  0.00    +0.000 A 
ATOM     22  C   UNL     1       0.755   3.111  19.330  0.00  0.00    +0.000 A 
ATOM     23  C   UNL     1       0.882   3.918  20.457  0.00  0.00    +0.000 A 
ATOM     24  C   UNL     1       1.903   4.866  20.521  0.00  0.00    +0.000 A 
ATOM     25  C   UNL     1       2.783   5.026  19.444  0.00  0.00    +0.000 A 
ENDBRANCH  19  20
ENDBRANCH  17  18
ENDBRANCH   2  17
TORSDOF 13
ENDMDL
MODEL 2
REMARK VINA RESULT:      -6.9      5.843      8.124
REMARK  Name = 
REMARK  13 active torsions:
REMARK  status: ('A' for Active; 'I' for Inactive)
REMARK    1  A    between atoms: C_2  and  O_3
REMARK    2  A    between atoms: C_2  and  C_4
REMARK    3  A    between atoms: C_4  and  C_5
REMARK    4  A    between atoms: C_5  and  C_6
REMARK    5  A    between atoms: C_6  and  C_7
REMARK    6  A    between atoms: C_7  and  C_8
REMARK    7  A    between atoms: C_8  and  C_9
REMARK    8  A    between atoms: C_9  and  C_10
REMARK    9  A    between atoms: C_10  and  C_11
REMARK   10  A    between atoms: C_11  and  N_12
REMARK   11  A    between atoms: C_13  and  C_15
REMARK   12  A    between atoms: C_15  and  C_16
REMARK   13  A    between atoms: C_17  and  C_18
REMARK                            x       y       z     vdW  Elec       q    Type
REMARK                         _______ _______ _______ _____ _____    ______ ____
ROOT
ATOM      1  N   UNL     1       2.963   2.736  20.043  0.00  0.00    +0.000 N 
ATOM      2  C   UNL     1       1.825   3.459  20.331  0.00  0.00    +0.000 C 
ATOM      3  O   UNL     1       0.709   3.150  19.922  0.00  0.00    +0.000 OA
ATOM      4  H   UNL     1       3.851   3.023  20.432  0.00  0.00    +0.000 HD
ENDROOT
BRANCH   1   5
ATOM      5  C   UNL     1       2.905   1.546  19.222  0.00  0.00    +0.000 C 
BRANCH   5   6
ATOM      6  C   UNL     1       3.623   1.745  17.891  0.00  0.00    +0.000 C 
BRANCH   6   7
ATOM      7  C   UNL     1       2.988   2.887  17.099  0.00  0.00    +0.000 C 
BRANCH   7   8
ATOM      8  C   UNL     1       3.982   4.026  16.892  0.00  0.00    +0.000 C 
BRANCH   8   9
ATOM      9  C   UNL     1       3.476   5.312  17.538  0.00  0.00    +0.000 C 
BRANCH   9  10
ATOM     10  C   UNL     1       4.629   6.106  18.151  0.00  0.00    +0.000 C 
BRANCH  10  11
ATOM     11  C   UNL     1       5.527   5.192  18.988  0.00  0.00    +0.000 C 
BRANCH  11  12
ATOM     12  C   UNL     1       6.996   5.591  18.876  0.00  0.00    +0.000 C 
BRANCH  12  14
ATOM     13  O   UNL     1       7.497   6.230  16.590  0.00  0.00    +0.000 OA
ATOM     14  C   UNL     1       7.510   5.388  17.468  0.00  0.00    +0.000 C 
BRANCH  14  15
ATOM     15  O   UNL     1       8.007   4.143  17.260  0.00  0.00    +0.000 OA
ATOM     16  H   UNL     1       8.979   4.100  17.216  0.00  0.00    +0.000 HD
ENDBRANCH  14  15
ENDBRANCH  12  14
ENDBRANCH  11  12
ENDBRANCH  10  11
ENDBRANCH   9  10
ENDBRANCH   8   9
ENDBRANCH   7   8
ENDBRANCH   6   7
ENDBRANCH   5   6
ENDBRANCH   1   5
BRANCH   2  17
ATOM     17  C   UNL     1       2.049   4.672  21.224  0.00  0.00    +0.000 C 
BRANCH  17  18
ATOM     18  C   UNL     1       1.558   5.905  20.534  0.00  0.00    +0.000 C 
ATOM     19  C   UNL     1       2.121   7.121  20.633  0.00  0.00    +0.000 C 
BRANCH  19  20
ATOM     20  C   UNL     1       1.573   8.297  19.942  0.00  0.00    +0.000 A 
ATOM     21  C   UNL     1       1.878   8.549  18.596  0.00  0.00    +0.000 A 
ATOM     22  C   UNL     1       1.405   9.695  17.958  0.00  0.00    +0.000 A 
ATOM     23  C   UNL     1       0.578  10.580  18.642  0.00  0.00    +0.000 A 
ATOM     24  C   UNL     1       0.222  10.316  19.966  0.00  0.00    +0.000 A 
ATOM     25  C   UNL     1       0.718   9.179  20.614  0.00  0.00    +0.000 A 
ENDBRANCH  19  20
ENDBRANCH  17  18
ENDBRANCH   2  17
TORSDOF 13
ENDMDL
MODEL 3
REMARK VINA RESULT:      -6.9      3.671     10.542
REMARK  Name = 
REMARK  13 active torsions:
REMARK  status: ('A' for Active; 'I' for Inactive)
REMARK    1  A    between atoms: C_2  and  O_3
REMARK    2  A    between atoms: C_2  and  C_4
REMARK    3  A    between atoms: C_4  and  C_5
REMARK    4  A    between atoms: C_5  and  C_6
REMARK    5  A    between atoms: C_6  and  C_7
REMARK    6  A    between atoms: C_7  and  C_8
REMARK    7  A    between atoms: C_8  and  C_9
REMARK    8  A    between atoms: C_9  and  C_10
REMARK    9  A    between atoms: C_10  and  C_11
REMARK   10  A    between atoms: C_11  and  N_12
REMARK   11  A    between atoms: C_13  and  C_15
REMARK   12  A    between atoms: C_15  and  C_16
REMARK   13  A    between atoms: C_17  and  C_18
REMARK                            x       y       z     vdW  Elec       q    Type
REMARK                         _______ _______ _______ _____ _____    ______ ____
ROOT
ATOM      1  N   UNL     1       5.230   6.393  17.923  0.00  0.00    +0.000 N 
ATOM      2  C   UNL     1       6.092   6.672  16.885  0.00  0.00    +0.000 C 
ATOM      3  O   UNL     1       5.717   6.859  15.730  0.00  0.00    +0.000 OA
ATOM      4  H   UNL     1       5.594   6.277  18.859  0.00  0.00    +0.000 HD
ENDROOT
BRANCH   1   5
ATOM      5  C   UNL     1       3.802   6.298  17.706  0.00  0.00    +0.000 C 
BRANCH   5   6
ATOM      6  C   UNL     1       3.359   4.855  17.492  0.00  0.00    +0.000 C 
BRANCH   6   7
ATOM      7  C   UNL     1       1.875   4.691  17.818  0.00  0.00    +0.000 C 
BRANCH   7   8
ATOM      8  C   UNL     1       1.647   4.660  19.326  0.00  0.00    +0.000 C 
BRANCH   8   9
ATOM      9  C   UNL     1       0.769   3.477  19.720  0.00  0.00    +0.000 C 
BRANCH   9  10
ATOM     10  C   UNL     1       1.286   2.813  20.995  0.00  0.00    +0.000 C 
BRANCH  10  11
ATOM     11  C   UNL     1       2.725   3.248  21.284  0.00  0.00    +0.000 C 
BRANCH  11  12
ATOM     12  C   UNL     1       3.715   2.113  21.035  0.00  0.00    +0.000 C 
BRANCH  12  14
ATOM     13  O   UNL     1       3.573   1.490  18.695  0.00  0.00    +0.000 OA
ATOM     14  C   UNL     1       4.154   2.078  19.589  0.00  0.00    +0.000 C 
BRANCH  14  15
ATOM     15  O   UNL     1       5.289   2.784  19.362  0.00  0.00    +0.000 OA
ATOM     16  H   UNL     1       5.704   2.612  18.497  0.00  0.00    +0.000 HD
ENDBRANCH  14  15
ENDBRANCH  12  14
ENDBRANCH  11  12
ENDBRANCH  10  11
ENDBRANCH   9  10
ENDBRANCH   8   9
ENDBRANCH   7   8
ENDBRANCH   6   7
ENDBRANCH   5   6
ENDBRANCH   1   5
BRANCH   2  17
ATOM     17  C   UNL     1       7.560   6.758  17.280  0.00  0.00    +0.000 C 
BRANCH  17  18
ATOM     18  C   UNL     1       7.955   8.192  17.446  0.00  0.00    +0.000 C 
ATOM     19  C   UNL     1       8.521   8.714  18.548  0.00  0.00    +0.000 C 
BRANCH  19  20
ATOM     20  C   UNL     1       8.865  10.139  18.651  0.00  0.00    +0.000 A 
ATOM     21  C   UNL     1       8.362  11.070  17.730  0.00  0.00    +0.000 A 
ATOM     22  C   UNL     1       8.736  12.412  17.793  0.00  0.00    +0.000 A 
ATOM     23  C   UNL     1       9.576  12.852  18.811  0.00  0.00    +0.000 A 
ATOM     24  C   UNL     1      10.043  11.948  19.766  0.00  0.00    +0.000 A 
ATOM     25  C   UNL     1       9.689  10.596  19.687  0.00  0.00    +0.000 A 
ENDBRANCH  19  20
ENDBRANCH  17  18
ENDBRANCH   2  17
TORSDOF 13
ENDMDL
MODEL 4
REMARK VINA RESULT:      -6.9      5.022      7.464
REMARK  Name = 
REMARK  13 active torsions:
REMARK  status: ('A' for Active; 'I' for Inactive)
REMARK    1  A    between atoms: C_2  and  O_3
REMARK    2  A    between atoms: C_2  and  C_4
REMARK    3  A    between atoms: C_4  and  C_5
REMARK    4  A    between atoms: C_5  and  C_6
REMARK    5  A    between atoms: C_6  and  C_7
REMARK    6  A    between atoms: C_7  and  C_8
REMARK    7  A    between atoms: C_8  and  C_9
REMARK    8  A    between atoms: C_9  and  C_10
REMARK    9  A    between atoms: C_10  and  C_11
REMARK   10  A    between atoms: C_11  and  N_12
REMARK   11  A    between atoms: C_13  and  C_15
REMARK   12  A    between atoms: C_15  and  C_16
REMARK   13  A    between atoms: C_17  and  C_18
REMARK                            x       y       z     vdW  Elec       q    Type
REMARK                         _______ _______ _______ _____ _____    ______ ____
ROOT
ATOM      1  N   UNL     1       2.321   2.049  19.439  0.00  0.00    +0.000 N 
ATOM      2  C   UNL     1       2.465   2.589  20.699  0.00  0.00    +0.000 C 
ATOM      3  O   UNL     1       3.464   2.418  21.394  0.00  0.00    +0.000 OA
ATOM      4  H   UNL     1       1.488   2.248  18.901  0.00  0.00    +0.000 HD
ENDROOT
BRANCH   1   5
ATOM      5  C   UNL     1       3.360   1.231  18.851  0.00  0.00    +0.000 C 
BRANCH   5   6
ATOM      6  C   UNL     1       4.302   2.056  17.980  0.00  0.00    +0.000 C 
BRANCH   6   7
ATOM      7  C   UNL     1       3.868   3.520  17.951  0.00  0.00    +0.000 C 
BRANCH   7   8
ATOM      8  C   UNL     1       3.943   4.084  16.535  0.00  0.00    +0.000 C 
BRANCH   8   9
ATOM      9  C   UNL     1       5.037   5.142  16.428  0.00  0.00    +0.000 C 
BRANCH   9  10
ATOM     10  C   UNL     1       6.406   4.495  16.227  0.00  0.00    +0.000 C 
BRANCH  10  11
ATOM     11  C   UNL     1       7.239   4.588  17.507  0.00  0.00    +0.000 C 
BRANCH  11  12
ATOM     12  C   UNL     1       6.820   5.778  18.365  0.00  0.00    +0.000 C 
BRANCH  12  14
ATOM     13  O   UNL     1       7.547   7.707  17.086  0.00  0.00    +0.000 OA
ATOM     14  C   UNL     1       7.669   6.993  18.064  0.00  0.00    +0.000 C 
BRANCH  14  15
ATOM     15  O   UNL     1       8.610   7.230  19.011  0.00  0.00    +0.000 OA
ATOM     16  H   UNL     1       9.503   7.394  18.658  0.00  0.00    +0.000 HD
ENDBRANCH  14  15
ENDBRANCH  12  14
ENDBRANCH  11  12
ENDBRANCH  10  11
ENDBRANCH   9  10
ENDBRANCH   8   9
ENDBRANCH   7   8
ENDBRANCH   6   7
ENDBRANCH   5   6
ENDBRANCH   1   5
BRANCH   2  17
ATOM     17  C   UNL     1       1.294   3.442  21.165  0.00  0.00    +0.000 C 
BRANCH  17  18
ATOM     18  C   UNL     1       1.271   4.729  20.401  0.00  0.00    +0.000 C 
ATOM     19  C   UNL     1       2.230   5.669  20.446  0.00  0.00    +0.000 C 
BRANCH  19  20
ATOM     20  C   UNL     1       2.134   6.922  19.683  0.00  0.00    +0.000 A 
ATOM     21  C   UNL     1       1.570   8.072  20.256  0.00  0.00    +0.000 A 
ATOM     22  C   UNL     1       1.426   9.244  19.514  0.00  0.00    +0.000 A 
ATOM     23  C   UNL     1       1.891   9.298  18.204  0.00  0.00    +0.000 A 
ATOM     24  C   UNL     1       2.502   8.179  17.637  0.00  0.00    +0.000 A 
ATOM     25  C   UNL     1       2.622   6.995  18.373  0.00  0.00    +0.000 A 
ENDBRANCH  19  20
ENDBRANCH  17  18
ENDBRANCH   2  17
TORSDOF 13
ENDMDL
MODEL 5
REMARK VINA RESULT:      -6.8      5.481      7.363
REMARK  Name = 
REMARK  13 active torsions:
REMARK  status: ('A' for Active; 'I' for Inactive)
REMARK    1  A    between atoms: C_2  and  O_3
REMARK    2  A    between atoms: C_2  and  C_4
REMARK    3  A    between atoms: C_4  and  C_5
REMARK    4  A    between atoms: C_5  and  C_6
REMARK    5  A    between atoms: C_6  and  C_7
REMARK    6  A    between atoms: C_7  and  C_8
REMARK    7  A    between atoms: C_8  and  C_9
REMARK    8  A    between atoms: C_9  and  C_10
REMARK    9  A    between atoms: C_10  and  C_11
REMARK   10  A    between atoms: C_11  and  N_12
REMARK   11  A    between atoms: C_13  and  C_15
REMARK   12  A    between atoms: C_15  and  C_16
REMARK   13  A    between atoms: C_17  and  C_18
REMARK                            x       y       z     vdW  Elec       q    Type
REMARK                         _______ _______ _______ _____ _____    ______ ____
ROOT
ATOM      1  N   UNL     1       2.674   2.420  19.161  0.00  0.00    +0.000 N 
ATOM      2  C   UNL     1       3.377   2.695  20.314  0.00  0.00    +0.000 C 
ATOM      3  O   UNL     1       4.573   2.448  20.449  0.00  0.00    +0.000 OA
ATOM      4  H   UNL     1       1.697   2.672  19.098  0.00  0.00    +0.000 HD
ENDROOT
BRANCH   1   5
ATOM      5  C   UNL     1       3.319   1.811  18.018  0.00  0.00    +0.000 C 
BRANCH   5   6
ATOM      6  C   UNL     1       3.201   2.683  16.772  0.00  0.00    +0.000 C 
BRANCH   6   7
ATOM      7  C   UNL     1       4.189   3.846  16.831  0.00  0.00    +0.000 C 
BRANCH   7   8
ATOM      8  C   UNL     1       4.831   4.086  15.467  0.00  0.00    +0.000 C 
BRANCH   8   9
ATOM      9  C   UNL     1       5.961   5.106  15.570  0.00  0.00    +0.000 C 
BRANCH   9  10
ATOM     10  C   UNL     1       5.452   6.428  16.142  0.00  0.00    +0.000 C 
BRANCH  10  11
ATOM     11  C   UNL     1       6.253   6.820  17.386  0.00  0.00    +0.000 C 
BRANCH  11  12
ATOM     12  C   UNL     1       7.140   5.676  17.867  0.00  0.00    +0.000 C 
BRANCH  12  14
ATOM     13  O   UNL     1       7.728   5.361  20.200  0.00  0.00    +0.000 OA
ATOM     14  C   UNL     1       7.810   6.019  19.179  0.00  0.00    +0.000 C 
BRANCH  14  15
ATOM     15  O   UNL     1       8.539   7.161  19.120  0.00  0.00    +0.000 OA
ATOM     16  H   UNL     1       8.103   7.892  18.644  0.00  0.00    +0.000 HD
ENDBRANCH  14  15
ENDBRANCH  12  14
ENDBRANCH  11  12
ENDBRANCH  10  11
ENDBRANCH   9  10
ENDBRANCH   8   9
ENDBRANCH   7   8
ENDBRANCH   6   7
ENDBRANCH   5   6
ENDBRANCH   1   5
BRANCH   2  17
ATOM     17  C   UNL     1       2.561   3.356  21.417  0.00  0.00    +0.000 C 
BRANCH  17  18
ATOM     18  C   UNL     1       2.238   4.765  21.030  0.00  0.00    +0.000 C 
ATOM     19  C   UNL     1       2.541   5.329  19.849  0.00  0.00    +0.000 C 
BRANCH  19  20
ATOM     20  C   UNL     1       2.213   6.728  19.542  0.00  0.00    +0.000 A 
ATOM     21  C   UNL     1       1.597   7.550  20.498  0.00  0.00    +0.000 A 
ATOM     22  C   UNL     1       1.232   8.859  20.187  0.00  0.00    +0.000 A 
ATOM     23  C   UNL     1       1.526   9.383  18.932  0.00  0.00    +0.000 A 
ATOM     24  C   UNL     1       2.186   8.596  17.988  0.00  0.00    +0.000 A 
ATOM     25  C   UNL     1       2.528   7.272  18.291  0.00  0.00    +0.000 A 
ENDBRANCH  19  20
ENDBRANCH  17  18
ENDBRANCH   2  17
TORSDOF 13
ENDMDL
MODEL 6
REMARK VINA RESULT:      -6.7      3.217     10.963
REMARK  Name = 
REMARK  13 active torsions:
REMARK  status: ('A' for Active; 'I' for Inactive)
REMARK    1  A    between atoms: C_2  and  O_3
REMARK    2  A    between atoms: C_2  and  C_4
REMARK    3  A    between atoms: C_4  and  C_5
REMARK    4  A    between atoms: C_5  and  C_6
REMARK    5  A    between atoms: C_6  and  C_7
REMARK    6  A    between atoms: C_7  and  C_8
REMARK    7  A    between atoms: C_8  and  C_9
REMARK    8  A    between atoms: C_9  and  C_10
REMARK    9  A    between atoms: C_10  and  C_11
REMARK   10  A    between atoms: C_11  and  N_12
REMARK   11  A    between atoms: C_13  and  C_15
REMARK   12  A    between atoms: C_15  and  C_16
REMARK   13  A    between atoms: C_17  and  C_18
REMARK                            x       y       z     vdW  Elec       q    Type
REMARK                         _______ _______ _______ _____ _____    ______ ____
ROOT
ATOM      1  N   UNL     1       5.909   6.769  17.536  0.00  0.00    +0.000 N 
ATOM      2  C   UNL     1       7.246   6.952  17.253  0.00  0.00    +0.000 C 
ATOM      3  O   UNL     1       7.744   6.694  16.160  0.00  0.00    +0.000 OA
ATOM      4  H   UNL     1       5.550   7.026  18.446  0.00  0.00    +0.000 HD
ENDROOT
BRANCH   1   5
ATOM      5  C   UNL     1       4.997   6.249  16.540  0.00  0.00    +0.000 C 
BRANCH   5   6
ATOM      6  C   UNL     1       4.952   4.724  16.560  0.00  0.00    +0.000 C 
BRANCH   6   7
ATOM      7  C   UNL     1       4.454   4.215  17.912  0.00  0.00    +0.000 C 
BRANCH   7   8
ATOM      8  C   UNL     1       3.283   5.056  18.414  0.00  0.00    +0.000 C 
BRANCH   8   9
ATOM      9  C   UNL     1       3.161   4.965  19.932  0.00  0.00    +0.000 C 
BRANCH   9  10
ATOM     10  C   UNL     1       1.780   5.423  20.397  0.00  0.00    +0.000 C 
BRANCH  10  11
ATOM     11  C   UNL     1       0.787   4.258  20.368  0.00  0.00    +0.000 C 
BRANCH  11  12
ATOM     12  C   UNL     1       1.501   2.911  20.432  0.00  0.00    +0.000 C 
BRANCH  12  14
ATOM     13  O   UNL     1       0.274   2.111  18.498  0.00  0.00    +0.000 OA
ATOM     14  C   UNL     1       1.297   2.124  19.157  0.00  0.00    +0.000 C 
BRANCH  14  15
ATOM     15  O   UNL     1       2.390   1.408  18.795  0.00  0.00    +0.000 OA
ATOM     16  H   UNL     1       2.356   0.466  19.045  0.00  0.00    +0.000 HD
ENDBRANCH  14  15
ENDBRANCH  12  14
ENDBRANCH  11  12
ENDBRANCH  10  11
ENDBRANCH   9  10
ENDBRANCH   8   9
ENDBRANCH   7   8
ENDBRANCH   6   7
ENDBRANCH   5   6
ENDBRANCH   1   5
BRANCH   2  17
ATOM     17  C   UNL     1       8.068   7.527  18.399  0.00  0.00    +0.000 C 
BRANCH  17  18
ATOM     18  C   UNL     1       8.643   8.848  17.995  0.00  0.00    +0.000 C 
ATOM     19  C   UNL     1       8.783   9.909  18.807  0.00  0.00    +0.000 C 
BRANCH  19  20
ATOM     20  C   UNL     1       9.338  11.187  18.338  0.00  0.00    +0.000 A 
ATOM     21  C   UNL     1      10.628  11.254  17.792  0.00  0.00    +0.000 A 
ATOM     22  C   UNL     1      11.176  12.475  17.401  0.00  0.00    +0.000 A 
ATOM     23  C   UNL     1      10.421  13.640  17.503  0.00  0.00    +0.000 A 
ATOM     24  C   UNL     1       9.117  13.582  17.996  0.00  0.00    +0.000 A 
ATOM     25  C   UNL     1       8.577  12.359  18.413  0.00  0.00    +0.000 A 
ENDBRANCH  19  20
ENDBRANCH  17  18
ENDBRANCH   2  17
TORSDOF 13
ENDMDL
MODEL 7
REMARK VINA RESULT:      -6.7      3.844     10.379
REMARK  Name = 
REMARK  13 active torsions:
REMARK  status: ('A' for Active; 'I' for Inactive)
REMARK    1  A    between atoms: C_2  and  O_3
REMARK    2  A    between atoms: C_2  and  C_4
REMARK    3  A    between atoms: C_4  and  C_5
REMARK    4  A    between atoms: C_5  and  C_6
REMARK    5  A    between atoms: C_6  and  C_7
REMARK    6  A    between atoms: C_7  and  C_8
REMARK    7  A    between atoms: C_8  and  C_9
REMARK    8  A    between atoms: C_9  and  C_10
REMARK    9  A    between atoms: C_10  and  C_11
REMARK   10  A    between atoms: C_11  and  N_12
REMARK   11  A    between atoms: C_13  and  C_15
REMARK   12  A    between atoms: C_15  and  C_16
REMARK   13  A    between atoms: C_17  and  C_18
REMARK                            x       y       z     vdW  Elec       q    Type
REMARK                         _______ _______ _______ _____ _____    ______ ____
ROOT
ATOM      1  N   UNL     1       4.993   6.958  17.857  0.00  0.00    +0.000 N 
ATOM      2  C   UNL     1       5.909   6.730  16.853  0.00  0.00    +0.000 C 
ATOM      3  O   UNL     1       5.590   6.535  15.683  0.00  0.00    +0.000 OA
ATOM      4  H   UNL     1       5.316   7.141  18.798  0.00  0.00    +0.000 HD
ENDROOT
BRANCH   1   5
ATOM      5  C   UNL     1       3.572   6.980  17.584  0.00  0.00    +0.000 C 
BRANCH   5   6
ATOM      6  C   UNL     1       2.823   5.940  18.411  0.00  0.00    +0.000 C 
BRANCH   6   7
ATOM      7  C   UNL     1       2.301   6.554  19.709  0.00  0.00    +0.000 C 
BRANCH   7   8
ATOM      8  C   UNL     1       2.023   5.474  20.751  0.00  0.00    +0.000 C 
BRANCH   8   9
ATOM      9  C   UNL     1       1.210   4.333  20.147  0.00  0.00    +0.000 C 
BRANCH   9  10
ATOM     10  C   UNL     1       1.740   2.978  20.614  0.00  0.00    +0.000 C 
BRANCH  10  11
ATOM     11  C   UNL     1       3.241   2.862  20.338  0.00  0.00    +0.000 C 
BRANCH  11  12
ATOM     12  C   UNL     1       3.539   1.790  19.294  0.00  0.00    +0.000 C 
BRANCH  12  14
ATOM     13  O   UNL     1       4.141   3.058  17.315  0.00  0.00    +0.000 OA
ATOM     14  C   UNL     1       3.357   2.327  17.892  0.00  0.00    +0.000 C 
BRANCH  14  15
ATOM     15  O   UNL     1       2.205   1.911  17.311  0.00  0.00    +0.000 OA
ATOM     16  H   UNL     1       1.487   1.708  17.938  0.00  0.00    +0.000 HD
ENDBRANCH  14  15
ENDBRANCH  12  14
ENDBRANCH  11  12
ENDBRANCH  10  11
ENDBRANCH   9  10
ENDBRANCH   8   9
ENDBRANCH   7   8
ENDBRANCH   6   7
ENDBRANCH   5   6
ENDBRANCH   1   5
BRANCH   2  17
ATOM     17  C   UNL     1       7.364   6.760  17.298  0.00  0.00    +0.000 C 
BRANCH  17  18
ATOM     18  C   UNL     1       7.797   8.176  17.512  0.00  0.00    +0.000 C 
ATOM     19  C   UNL     1       8.530   8.609  18.552  0.00  0.00    +0.000 C 
BRANCH  19  20
ATOM     20  C   UNL     1       8.904  10.022  18.712  0.00  0.00    +0.000 A 
ATOM     21  C   UNL     1       9.648  10.449  19.822  0.00  0.00    +0.000 A 
ATOM     22  C   UNL     1       9.952  11.797  20.004  0.00  0.00    +0.000 A 
ATOM     23  C   UNL     1       9.561  12.732  19.050  0.00  0.00    +0.000 A 
ATOM     24  C   UNL     1       8.867  12.316  17.914  0.00  0.00    +0.000 A 
ATOM     25  C   UNL     1       8.538  10.966  17.745  0.00  0.00    +0.000 A 
ENDBRANCH  19  20
ENDBRANCH  17  18
ENDBRANCH   2  17
TORSDOF 13
ENDMDL
MODEL 8
REMARK VINA RESULT:      -6.7      6.059      8.369
REMARK  Name = 
REMARK  13 active torsions:
REMARK  status: ('A' for Active; 'I' for Inactive)
REMARK    1  A    between atoms: C_2  and  O_3
REMARK    2  A    between atoms: C_2  and  C_4
REMARK    3  A    between atoms: C_4  and  C_5
REMARK    4  A    between atoms: C_5  and  C_6
REMARK    5  A    between atoms: C_6  and  C_7
REMARK    6  A    between atoms: C_7  and  C_8
REMARK    7  A    between atoms: C_8  and  C_9
REMARK    8  A    between atoms: C_9  and  C_10
REMARK    9  A    between atoms: C_10  and  C_11
REMARK   10  A    between atoms: C_11  and  N_12
REMARK   11  A    between atoms: C_13  and  C_15
REMARK   12  A    between atoms: C_15  and  C_16
REMARK   13  A    between atoms: C_17  and  C_18
REMARK                            x       y       z     vdW  Elec       q    Type
REMARK                         _______ _______ _______ _____ _____    ______ ____
ROOT
ATOM      1  N   UNL     1       2.223   5.680  17.853  0.00  0.00    +0.000 N 
ATOM      2  C   UNL     1       2.596   6.759  18.626  0.00  0.00    +0.000 C 
ATOM      3  O   UNL     1       2.753   6.693  19.843  0.00  0.00    +0.000 OA
ATOM      4  H   UNL     1       2.137   5.787  16.851  0.00  0.00    +0.000 HD
ENDROOT
BRANCH   1   5
ATOM      5  C   UNL     1       1.986   4.381  18.445  0.00  0.00    +0.000 C 
BRANCH   5   6
ATOM      6  C   UNL     1       2.519   3.255  17.564  0.00  0.00    +0.000 C 
BRANCH   6   7
ATOM      7  C   UNL     1       4.037   3.140  17.692  0.00  0.00    +0.000 C 
BRANCH   7   8
ATOM      8  C   UNL     1       4.495   3.507  19.100  0.00  0.00    +0.000 C 
BRANCH   8   9
ATOM      9  C   UNL     1       5.541   4.617  19.059  0.00  0.00    +0.000 C 
BRANCH   9  10
ATOM     10  C   UNL     1       6.223   4.675  17.693  0.00  0.00    +0.000 C 
BRANCH  10  11
ATOM     11  C   UNL     1       5.923   6.006  16.998  0.00  0.00    +0.000 C 
BRANCH  11  12
ATOM     12  C   UNL     1       5.487   5.797  15.551  0.00  0.00    +0.000 C 
BRANCH  12  14
ATOM     13  O   UNL     1       6.178   3.772  14.408  0.00  0.00    +0.000 OA
ATOM     14  C   UNL     1       6.445   4.887  14.817  0.00  0.00    +0.000 C 
BRANCH  14  15
ATOM     15  O   UNL     1       7.672   5.437  14.644  0.00  0.00    +0.000 OA
ATOM     16  H   UNL     1       7.660   6.350  14.304  0.00  0.00    +0.000 HD
ENDBRANCH  14  15
ENDBRANCH  12  14
ENDBRANCH  11  12
ENDBRANCH  10  11
ENDBRANCH   9  10
ENDBRANCH   8   9
ENDBRANCH   7   8
ENDBRANCH   6   7
ENDBRANCH   5   6
ENDBRANCH   1   5
BRANCH   2  17
ATOM     17  C   UNL     1       2.827   8.049  17.852  0.00  0.00    +0.000 C 
BRANCH  17  18
ATOM     18  C   UNL     1       1.544   8.811  17.747  0.00  0.00    +0.000 C 
ATOM     19  C   UNL     1       1.004   9.550  18.731  0.00  0.00    +0.000 C 
BRANCH  19  20
ATOM     20  C   UNL     1      -0.274  10.259  18.568  0.00  0.00    +0.000 A 
ATOM     21  C   UNL     1      -1.169   9.903  17.548  0.00  0.00    +0.000 A 
ATOM     22  C   UNL     1      -2.353  10.613  17.356  0.00  0.00    +0.000 A 
ATOM     23  C   UNL     1      -2.685  11.656  18.216  0.00  0.00    +0.000 A 
ATOM     24  C   UNL     1      -1.831  11.988  19.267  0.00  0.00    +0.000 A 
ATOM     25  C   UNL     1      -0.628  11.292  19.443  0.00  0.00    +0.000 A 
ENDBRANCH  19  20
ENDBRANCH  17  18
ENDBRANCH   2  17
TORSDOF 13
ENDMDL
MODEL 9
REMARK VINA RESULT:      -6.6      5.723      7.424
REMARK  Name = 
REMARK  13 active torsions:
REMARK  status: ('A' for Active; 'I' for Inactive)
REMARK    1  A    between atoms: C_2  and  O_3
REMARK    2  A    between atoms: C_2  and  C_4
REMARK    3  A    between atoms: C_4  and  C_5
REMARK    4  A    between atoms: C_5  and  C_6
REMARK    5  A    between atoms: C_6  and  C_7
REMARK    6  A    between atoms: C_7  and  C_8
REMARK    7  A    between atoms: C_8  and  C_9
REMARK    8  A    between atoms: C_9  and  C_10
REMARK    9  A    between atoms: C_10  and  C_11
REMARK   10  A    between atoms: C_11  and  N_12
REMARK   11  A    between atoms: C_13  and  C_15
REMARK   12  A    between atoms: C_15  and  C_16
REMARK   13  A    between atoms: C_17  and  C_18
REMARK                            x       y       z     vdW  Elec       q    Type
REMARK                         _______ _______ _______ _____ _____    ______ ____
ROOT
ATOM      1  N   UNL     1       2.774   3.250  18.944  0.00  0.00    +0.000 N 
ATOM      2  C   UNL     1       2.802   2.961  20.291  0.00  0.00    +0.000 C 
ATOM      3  O   UNL     1       3.730   2.366  20.834  0.00  0.00    +0.000 OA
ATOM      4  H   UNL     1       1.996   3.768  18.558  0.00  0.00    +0.000 HD
ENDROOT
BRANCH   1   5
ATOM      5  C   UNL     1       3.861   2.857  18.072  0.00  0.00    +0.000 C 
BRANCH   5   6
ATOM      6  C   UNL     1       4.016   3.817  16.897  0.00  0.00    +0.000 C 
BRANCH   6   7
ATOM      7  C   UNL     1       3.510   5.210  17.267  0.00  0.00    +0.000 C 
BRANCH   7   8
ATOM      8  C   UNL     1       4.536   6.279  16.900  0.00  0.00    +0.000 C 
BRANCH   8   9
ATOM      9  C   UNL     1       5.446   5.795  15.776  0.00  0.00    +0.000 C 
BRANCH   9  10
ATOM     10  C   UNL     1       6.904   5.762  16.229  0.00  0.00    +0.000 C 
BRANCH  10  11
ATOM     11  C   UNL     1       7.239   4.412  16.868  0.00  0.00    +0.000 C 
BRANCH  11  12
ATOM     12  C   UNL     1       8.163   4.574  18.071  0.00  0.00    +0.000 C 
BRANCH  12  14
ATOM     13  O   UNL     1       6.615   5.417  19.739  0.00  0.00    +0.000 OA
ATOM     14  C   UNL     1       7.608   5.581  19.054  0.00  0.00    +0.000 C 
BRANCH  14  15
ATOM     15  O   UNL     1       8.336   6.723  19.110  0.00  0.00    +0.000 OA
ATOM     16  H   UNL     1       8.757   6.890  19.973  0.00  0.00    +0.000 HD
ENDBRANCH  14  15
ENDBRANCH  12  14
ENDBRANCH  11  12
ENDBRANCH  10  11
ENDBRANCH   9  10
ENDBRANCH   8   9
ENDBRANCH   7   8
ENDBRANCH   6   7
ENDBRANCH   5   6
ENDBRANCH   1   5
BRANCH   2  17
ATOM     17  C   UNL     1       1.595   3.460  21.075  0.00  0.00    +0.000 C 
BRANCH  17  18
ATOM     18  C   UNL     1       1.271   4.862  20.665  0.00  0.00    +0.000 C 
ATOM     19  C   UNL     1       2.133   5.893  20.697  0.00  0.00    +0.000 C 
BRANCH  19  20
ATOM     20  C   UNL     1       1.741   7.253  20.299  0.00  0.00    +0.000 A 
ATOM     21  C   UNL     1       1.010   8.076  21.168  0.00  0.00    +0.000 A 
ATOM     22  C   UNL     1       0.589   9.343  20.768  0.00  0.00    +0.000 A 
ATOM     23  C   UNL     1       0.938   9.827  19.511  0.00  0.00    +0.000 A 
ATOM     24  C   UNL     1       1.710   9.041  18.654  0.00  0.00    +0.000 A 
ATOM     25  C   UNL     1       2.110   7.758  19.046  0.00  0.00    +0.000 A 
ENDBRANCH  19  20
ENDBRANCH  17  18
ENDBRANCH   2  17
TORSDOF 13
ENDMDL
