MODEL 1
REMARK VINA RESULT:      -8.9      0.000      0.000
REMARK  Name = 
REMARK  13 active torsions:
REMARK  status: ('A' for Active; 'I' for Inactive)
REMARK    1  A    between atoms: C_1  and  C_2
REMARK    2  A    between atoms: C_2  and  C_3
REMARK    3  A    between atoms: C_6  and  C_7
REMARK    4  A    between atoms: C_6  and  C_8
REMARK    5  A    between atoms: C_11  and  C_12
REMARK    6  A    between atoms: C_14  and  C_15
REMARK    7  A    between atoms: C_18  and  C_19
REMARK    8  A    between atoms: C_19  and  O_21
REMARK    9  A    between atoms: C_26  and  O_27
REMARK   10  A    between atoms: O_27  and  C_28
REMARK   11  A    between atoms: C_28  and  C_29
REMARK   12  A    between atoms: C_29  and  C_30
REMARK   13  A    between atoms: C_30  and  O_31
REMARK                            x       y       z     vdW  Elec       q    Type
REMARK                         _______ _______ _______ _____ _____    ______ ____
ROOT
ATOM      1  C   UNL     1       3.310   6.166  18.786  0.00  0.00    +0.000 A 
ATOM      2  C   UNL     1       4.052   6.011  17.588  0.00  0.00    +0.000 A 
ATOM      3  C   UNL     1       4.853   4.895  17.284  0.00  0.00    +0.000 A 
ATOM      4  C   UNL     1       4.971   3.913  18.258  0.00  0.00    +0.000 A 
ATOM      5  C   UNL     1       4.266   4.020  19.451  0.00  0.00    +0.000 A 
ATOM      6  C   UNL     1       3.443   5.129  19.738  0.00  0.00    +0.000 A 
ENDROOT
BRANCH   1  17
ATOM      7  C   UNL     1      -0.701  11.423  18.325  0.00  0.00    +0.000 C 
ATOM      8  C   UNL     1       0.532  11.314  19.248  0.00  0.00    +0.000 C 
ATOM      9  C   UNL     1       1.590  12.345  18.781  0.00  0.00    +0.000 C 
ATOM     10  C   UNL     1       0.161  11.728  20.694  0.00  0.00    +0.000 C 
ATOM     11  C   UNL     1      -0.423  10.605  21.530  0.00  0.00    +0.000 C 
ATOM     12  C   UNL     1       0.455   9.328  21.583  0.00  0.00    +0.000 C 
ATOM     13  C   UNL     1       1.489   9.450  22.726  0.00  0.00    +0.000 C 
ATOM     14  C   UNL     1      -0.517   8.173  21.931  0.00  0.00    +0.000 C 
ATOM     15  C   UNL     1       1.142   9.018  20.246  0.00  0.00    +0.000 A 
ATOM     16  C   UNL     1       1.827   7.783  20.077  0.00  0.00    +0.000 A 
ATOM     17  C   UNL     1       2.386   7.342  18.850  0.00  0.00    +0.000 A 
ATOM     18  C   UNL     1       2.153   8.159  17.749  0.00  0.00    +0.000 A 
ATOM     19  C   UNL     1       1.546   9.411  17.903  0.00  0.00    +0.000 A 
ATOM     20  C   UNL     1       1.089   9.891  19.152  0.00  0.00    +0.000 A 
ENDBRANCH   1  17
BRANCH   3  21
ATOM     21  C   UNL     1       5.436   4.724  15.940  0.00  0.00    +0.000 A 
ATOM     22  C   UNL     1       6.758   5.102  15.639  0.00  0.00    +0.000 A 
ATOM     23  C   UNL     1       7.303   4.853  14.373  0.00  0.00    +0.000 A 
ATOM     24  C   UNL     1       6.535   4.238  13.378  0.00  0.00    +0.000 A 
ATOM     25  C   UNL     1       5.225   3.849  13.667  0.00  0.00    +0.000 A 
ATOM     26  C   UNL     1       4.691   4.091  14.927  0.00  0.00    +0.000 A 
BRANCH  24  27
ATOM     27  C   UNL     1       7.182   3.965  12.071  0.00  0.00    +0.000 C 
ATOM     28  O   UNL     1       7.633   4.835  11.358  0.00  0.00    +0.000 OA
BRANCH  27  29
ATOM     29  O   UNL     1       7.204   2.654  11.727  0.00  0.00    +0.000 OA
ATOM     30  H   UNL     1       6.653   2.067  12.274  0.00  0.00    +0.000 HD
ENDBRANCH  27  29
ENDBRANCH  24  27
ENDBRANCH   3  21
BRANCH   6  31
ATOM     31  O   UNL     1       2.756   5.196  20.932  0.00  0.00    +0.000 OA
BRANCH  31  32
ATOM     32  C   UNL     1       1.942   4.046  21.215  0.00  0.00    +0.000 C 
BRANCH  32  33
ATOM     33  C   UNL     1       0.764   3.959  20.265  0.00  0.00    +0.000 C 
BRANCH  33  34
ATOM     34  C   UNL     1       0.850   2.699  19.423  0.00  0.00    +0.000 C 
BRANCH  34  35
ATOM     35  O   UNL     1       1.134   3.052  18.077  0.00  0.00    +0.000 OA
ATOM     36  H   UNL     1       0.504   2.565  17.519  0.00  0.00    +0.000 HD
ENDBRANCH  34  35
ENDBRANCH  33  34
ENDBRANCH  32  33
ENDBRANCH  31  32
ENDBRANCH   6  31
TORSDOF 9
ENDMDL
MODEL 2
REMARK VINA RESULT:      -8.7      0.323      1.032
REMARK  Name = 
REMARK  13 active torsions:
REMARK  status: ('A' for Active; 'I' for Inactive)
REMARK    1  A    between atoms: C_1  and  C_2
REMARK    2  A    between atoms: C_2  and  C_3
REMARK    3  A    between atoms: C_6  and  C_7
REMARK    4  A    between atoms: C_6  and  C_8
REMARK    5  A    between atoms: C_11  and  C_12
REMARK    6  A    between atoms: C_14  and  C_15
REMARK    7  A    between atoms: C_18  and  C_19
REMARK    8  A    between atoms: C_19  and  O_21
REMARK    9  A    between atoms: C_26  and  O_27
REMARK   10  A    between atoms: O_27  and  C_28
REMARK   11  A    between atoms: C_28  and  C_29
REMARK   12  A    between atoms: C_29  and  C_30
REMARK   13  A    between atoms: C_30  and  O_31
REMARK                            x       y       z     vdW  Elec       q    Type
REMARK                         _______ _______ _______ _____ _____    ______ ____
ROOT
ATOM      1  C   UNL     1       3.294   6.142  18.893  0.00  0.00    +0.000 A 
ATOM      2  C   UNL     1       4.098   5.999  17.735  0.00  0.00    +0.000 A 
ATOM      3  C   UNL     1       4.904   4.880  17.457  0.00  0.00    +0.000 A 
ATOM      4  C   UNL     1       4.959   3.880  18.418  0.00  0.00    +0.000 A 
ATOM      5  C   UNL     1       4.190   3.975  19.573  0.00  0.00    +0.000 A 
ATOM      6  C   UNL     1       3.364   5.087  19.833  0.00  0.00    +0.000 A 
ENDROOT
BRANCH   1  17
ATOM      7  C   UNL     1      -0.665  11.425  18.298  0.00  0.00    +0.000 C 
ATOM      8  C   UNL     1       0.554  11.320  19.240  0.00  0.00    +0.000 C 
ATOM      9  C   UNL     1       1.628  12.334  18.772  0.00  0.00    +0.000 C 
ATOM     10  C   UNL     1       0.167  11.759  20.674  0.00  0.00    +0.000 C 
ATOM     11  C   UNL     1      -0.438  10.653  21.518  0.00  0.00    +0.000 C 
ATOM     12  C   UNL     1       0.428   9.370  21.603  0.00  0.00    +0.000 C 
ATOM     13  C   UNL     1       1.447   9.500  22.758  0.00  0.00    +0.000 C 
ATOM     14  C   UNL     1      -0.559   8.228  21.954  0.00  0.00    +0.000 C 
ATOM     15  C   UNL     1       1.130   9.034  20.281  0.00  0.00    +0.000 A 
ATOM     16  C   UNL     1       1.807   7.790  20.140  0.00  0.00    +0.000 A 
ATOM     17  C   UNL     1       2.379   7.326  18.926  0.00  0.00    +0.000 A 
ATOM     18  C   UNL     1       2.169   8.129  17.811  0.00  0.00    +0.000 A 
ATOM     19  C   UNL     1       1.570   9.388  17.938  0.00  0.00    +0.000 A 
ATOM     20  C   UNL     1       1.100   9.891  19.173  0.00  0.00    +0.000 A 
ENDBRANCH   1  17
BRANCH   3  21
ATOM     21  C   UNL     1       5.558   4.725  16.144  0.00  0.00    +0.000 A 
ATOM     22  C   UNL     1       4.928   4.086  15.059  0.00  0.00    +0.000 A 
ATOM     23  C   UNL     1       5.550   4.026  13.805  0.00  0.00    +0.000 A 
ATOM     24  C   UNL     1       6.817   4.586  13.613  0.00  0.00    +0.000 A 
ATOM     25  C   UNL     1       7.449   5.232  14.679  0.00  0.00    +0.000 A 
ATOM     26  C   UNL     1       6.825   5.295  15.920  0.00  0.00    +0.000 A 
BRANCH  24  27
ATOM     27  C   UNL     1       7.404   4.526  12.252  0.00  0.00    +0.000 C 
ATOM     28  O   UNL     1       7.351   3.540  11.548  0.00  0.00    +0.000 OA
BRANCH  27  29
ATOM     29  O   UNL     1       8.032   5.665  11.868  0.00  0.00    +0.000 OA
ATOM     30  H   UNL     1       7.722   6.053  11.031  0.00  0.00    +0.000 HD
ENDBRANCH  27  29
ENDBRANCH  24  27
ENDBRANCH   3  21
BRANCH   6  31
ATOM     31  O   UNL     1       2.613   5.142  20.988  0.00  0.00    +0.000 OA
BRANCH  31  32
ATOM     32  C   UNL     1       1.779   3.993  21.210  0.00  0.00    +0.000 C 
BRANCH  32  33
ATOM     33  C   UNL     1       0.693   3.889  20.157  0.00  0.00    +0.000 C 
BRANCH  33  34
ATOM     34  C   UNL     1       0.866   2.625  19.336  0.00  0.00    +0.000 C 
BRANCH  34  35
ATOM     35  O   UNL     1       1.146   2.974  17.988  0.00  0.00    +0.000 OA
ATOM     36  H   UNL     1       2.083   2.766  17.832  0.00  0.00    +0.000 HD
ENDBRANCH  34  35
ENDBRANCH  33  34
ENDBRANCH  32  33
ENDBRANCH  31  32
ENDBRANCH   6  31
TORSDOF 9
ENDMDL
MODEL 3
REMARK VINA RESULT:      -8.3      0.902      1.427
REMARK  Name = 
REMARK  13 active torsions:
REMARK  status: ('A' for Active; 'I' for Inactive)
REMARK    1  A    between atoms: C_1  and  C_2
REMARK    2  A    between atoms: C_2  and  C_3
REMARK    3  A    between atoms: C_6  and  C_7
REMARK    4  A    between atoms: C_6  and  C_8
REMARK    5  A    between atoms: C_11  and  C_12
REMARK    6  A    between atoms: C_14  and  C_15
REMARK    7  A    between atoms: C_18  and  C_19
REMARK    8  A    between atoms: C_19  and  O_21
REMARK    9  A    between atoms: C_26  and  O_27
REMARK   10  A    between atoms: O_27  and  C_28
REMARK   11  A    between atoms: C_28  and  C_29
REMARK   12  A    between atoms: C_29  and  C_30
REMARK   13  A    between atoms: C_30  and  O_31
REMARK                            x       y       z     vdW  Elec       q    Type
REMARK                         _______ _______ _______ _____ _____    ______ ____
ROOT
ATOM      1  C   UNL     1       3.020   6.130  18.894  0.00  0.00    +0.000 A 
ATOM      2  C   UNL     1       3.976   6.081  17.848  0.00  0.00    +0.000 A 
ATOM      3  C   UNL     1       4.734   4.944  17.514  0.00  0.00    +0.000 A 
ATOM      4  C   UNL     1       4.575   3.817  18.308  0.00  0.00    +0.000 A 
ATOM      5  C   UNL     1       3.652   3.816  19.348  0.00  0.00    +0.000 A 
ATOM      6  C   UNL     1       2.876   4.951  19.660  0.00  0.00    +0.000 A 
ENDROOT
BRANCH   1  17
ATOM      7  C   UNL     1      -0.553  11.703  18.549  0.00  0.00    +0.000 C 
ATOM      8  C   UNL     1       0.675  11.480  19.458  0.00  0.00    +0.000 C 
ATOM      9  C   UNL     1       1.810  12.428  18.993  0.00  0.00    +0.000 C 
ATOM     10  C   UNL     1       0.353  11.902  20.913  0.00  0.00    +0.000 C 
ATOM     11  C   UNL     1      -0.312  10.818  21.739  0.00  0.00    +0.000 C 
ATOM     12  C   UNL     1       0.459   9.473  21.765  0.00  0.00    +0.000 C 
ATOM     13  C   UNL     1       1.511   9.493  22.899  0.00  0.00    +0.000 C 
ATOM     14  C   UNL     1      -0.600   8.395  22.107  0.00  0.00    +0.000 C 
ATOM     15  C   UNL     1       1.106   9.127  20.417  0.00  0.00    +0.000 A 
ATOM     16  C   UNL     1       1.686   7.843  20.224  0.00  0.00    +0.000 A 
ATOM     17  C   UNL     1       2.195   7.376  18.984  0.00  0.00    +0.000 A 
ATOM     18  C   UNL     1       2.020   8.226  17.898  0.00  0.00    +0.000 A 
ATOM     19  C   UNL     1       1.518   9.521  18.075  0.00  0.00    +0.000 A 
ATOM     20  C   UNL     1       1.113  10.019  19.336  0.00  0.00    +0.000 A 
ENDBRANCH   1  17
BRANCH   3  21
ATOM     21  C   UNL     1       5.564   4.918  16.295  0.00  0.00    +0.000 A 
ATOM     22  C   UNL     1       5.130   4.312  15.101  0.00  0.00    +0.000 A 
ATOM     23  C   UNL     1       5.913   4.374  13.941  0.00  0.00    +0.000 A 
ATOM     24  C   UNL     1       7.150   5.029  13.953  0.00  0.00    +0.000 A 
ATOM     25  C   UNL     1       7.587   5.644  15.129  0.00  0.00    +0.000 A 
ATOM     26  C   UNL     1       6.803   5.585  16.275  0.00  0.00    +0.000 A 
BRANCH  24  27
ATOM     27  C   UNL     1       7.912   5.097  12.682  0.00  0.00    +0.000 C 
ATOM     28  O   UNL     1       8.815   5.883  12.490  0.00  0.00    +0.000 OA
BRANCH  27  29
ATOM     29  O   UNL     1       7.495   4.218  11.738  0.00  0.00    +0.000 OA
ATOM     30  H   UNL     1       7.998   4.228  10.905  0.00  0.00    +0.000 HD
ENDBRANCH  27  29
ENDBRANCH  24  27
ENDBRANCH   3  21
BRANCH   6  31
ATOM     31  O   UNL     1       1.967   4.908  20.697  0.00  0.00    +0.000 OA
BRANCH  31  32
ATOM     32  C   UNL     1       0.787   4.135  20.422  0.00  0.00    +0.000 C 
BRANCH  32  33
ATOM     33  C   UNL     1       1.014   2.664  20.706  0.00  0.00    +0.000 C 
BRANCH  33  34
ATOM     34  C   UNL     1       1.623   2.475  22.084  0.00  0.00    +0.000 C 
BRANCH  34  35
ATOM     35  O   UNL     1       3.017   2.238  21.953  0.00  0.00    +0.000 OA
ATOM     36  H   UNL     1       3.469   2.918  22.482  0.00  0.00    +0.000 HD
ENDBRANCH  34  35
ENDBRANCH  33  34
ENDBRANCH  32  33
ENDBRANCH  31  32
ENDBRANCH   6  31
TORSDOF 9
ENDMDL
MODEL 4
REMARK VINA RESULT:      -7.7      4.559      8.317
REMARK  Name = 
REMARK  13 active torsions:
REMARK  status: ('A' for Active; 'I' for Inactive)
REMARK    1  A    between atoms: C_1  and  C_2
REMARK    2  A    between atoms: C_2  and  C_3
REMARK    3  A    between atoms: C_6  and  C_7
REMARK    4  A    between atoms: C_6  and  C_8
REMARK    5  A    between atoms: C_11  and  C_12
REMARK    6  A    between atoms: C_14  and  C_15
REMARK    7  A    between atoms: C_18  and  C_19
REMARK    8  A    between atoms: C_19  and  O_21
REMARK    9  A    between atoms: C_26  and  O_27
REMARK   10  A    between atoms: O_27  and  C_28
REMARK   11  A    between atoms: C_28  and  C_29
REMARK   12  A    between atoms: C_29  and  C_30
REMARK   13  A    between atoms: C_30  and  O_31
REMARK                            x       y       z     vdW  Elec       q    Type
REMARK                         _______ _______ _______ _____ _____    ______ ____
ROOT
ATOM      1  C   UNL     1      -0.865  11.877  18.726  0.00  0.00    +0.000 A 
ATOM      2  C   UNL     1      -0.260  10.595  18.709  0.00  0.00    +0.000 A 
ATOM      3  C   UNL     1       1.121  10.367  18.561  0.00  0.00    +0.000 A 
ATOM      4  C   UNL     1       1.930  11.476  18.354  0.00  0.00    +0.000 A 
ATOM      5  C   UNL     1       1.383  12.754  18.358  0.00  0.00    +0.000 A 
ATOM      6  C   UNL     1       0.002  12.977  18.534  0.00  0.00    +0.000 A 
ENDROOT
BRANCH   1  17
ATOM      7  C   UNL     1      -7.430  11.642  19.617  0.00  0.00    +0.000 C 
ATOM      8  C   UNL     1      -6.582  12.930  19.535  0.00  0.00    +0.000 C 
ATOM      9  C   UNL     1      -6.994  13.712  18.263  0.00  0.00    +0.000 C 
ATOM     10  C   UNL     1      -6.910  13.869  20.723  0.00  0.00    +0.000 C 
ATOM     11  C   UNL     1      -6.127  13.568  21.986  0.00  0.00    +0.000 C 
ATOM     12  C   UNL     1      -4.589  13.530  21.788  0.00  0.00    +0.000 C 
ATOM     13  C   UNL     1      -4.005  14.954  21.935  0.00  0.00    +0.000 C 
ATOM     14  C   UNL     1      -4.045  12.661  22.949  0.00  0.00    +0.000 C 
ATOM     15  C   UNL     1      -4.174  12.896  20.453  0.00  0.00    +0.000 A 
ATOM     16  C   UNL     1      -2.801  12.616  20.205  0.00  0.00    +0.000 A 
ATOM     17  C   UNL     1      -2.323  11.919  19.064  0.00  0.00    +0.000 A 
ATOM     18  C   UNL     1      -3.296  11.425  18.203  0.00  0.00    +0.000 A 
ATOM     19  C   UNL     1      -4.646  11.749  18.387  0.00  0.00    +0.000 A 
ATOM     20  C   UNL     1      -5.104  12.537  19.469  0.00  0.00    +0.000 A 
ENDBRANCH   1  17
BRANCH   3  21
ATOM     21  C   UNL     1       1.691   9.020  18.747  0.00  0.00    +0.000 A 
ATOM     22  C   UNL     1       2.475   8.392  17.760  0.00  0.00    +0.000 A 
ATOM     23  C   UNL     1       3.064   7.143  18.002  0.00  0.00    +0.000 A 
ATOM     24  C   UNL     1       2.868   6.491  19.224  0.00  0.00    +0.000 A 
ATOM     25  C   UNL     1       2.101   7.109  20.215  0.00  0.00    +0.000 A 
ATOM     26  C   UNL     1       1.524   8.350  19.973  0.00  0.00    +0.000 A 
BRANCH  24  27
ATOM     27  C   UNL     1       3.553   5.192  19.435  0.00  0.00    +0.000 C 
ATOM     28  O   UNL     1       2.960   4.144  19.580  0.00  0.00    +0.000 OA
BRANCH  27  29
ATOM     29  O   UNL     1       4.905   5.277  19.477  0.00  0.00    +0.000 OA
ATOM     30  H   UNL     1       5.314   5.032  20.325  0.00  0.00    +0.000 HD
ENDBRANCH  27  29
ENDBRANCH  24  27
ENDBRANCH   3  21
BRANCH   6  31
ATOM     31  O   UNL     1      -0.501  14.261  18.538  0.00  0.00    +0.000 OA
BRANCH  31  32
ATOM     32  C   UNL     1       0.386  15.246  19.093  0.00  0.00    +0.000 C 
BRANCH  32  33
ATOM     33  C   UNL     1       0.152  16.608  18.472  0.00  0.00    +0.000 C 
BRANCH  33  34
ATOM     34  C   UNL     1      -0.931  17.359  19.225  0.00  0.00    +0.000 C 
BRANCH  34  35
ATOM     35  O   UNL     1      -2.063  16.517  19.385  0.00  0.00    +0.000 OA
ATOM     36  H   UNL     1      -2.830  17.099  19.520  0.00  0.00    +0.000 HD
ENDBRANCH  34  35
ENDBRANCH  33  34
ENDBRANCH  32  33
ENDBRANCH  31  32
ENDBRANCH   6  31
TORSDOF 9
ENDMDL
MODEL 5
REMARK VINA RESULT:      -7.6      4.022      7.730
REMARK  Name = 
REMARK  13 active torsions:
REMARK  status: ('A' for Active; 'I' for Inactive)
REMARK    1  A    between atoms: C_1  and  C_2
REMARK    2  A    between atoms: C_2  and  C_3
REMARK    3  A    between atoms: C_6  and  C_7
REMARK    4  A    between atoms: C_6  and  C_8
REMARK    5  A    between atoms: C_11  and  C_12
REMARK    6  A    between atoms: C_14  and  C_15
REMARK    7  A    between atoms: C_18  and  C_19
REMARK    8  A    between atoms: C_19  and  O_21
REMARK    9  A    between atoms: C_26  and  O_27
REMARK   10  A    between atoms: O_27  and  C_28
REMARK   11  A    between atoms: C_28  and  C_29
REMARK   12  A    between atoms: C_29  and  C_30
REMARK   13  A    between atoms: C_30  and  O_31
REMARK                            x       y       z     vdW  Elec       q    Type
REMARK                         _______ _______ _______ _____ _____    ______ ____
ROOT
ATOM      1  C   UNL     1      -0.638  11.579  18.576  0.00  0.00    +0.000 A 
ATOM      2  C   UNL     1       0.001  10.314  18.596  0.00  0.00    +0.000 A 
ATOM      3  C   UNL     1       1.393  10.122  18.519  0.00  0.00    +0.000 A 
ATOM      4  C   UNL     1       2.182  11.250  18.346  0.00  0.00    +0.000 A 
ATOM      5  C   UNL     1       1.602  12.514  18.317  0.00  0.00    +0.000 A 
ATOM      6  C   UNL     1       0.209  12.701  18.422  0.00  0.00    +0.000 A 
ENDROOT
BRANCH   1  17
ATOM      7  C   UNL     1      -7.219  11.096  19.202  0.00  0.00    +0.000 C 
ATOM      8  C   UNL     1      -6.434  12.407  18.977  0.00  0.00    +0.000 C 
ATOM      9  C   UNL     1      -6.819  12.980  17.590  0.00  0.00    +0.000 C 
ATOM     10  C   UNL     1      -6.870  13.480  20.005  0.00  0.00    +0.000 C 
ATOM     11  C   UNL     1      -6.138  13.403  21.331  0.00  0.00    +0.000 C 
ATOM     12  C   UNL     1      -4.593  13.425  21.208  0.00  0.00    +0.000 C 
ATOM     13  C   UNL     1      -4.090  14.886  21.178  0.00  0.00    +0.000 C 
ATOM     14  C   UNL     1      -4.066  12.757  22.503  0.00  0.00    +0.000 C 
ATOM     15  C   UNL     1      -4.078  12.637  19.996  0.00  0.00    +0.000 A 
ATOM     16  C   UNL     1      -2.682  12.404  19.850  0.00  0.00    +0.000 A 
ATOM     17  C   UNL     1      -2.111  11.585  18.841  0.00  0.00    +0.000 A 
ATOM     18  C   UNL     1      -3.013  10.922  18.016  0.00  0.00    +0.000 A 
ATOM     19  C   UNL     1      -4.385  11.190  18.093  0.00  0.00    +0.000 A 
ATOM     20  C   UNL     1      -4.937  12.093  19.032  0.00  0.00    +0.000 A 
ENDBRANCH   1  17
BRANCH   3  21
ATOM     21  C   UNL     1       1.988   8.790  18.740  0.00  0.00    +0.000 A 
ATOM     22  C   UNL     1       1.715   8.025  19.889  0.00  0.00    +0.000 A 
ATOM     23  C   UNL     1       2.236   6.732  20.029  0.00  0.00    +0.000 A 
ATOM     24  C   UNL     1       3.052   6.185  19.033  0.00  0.00    +0.000 A 
ATOM     25  C   UNL     1       3.323   6.930  17.882  0.00  0.00    +0.000 A 
ATOM     26  C   UNL     1       2.797   8.210  17.746  0.00  0.00    +0.000 A 
BRANCH  24  27
ATOM     27  C   UNL     1       3.539   4.796  19.220  0.00  0.00    +0.000 C 
ATOM     28  O   UNL     1       2.928   3.956  19.845  0.00  0.00    +0.000 OA
BRANCH  27  29
ATOM     29  O   UNL     1       4.746   4.550  18.653  0.00  0.00    +0.000 OA
ATOM     30  H   UNL     1       5.084   5.249  18.066  0.00  0.00    +0.000 HD
ENDBRANCH  27  29
ENDBRANCH  24  27
ENDBRANCH   3  21
BRANCH   6  31
ATOM     31  O   UNL     1      -0.327  13.971  18.393  0.00  0.00    +0.000 OA
BRANCH  31  32
ATOM     32  C   UNL     1       0.357  14.924  19.223  0.00  0.00    +0.000 C 
BRANCH  32  33
ATOM     33  C   UNL     1      -0.166  14.892  20.645  0.00  0.00    +0.000 C 
BRANCH  33  34
ATOM     34  C   UNL     1       0.844  14.238  21.571  0.00  0.00    +0.000 C 
BRANCH  34  35
ATOM     35  O   UNL     1       0.342  12.982  22.003  0.00  0.00    +0.000 OA
ATOM     36  H   UNL     1      -0.346  13.166  22.664  0.00  0.00    +0.000 HD
ENDBRANCH  34  35
ENDBRANCH  33  34
ENDBRANCH  32  33
ENDBRANCH  31  32
ENDBRANCH   6  31
TORSDOF 9
ENDMDL
MODEL 6
REMARK VINA RESULT:      -7.6      4.516      8.267
REMARK  Name = 
REMARK  13 active torsions:
REMARK  status: ('A' for Active; 'I' for Inactive)
REMARK    1  A    between atoms: C_1  and  C_2
REMARK    2  A    between atoms: C_2  and  C_3
REMARK    3  A    between atoms: C_6  and  C_7
REMARK    4  A    between atoms: C_6  and  C_8
REMARK    5  A    between atoms: C_11  and  C_12
REMARK    6  A    between atoms: C_14  and  C_15
REMARK    7  A    between atoms: C_18  and  C_19
REMARK    8  A    between atoms: C_19  and  O_21
REMARK    9  A    between atoms: C_26  and  O_27
REMARK   10  A    between atoms: O_27  and  C_28
REMARK   11  A    between atoms: C_28  and  C_29
REMARK   12  A    between atoms: C_29  and  C_30
REMARK   13  A    between atoms: C_30  and  O_31
REMARK                            x       y       z     vdW  Elec       q    Type
REMARK                         _______ _______ _______ _____ _____    ______ ____
ROOT
ATOM      1  C   UNL     1      -0.792  11.786  18.671  0.00  0.00    +0.000 A 
ATOM      2  C   UNL     1      -0.170  10.513  18.713  0.00  0.00    +0.000 A 
ATOM      3  C   UNL     1       1.215  10.298  18.586  0.00  0.00    +0.000 A 
ATOM      4  C   UNL     1       2.011  11.408  18.338  0.00  0.00    +0.000 A 
ATOM      5  C   UNL     1       1.447  12.678  18.285  0.00  0.00    +0.000 A 
ATOM      6  C   UNL     1       0.062  12.888  18.440  0.00  0.00    +0.000 A 
ENDROOT
BRANCH   1  17
ATOM      7  C   UNL     1      -7.359  11.484  19.532  0.00  0.00    +0.000 C 
ATOM      8  C   UNL     1      -6.534  12.780  19.370  0.00  0.00    +0.000 C 
ATOM      9  C   UNL     1      -6.951  13.467  18.045  0.00  0.00    +0.000 C 
ATOM     10  C   UNL     1      -6.890  13.789  20.489  0.00  0.00    +0.000 C 
ATOM     11  C   UNL     1      -6.111  13.589  21.775  0.00  0.00    +0.000 C 
ATOM     12  C   UNL     1      -4.572  13.567  21.590  0.00  0.00    +0.000 C 
ATOM     13  C   UNL     1      -4.016  15.009  21.646  0.00  0.00    +0.000 C 
ATOM     14  C   UNL     1      -4.020  12.789  22.811  0.00  0.00    +0.000 C 
ATOM     15  C   UNL     1      -4.133  12.854  20.304  0.00  0.00    +0.000 A 
ATOM     16  C   UNL     1      -2.754  12.584  20.084  0.00  0.00    +0.000 A 
ATOM     17  C   UNL     1      -2.253  11.823  18.996  0.00  0.00    +0.000 A 
ATOM     18  C   UNL     1      -3.210  11.254  18.164  0.00  0.00    +0.000 A 
ATOM     19  C   UNL     1      -4.567  11.563  18.316  0.00  0.00    +0.000 A 
ATOM     20  C   UNL     1      -5.048  12.412  19.339  0.00  0.00    +0.000 A 
ENDBRANCH   1  17
BRANCH   3  21
ATOM     21  C   UNL     1       1.801   8.967  18.832  0.00  0.00    +0.000 A 
ATOM     22  C   UNL     1       1.553   8.242  20.013  0.00  0.00    +0.000 A 
ATOM     23  C   UNL     1       2.065   6.948  20.179  0.00  0.00    +0.000 A 
ATOM     24  C   UNL     1       2.846   6.360  19.178  0.00  0.00    +0.000 A 
ATOM     25  C   UNL     1       3.091   7.066  17.997  0.00  0.00    +0.000 A 
ATOM     26  C   UNL     1       2.576   8.346  17.835  0.00  0.00    +0.000 A 
BRANCH  24  27
ATOM     27  C   UNL     1       3.323   4.972  19.396  0.00  0.00    +0.000 C 
ATOM     28  O   UNL     1       4.074   4.400  18.635  0.00  0.00    +0.000 OA
BRANCH  27  29
ATOM     29  O   UNL     1       2.825   4.383  20.511  0.00  0.00    +0.000 OA
ATOM     30  H   UNL     1       1.903   4.078  20.447  0.00  0.00    +0.000 HD
ENDBRANCH  27  29
ENDBRANCH  24  27
ENDBRANCH   3  21
BRANCH   6  31
ATOM     31  O   UNL     1      -0.459  14.165  18.386  0.00  0.00    +0.000 OA
BRANCH  31  32
ATOM     32  C   UNL     1       0.069  15.065  19.374  0.00  0.00    +0.000 C 
BRANCH  32  33
ATOM     33  C   UNL     1       0.735  16.263  18.727  0.00  0.00    +0.000 C 
BRANCH  33  34
ATOM     34  C   UNL     1      -0.286  17.345  18.430  0.00  0.00    +0.000 C 
BRANCH  34  35
ATOM     35  O   UNL     1      -1.573  16.903  18.837  0.00  0.00    +0.000 OA
ATOM     36  H   UNL     1      -1.912  16.333  18.126  0.00  0.00    +0.000 HD
ENDBRANCH  34  35
ENDBRANCH  33  34
ENDBRANCH  32  33
ENDBRANCH  31  32
ENDBRANCH   6  31
TORSDOF 9
ENDMDL
MODEL 7
REMARK VINA RESULT:      -7.6      4.194      7.925
REMARK  Name = 
REMARK  13 active torsions:
REMARK  status: ('A' for Active; 'I' for Inactive)
REMARK    1  A    between atoms: C_1  and  C_2
REMARK    2  A    between atoms: C_2  and  C_3
REMARK    3  A    between atoms: C_6  and  C_7
REMARK    4  A    between atoms: C_6  and  C_8
REMARK    5  A    between atoms: C_11  and  C_12
REMARK    6  A    between atoms: C_14  and  C_15
REMARK    7  A    between atoms: C_18  and  C_19
REMARK    8  A    between atoms: C_19  and  O_21
REMARK    9  A    between atoms: C_26  and  O_27
REMARK   10  A    between atoms: O_27  and  C_28
REMARK   11  A    between atoms: C_28  and  C_29
REMARK   12  A    between atoms: C_29  and  C_30
REMARK   13  A    between atoms: C_30  and  O_31
REMARK                            x       y       z     vdW  Elec       q    Type
REMARK                         _______ _______ _______ _____ _____    ______ ____
ROOT
ATOM      1  C   UNL     1      -0.669  11.833  18.875  0.00  0.00    +0.000 A 
ATOM      2  C   UNL     1      -0.098  10.536  18.842  0.00  0.00    +0.000 A 
ATOM      3  C   UNL     1       1.257  10.269  18.569  0.00  0.00    +0.000 A 
ATOM      4  C   UNL     1       2.067  11.349  18.249  0.00  0.00    +0.000 A 
ATOM      5  C   UNL     1       1.552  12.641  18.265  0.00  0.00    +0.000 A 
ATOM      6  C   UNL     1       0.200  12.904  18.565  0.00  0.00    +0.000 A 
ENDROOT
BRANCH   1  17
ATOM      7  C   UNL     1      -7.133  11.891  20.343  0.00  0.00    +0.000 C 
ATOM      8  C   UNL     1      -6.207  13.127  20.324  0.00  0.00    +0.000 C 
ATOM      9  C   UNL     1      -6.671  14.074  19.189  0.00  0.00    +0.000 C 
ATOM     10  C   UNL     1      -6.366  13.939  21.633  0.00  0.00    +0.000 C 
ATOM     11  C   UNL     1      -5.500  13.448  22.777  0.00  0.00    +0.000 C 
ATOM     12  C   UNL     1      -3.992  13.341  22.434  0.00  0.00    +0.000 C 
ATOM     13  C   UNL     1      -3.299  14.700  22.681  0.00  0.00    +0.000 C 
ATOM     14  C   UNL     1      -3.412  12.312  23.437  0.00  0.00    +0.000 C 
ATOM     15  C   UNL     1      -3.737  12.842  21.005  0.00  0.00    +0.000 A 
ATOM     16  C   UNL     1      -2.415  12.510  20.600  0.00  0.00    +0.000 A 
ATOM     17  C   UNL     1      -2.086  11.924  19.350  0.00  0.00    +0.000 A 
ATOM     18  C   UNL     1      -3.162  11.592  18.535  0.00  0.00    +0.000 A 
ATOM     19  C   UNL     1      -4.465  11.973  18.878  0.00  0.00    +0.000 A 
ATOM     20  C   UNL     1      -4.771  12.656  20.077  0.00  0.00    +0.000 A 
ENDBRANCH   1  17
BRANCH   3  21
ATOM     21  C   UNL     1       1.811   8.913  18.742  0.00  0.00    +0.000 A 
ATOM     22  C   UNL     1       2.617   8.299  17.765  0.00  0.00    +0.000 A 
ATOM     23  C   UNL     1       3.189   7.041  17.998  0.00  0.00    +0.000 A 
ATOM     24  C   UNL     1       2.955   6.366  19.200  0.00  0.00    +0.000 A 
ATOM     25  C   UNL     1       2.165   6.969  20.182  0.00  0.00    +0.000 A 
ATOM     26  C   UNL     1       1.605   8.220  19.950  0.00  0.00    +0.000 A 
BRANCH  24  27
ATOM     27  C   UNL     1       3.624   5.056  19.402  0.00  0.00    +0.000 C 
ATOM     28  O   UNL     1       3.019   4.029  19.624  0.00  0.00    +0.000 OA
BRANCH  27  29
ATOM     29  O   UNL     1       4.977   5.109  19.344  0.00  0.00    +0.000 OA
ATOM     30  H   UNL     1       5.346   5.827  18.800  0.00  0.00    +0.000 HD
ENDBRANCH  27  29
ENDBRANCH  24  27
ENDBRANCH   3  21
BRANCH   6  31
ATOM     31  O   UNL     1      -0.271  14.200  18.576  0.00  0.00    +0.000 OA
BRANCH  31  32
ATOM     32  C   UNL     1       0.493  15.104  19.390  0.00  0.00    +0.000 C 
BRANCH  32  33
ATOM     33  C   UNL     1      -0.131  15.272  20.761  0.00  0.00    +0.000 C 
BRANCH  33  34
ATOM     34  C   UNL     1       0.740  14.633  21.826  0.00  0.00    +0.000 C 
BRANCH  34  35
ATOM     35  O   UNL     1       0.504  15.270  23.073  0.00  0.00    +0.000 OA
ATOM     36  H   UNL     1       1.175  14.936  23.692  0.00  0.00    +0.000 HD
ENDBRANCH  34  35
ENDBRANCH  33  34
ENDBRANCH  32  33
ENDBRANCH  31  32
ENDBRANCH   6  31
TORSDOF 9
ENDMDL
MODEL 8
REMARK VINA RESULT:      -7.6      4.842      8.664
REMARK  Name = 
REMARK  13 active torsions:
REMARK  status: ('A' for Active; 'I' for Inactive)
REMARK    1  A    between atoms: C_1  and  C_2
REMARK    2  A    between atoms: C_2  and  C_3
REMARK    3  A    between atoms: C_6  and  C_7
REMARK    4  A    between atoms: C_6  and  C_8
REMARK    5  A    between atoms: C_11  and  C_12
REMARK    6  A    between atoms: C_14  and  C_15
REMARK    7  A    between atoms: C_18  and  C_19
REMARK    8  A    between atoms: C_19  and  O_21
REMARK    9  A    between atoms: C_26  and  O_27
REMARK   10  A    between atoms: O_27  and  C_28
REMARK   11  A    between atoms: C_28  and  C_29
REMARK   12  A    between atoms: C_29  and  C_30
REMARK   13  A    between atoms: C_30  and  O_31
REMARK                            x       y       z     vdW  Elec       q    Type
REMARK                         _______ _______ _______ _____ _____    ______ ____
ROOT
ATOM      1  C   UNL     1      -1.118  12.284  19.374  0.00  0.00    +0.000 A 
ATOM      2  C   UNL     1      -0.496  11.014  19.275  0.00  0.00    +0.000 A 
ATOM      3  C   UNL     1       0.859  10.813  18.954  0.00  0.00    +0.000 A 
ATOM      4  C   UNL     1       1.615  11.936  18.652  0.00  0.00    +0.000 A 
ATOM      5  C   UNL     1       1.049  13.205  18.731  0.00  0.00    +0.000 A 
ATOM      6  C   UNL     1      -0.302  13.401  19.080  0.00  0.00    +0.000 A 
ENDROOT
BRANCH   1  17
ATOM      7  C   UNL     1      -7.538  12.056  21.012  0.00  0.00    +0.000 C 
ATOM      8  C   UNL     1      -6.641  13.312  21.072  0.00  0.00    +0.000 C 
ATOM      9  C   UNL     1      -7.159  14.337  20.032  0.00  0.00    +0.000 C 
ATOM     10  C   UNL     1      -6.782  14.009  22.447  0.00  0.00    +0.000 C 
ATOM     11  C   UNL     1      -5.872  13.448  23.523  0.00  0.00    +0.000 C 
ATOM     12  C   UNL     1      -4.372  13.408  23.132  0.00  0.00    +0.000 C 
ATOM     13  C   UNL     1      -3.705  14.760  23.473  0.00  0.00    +0.000 C 
ATOM     14  C   UNL     1      -3.740  12.315  24.030  0.00  0.00    +0.000 C 
ATOM     15  C   UNL     1      -4.147  13.035  21.660  0.00  0.00    +0.000 A 
ATOM     16  C   UNL     1      -2.829  12.772  21.195  0.00  0.00    +0.000 A 
ATOM     17  C   UNL     1      -2.523  12.299  19.892  0.00  0.00    +0.000 A 
ATOM     18  C   UNL     1      -3.613  12.008  19.081  0.00  0.00    +0.000 A 
ATOM     19  C   UNL     1      -4.914  12.326  19.488  0.00  0.00    +0.000 A 
ATOM     20  C   UNL     1      -5.203  12.900  20.749  0.00  0.00    +0.000 A 
ENDBRANCH   1  17
BRANCH   3  21
ATOM     21  C   UNL     1       1.472   9.476  19.060  0.00  0.00    +0.000 A 
ATOM     22  C   UNL     1       1.359   8.685  20.220  0.00  0.00    +0.000 A 
ATOM     23  C   UNL     1       1.889   7.389  20.256  0.00  0.00    +0.000 A 
ATOM     24  C   UNL     1       2.555   6.863  19.144  0.00  0.00    +0.000 A 
ATOM     25  C   UNL     1       2.664   7.633  17.984  0.00  0.00    +0.000 A 
ATOM     26  C   UNL     1       2.131   8.916  17.950  0.00  0.00    +0.000 A 
BRANCH  24  27
ATOM     27  C   UNL     1       3.056   5.469  19.231  0.00  0.00    +0.000 C 
ATOM     28  O   UNL     1       2.327   4.499  19.242  0.00  0.00    +0.000 OA
BRANCH  27  29
ATOM     29  O   UNL     1       4.405   5.369  19.324  0.00  0.00    +0.000 OA
ATOM     30  H   UNL     1       4.903   6.165  19.068  0.00  0.00    +0.000 HD
ENDBRANCH  27  29
ENDBRANCH  24  27
ENDBRANCH   3  21
BRANCH   6  31
ATOM     31  O   UNL     1      -0.824  14.675  19.152  0.00  0.00    +0.000 OA
BRANCH  31  32
ATOM     32  C   UNL     1       0.127  15.723  18.900  0.00  0.00    +0.000 C 
BRANCH  32  33
ATOM     33  C   UNL     1      -0.509  16.872  18.144  0.00  0.00    +0.000 C 
BRANCH  33  34
ATOM     34  C   UNL     1      -1.360  17.717  19.075  0.00  0.00    +0.000 C 
BRANCH  34  35
ATOM     35  O   UNL     1      -2.646  17.128  19.201  0.00  0.00    +0.000 OA
ATOM     36  H   UNL     1      -3.215  17.785  19.637  0.00  0.00    +0.000 HD
ENDBRANCH  34  35
ENDBRANCH  33  34
ENDBRANCH  32  33
ENDBRANCH  31  32
ENDBRANCH   6  31
TORSDOF 9
ENDMDL
MODEL 9
REMARK VINA RESULT:      -7.5      4.717      8.491
REMARK  Name = 
REMARK  13 active torsions:
REMARK  status: ('A' for Active; 'I' for Inactive)
REMARK    1  A    between atoms: C_1  and  C_2
REMARK    2  A    between atoms: C_2  and  C_3
REMARK    3  A    between atoms: C_6  and  C_7
REMARK    4  A    between atoms: C_6  and  C_8
REMARK    5  A    between atoms: C_11  and  C_12
REMARK    6  A    between atoms: C_14  and  C_15
REMARK    7  A    between atoms: C_18  and  C_19
REMARK    8  A    between atoms: C_19  and  O_21
REMARK    9  A    between atoms: C_26  and  O_27
REMARK   10  A    between atoms: O_27  and  C_28
REMARK   11  A    between atoms: C_28  and  C_29
REMARK   12  A    between atoms: C_29  and  C_30
REMARK   13  A    between atoms: C_30  and  O_31
REMARK                            x       y       z     vdW  Elec       q    Type
REMARK                         _______ _______ _______ _____ _____    ______ ____
ROOT
ATOM      1  C   UNL     1      -1.064  12.107  19.223  0.00  0.00    +0.000 A 
ATOM      2  C   UNL     1      -0.474  10.819  19.170  0.00  0.00    +0.000 A 
ATOM      3  C   UNL     1       0.874  10.573  18.849  0.00  0.00    +0.000 A 
ATOM      4  C   UNL     1       1.655  11.665  18.500  0.00  0.00    +0.000 A 
ATOM      5  C   UNL     1       1.121  12.949  18.535  0.00  0.00    +0.000 A 
ATOM      6  C   UNL     1      -0.223  13.191  18.883  0.00  0.00    +0.000 A 
ENDROOT
BRANCH   1  17
ATOM      7  C   UNL     1      -7.478  12.107  20.900  0.00  0.00    +0.000 C 
ATOM      8  C   UNL     1      -6.545  13.337  20.923  0.00  0.00    +0.000 C 
ATOM      9  C   UNL     1      -7.040  14.350  19.860  0.00  0.00    +0.000 C 
ATOM     10  C   UNL     1      -6.657  14.074  22.280  0.00  0.00    +0.000 C 
ATOM     11  C   UNL     1      -5.758  13.514  23.366  0.00  0.00    +0.000 C 
ATOM     12  C   UNL     1      -4.262  13.420  22.968  0.00  0.00    +0.000 C 
ATOM     13  C   UNL     1      -3.554  14.760  23.271  0.00  0.00    +0.000 C 
ATOM     14  C   UNL     1      -3.657  12.333  23.891  0.00  0.00    +0.000 C 
ATOM     15  C   UNL     1      -4.057  13.004  21.505  0.00  0.00    +0.000 A 
ATOM     16  C   UNL     1      -2.750  12.691  21.040  0.00  0.00    +0.000 A 
ATOM     17  C   UNL     1      -2.465  12.176  19.748  0.00  0.00    +0.000 A 
ATOM     18  C   UNL     1      -3.568  11.896  18.950  0.00  0.00    +0.000 A 
ATOM     19  C   UNL     1      -4.857  12.262  19.356  0.00  0.00    +0.000 A 
ATOM     20  C   UNL     1      -5.121  12.876  20.603  0.00  0.00    +0.000 A 
ENDBRANCH   1  17
BRANCH   3  21
ATOM     21  C   UNL     1       1.455   9.226  19.003  0.00  0.00    +0.000 A 
ATOM     22  C   UNL     1       2.202   8.607  17.982  0.00  0.00    +0.000 A 
ATOM     23  C   UNL     1       2.803   7.359  18.192  0.00  0.00    +0.000 A 
ATOM     24  C   UNL     1       2.658   6.698  19.416  0.00  0.00    +0.000 A 
ATOM     25  C   UNL     1       1.928   7.306  20.441  0.00  0.00    +0.000 A 
ATOM     26  C   UNL     1       1.339   8.547  20.230  0.00  0.00    +0.000 A 
BRANCH  24  27
ATOM     27  C   UNL     1       3.355   5.400  19.590  0.00  0.00    +0.000 C 
ATOM     28  O   UNL     1       4.514   5.220  19.283  0.00  0.00    +0.000 OA
BRANCH  27  29
ATOM     29  O   UNL     1       2.574   4.416  20.101  0.00  0.00    +0.000 OA
ATOM     30  H   UNL     1       1.944   4.014  19.478  0.00  0.00    +0.000 HD
ENDBRANCH  27  29
ENDBRANCH  24  27
ENDBRANCH   3  21
BRANCH   6  31
ATOM     31  O   UNL     1      -0.714  14.480  18.910  0.00  0.00    +0.000 OA
BRANCH  31  32
ATOM     32  C   UNL     1      -0.076  15.339  19.869  0.00  0.00    +0.000 C 
BRANCH  32  33
ATOM     33  C   UNL     1      -1.095  16.024  20.758  0.00  0.00    +0.000 C 
BRANCH  33  34
ATOM     34  C   UNL     1      -1.611  17.291  20.100  0.00  0.00    +0.000 C 
BRANCH  34  35
ATOM     35  O   UNL     1      -1.573  17.137  18.689  0.00  0.00    +0.000 OA
ATOM     36  H   UNL     1      -0.896  17.752  18.357  0.00  0.00    +0.000 HD
ENDBRANCH  34  35
ENDBRANCH  33  34
ENDBRANCH  32  33
ENDBRANCH  31  32
ENDBRANCH   6  31
TORSDOF 9
ENDMDL
