MODEL 1
REMARK VINA RESULT:      -7.4      0.000      0.000
REMARK  Name = 
REMARK  8 active torsions:
REMARK  status: ('A' for Active; 'I' for Inactive)
REMARK    1  A    between atoms: C_1  and  O_2
REMARK    2  A    between atoms: O_2  and  C_3
REMARK    3  A    between atoms: C_3  and  C_4
REMARK    4  A    between atoms: C_7  and  C_8
REMARK    5  A    between atoms: C_8  and  N_9
REMARK    6  A    between atoms: C_12  and  N_13
REMARK    7  A    between atoms: C_17  and  N_18
REMARK    8  A    between atoms: C_19  and  C_21
REMARK                            x       y       z     vdW  Elec       q    Type
REMARK                         _______ _______ _______ _____ _____    ______ ____
ROOT
ATOM      1  N   UNL     1       4.467   4.721  16.686  0.00  0.00    +0.000 NA
ATOM      2  C   UNL     1       3.760   3.450  16.854  0.00  0.00    +0.000 C 
ATOM      3  C   UNL     1       2.247   3.620  17.019  0.00  0.00    +0.000 C 
ATOM      4  C   UNL     1       1.875   4.625  18.127  0.00  0.00    +0.000 C 
ATOM      5  C   UNL     1       2.608   5.944  17.852  0.00  0.00    +0.000 C 
ATOM      6  C   UNL     1       4.111   5.772  17.630  0.00  0.00    +0.000 C 
ENDROOT
BRANCH   4   7
ATOM      7  N   UNL     1       2.026   4.128  19.498  0.00  0.00    +0.000 N 
ATOM      8  N   UNL     1       1.805   2.820  19.748  0.00  0.00    +0.000 NA
ATOM      9  C   UNL     1       1.964   2.693  21.061  0.00  0.00    +0.000 A 
ATOM     10  C   UNL     1       2.251   3.916  21.679  0.00  0.00    +0.000 A 
ATOM     11  C   UNL     1       2.249   4.851  20.665  0.00  0.00    +0.000 A 
BRANCH  11  12
ATOM     12  N   UNL     1       2.380   6.233  20.822  0.00  0.00    +0.000 N 
ATOM     13  C   UNL     1       1.235   7.122  20.923  0.00  0.00    +0.000 C 
ATOM     14  O   UNL     1       0.101   6.682  20.993  0.00  0.00    +0.000 OA
ATOM     15  H   UNL     1       3.313   6.621  20.853  0.00  0.00    +0.000 HD
BRANCH  13  16
ATOM     16  C   UNL     1       1.562   8.589  20.909  0.00  0.00    +0.000 C 
ATOM     17  C   UNL     1       0.710   9.416  19.964  0.00  0.00    +0.000 C 
ATOM     18  C   UNL     1       0.834  10.796  20.570  0.00  0.00    +0.000 C 
ATOM     19  O   UNL     1       0.912  10.595  21.988  0.00  0.00    +0.000 OA
ATOM     20  C   UNL     1       1.240   9.227  22.241  0.00  0.00    +0.000 C 
ENDBRANCH  13  16
ENDBRANCH  11  12
ENDBRANCH   4   7
BRANCH   1  21
ATOM     21  C   UNL     1       5.939   4.521  16.622  0.00  0.00    +0.000 C 
BRANCH  21  25
ATOM     22  C   UNL     1       7.724   7.436  17.826  0.00  0.00    +0.000 A 
ATOM     23  C   UNL     1       8.116   6.585  18.838  0.00  0.00    +0.000 A 
ATOM     24  C   UNL     1       7.505   5.339  18.577  0.00  0.00    +0.000 A 
ATOM     25  C   UNL     1       6.787   5.484  17.401  0.00  0.00    +0.000 A 
ATOM     26  O   UNL     1       6.935   6.762  16.935  0.00  0.00    +0.000 OA
BRANCH  22  27
ATOM     27  C   UNL     1       7.953   8.884  17.593  0.00  0.00    +0.000 C 
BRANCH  27  29
ATOM     28  C   UNL     1       9.214  10.679  18.444  0.00  0.00    +0.000 C 
ATOM     29  O   UNL     1       8.670   9.394  18.716  0.00  0.00    +0.000 OA
ENDBRANCH  27  29
ENDBRANCH  22  27
ENDBRANCH  21  25
ENDBRANCH   1  21
TORSDOF 7
ENDMDL
MODEL 2
REMARK VINA RESULT:      -7.0      2.506      7.816
REMARK  Name = 
REMARK  8 active torsions:
REMARK  status: ('A' for Active; 'I' for Inactive)
REMARK    1  A    between atoms: C_1  and  O_2
REMARK    2  A    between atoms: O_2  and  C_3
REMARK    3  A    between atoms: C_3  and  C_4
REMARK    4  A    between atoms: C_7  and  C_8
REMARK    5  A    between atoms: C_8  and  N_9
REMARK    6  A    between atoms: C_12  and  N_13
REMARK    7  A    between atoms: C_17  and  N_18
REMARK    8  A    between atoms: C_19  and  C_21
REMARK                            x       y       z     vdW  Elec       q    Type
REMARK                         _______ _______ _______ _____ _____    ______ ____
ROOT
ATOM      1  N   UNL     1       2.615   6.523  18.630  0.00  0.00    +0.000 NA
ATOM      2  C   UNL     1       3.339   6.199  17.400  0.00  0.00    +0.000 C 
ATOM      3  C   UNL     1       3.726   4.721  17.301  0.00  0.00    +0.000 C 
ATOM      4  C   UNL     1       4.476   4.214  18.550  0.00  0.00    +0.000 C 
ATOM      5  C   UNL     1       3.631   4.539  19.788  0.00  0.00    +0.000 C 
ATOM      6  C   UNL     1       3.194   6.002  19.861  0.00  0.00    +0.000 C 
ENDROOT
BRANCH   4   7
ATOM      7  N   UNL     1       5.877   4.633  18.652  0.00  0.00    +0.000 N 
ATOM      8  N   UNL     1       6.256   5.398  19.698  0.00  0.00    +0.000 NA
ATOM      9  C   UNL     1       7.542   5.653  19.485  0.00  0.00    +0.000 A 
ATOM     10  C   UNL     1       8.000   5.094  18.286  0.00  0.00    +0.000 A 
ATOM     11  C   UNL     1       6.904   4.468  17.728  0.00  0.00    +0.000 A 
BRANCH  11  12
ATOM     12  N   UNL     1       6.855   3.864  16.470  0.00  0.00    +0.000 N 
ATOM     13  C   UNL     1       6.717   4.626  15.241  0.00  0.00    +0.000 C 
ATOM     14  O   UNL     1       6.757   5.843  15.246  0.00  0.00    +0.000 OA
ATOM     15  H   UNL     1       6.905   2.855  16.426  0.00  0.00    +0.000 HD
BRANCH  13  16
ATOM     16  C   UNL     1       6.505   3.803  14.000  0.00  0.00    +0.000 C 
ATOM     17  C   UNL     1       5.072   3.776  13.500  0.00  0.00    +0.000 C 
ATOM     18  C   UNL     1       5.264   3.424  12.042  0.00  0.00    +0.000 C 
ATOM     19  O   UNL     1       6.489   4.055  11.645  0.00  0.00    +0.000 OA
ATOM     20  C   UNL     1       7.225   4.410  12.818  0.00  0.00    +0.000 C 
ENDBRANCH  13  16
ENDBRANCH  11  12
ENDBRANCH   4   7
BRANCH   1  21
ATOM     21  C   UNL     1       2.338   7.980  18.730  0.00  0.00    +0.000 C 
BRANCH  21  25
ATOM     22  C   UNL     1       0.346   9.879  21.089  0.00  0.00    +0.000 A 
ATOM     23  C   UNL     1       0.352   8.700  21.805  0.00  0.00    +0.000 A 
ATOM     24  C   UNL     1       1.089   7.768  21.041  0.00  0.00    +0.000 A 
ATOM     25  C   UNL     1       1.520   8.434  19.905  0.00  0.00    +0.000 A 
ATOM     26  O   UNL     1       1.079   9.728  19.944  0.00  0.00    +0.000 OA
BRANCH  22  27
ATOM     27  C   UNL     1      -0.330  11.181  21.314  0.00  0.00    +0.000 C 
BRANCH  27  29
ATOM     28  C   UNL     1      -1.683  11.619  23.189  0.00  0.00    +0.000 C 
ATOM     29  O   UNL     1      -0.356  11.417  22.722  0.00  0.00    +0.000 OA
ENDBRANCH  27  29
ENDBRANCH  22  27
ENDBRANCH  21  25
ENDBRANCH   1  21
TORSDOF 7
ENDMDL
MODEL 3
REMARK VINA RESULT:      -7.0      2.417      6.795
REMARK  Name = 
REMARK  8 active torsions:
REMARK  status: ('A' for Active; 'I' for Inactive)
REMARK    1  A    between atoms: C_1  and  O_2
REMARK    2  A    between atoms: O_2  and  C_3
REMARK    3  A    between atoms: C_3  and  C_4
REMARK    4  A    between atoms: C_7  and  C_8
REMARK    5  A    between atoms: C_8  and  N_9
REMARK    6  A    between atoms: C_12  and  N_13
REMARK    7  A    between atoms: C_17  and  N_18
REMARK    8  A    between atoms: C_19  and  C_21
REMARK                            x       y       z     vdW  Elec       q    Type
REMARK                         _______ _______ _______ _____ _____    ______ ____
ROOT
ATOM      1  N   UNL     1       1.666   6.397  19.710  0.00  0.00    +0.000 NA
ATOM      2  C   UNL     1       2.728   5.980  18.794  0.00  0.00    +0.000 C 
ATOM      3  C   UNL     1       2.376   4.724  17.993  0.00  0.00    +0.000 C 
ATOM      4  C   UNL     1       1.908   3.557  18.885  0.00  0.00    +0.000 C 
ATOM      5  C   UNL     1       0.760   4.054  19.773  0.00  0.00    +0.000 C 
ATOM      6  C   UNL     1       1.088   5.340  20.531  0.00  0.00    +0.000 C 
ENDROOT
BRANCH   4   7
ATOM      7  N   UNL     1       2.973   2.861  19.615  0.00  0.00    +0.000 N 
ATOM      8  N   UNL     1       2.723   2.408  20.862  0.00  0.00    +0.000 NA
ATOM      9  C   UNL     1       3.873   1.885  21.271  0.00  0.00    +0.000 A 
ATOM     10  C   UNL     1       4.886   2.026  20.315  0.00  0.00    +0.000 A 
ATOM     11  C   UNL     1       4.307   2.698  19.259  0.00  0.00    +0.000 A 
BRANCH  11  12
ATOM     12  N   UNL     1       4.967   3.160  18.118  0.00  0.00    +0.000 N 
ATOM     13  C   UNL     1       5.907   4.268  18.151  0.00  0.00    +0.000 C 
ATOM     14  O   UNL     1       6.250   4.770  19.206  0.00  0.00    +0.000 OA
ATOM     15  H   UNL     1       4.766   2.706  17.237  0.00  0.00    +0.000 HD
BRANCH  13  16
ATOM     16  C   UNL     1       6.385   4.740  16.806  0.00  0.00    +0.000 C 
ATOM     17  C   UNL     1       5.968   3.857  15.644  0.00  0.00    +0.000 C 
ATOM     18  C   UNL     1       6.051   4.823  14.483  0.00  0.00    +0.000 C 
ATOM     19  O   UNL     1       5.660   6.100  15.007  0.00  0.00    +0.000 OA
ATOM     20  C   UNL     1       5.738   6.054  16.433  0.00  0.00    +0.000 C 
ENDBRANCH  13  16
ENDBRANCH  11  12
ENDBRANCH   4   7
BRANCH   1  21
ATOM     21  C   UNL     1       2.082   7.562  20.533  0.00  0.00    +0.000 C 
BRANCH  21  25
ATOM     22  C   UNL     1      -0.165  10.341  19.930  0.00  0.00    +0.000 A 
ATOM     23  C   UNL     1      -0.391  10.251  21.288  0.00  0.00    +0.000 A 
ATOM     24  C   UNL     1       0.401   9.181  21.758  0.00  0.00    +0.000 A 
ATOM     25  C   UNL     1       1.094   8.685  20.665  0.00  0.00    +0.000 A 
ATOM     26  O   UNL     1       0.759   9.406  19.552  0.00  0.00    +0.000 OA
BRANCH  22  27
ATOM     27  C   UNL     1      -0.764  11.192  18.871  0.00  0.00    +0.000 C 
BRANCH  27  29
ATOM     28  C   UNL     1      -2.439   9.896  17.845  0.00  0.00    +0.000 C 
ATOM     29  O   UNL     1      -1.092  10.344  17.770  0.00  0.00    +0.000 OA
ENDBRANCH  27  29
ENDBRANCH  22  27
ENDBRANCH  21  25
ENDBRANCH   1  21
TORSDOF 7
ENDMDL
MODEL 4
REMARK VINA RESULT:      -6.9      2.552      6.979
REMARK  Name = 
REMARK  8 active torsions:
REMARK  status: ('A' for Active; 'I' for Inactive)
REMARK    1  A    between atoms: C_1  and  O_2
REMARK    2  A    between atoms: O_2  and  C_3
REMARK    3  A    between atoms: C_3  and  C_4
REMARK    4  A    between atoms: C_7  and  C_8
REMARK    5  A    between atoms: C_8  and  N_9
REMARK    6  A    between atoms: C_12  and  N_13
REMARK    7  A    between atoms: C_17  and  N_18
REMARK    8  A    between atoms: C_19  and  C_21
REMARK                            x       y       z     vdW  Elec       q    Type
REMARK                         _______ _______ _______ _____ _____    ______ ____
ROOT
ATOM      1  N   UNL     1       2.701   7.337  18.992  0.00  0.00    +0.000 NA
ATOM      2  C   UNL     1       1.778   6.543  19.804  0.00  0.00    +0.000 C 
ATOM      3  C   UNL     1       2.489   5.598  20.775  0.00  0.00    +0.000 C 
ATOM      4  C   UNL     1       3.541   4.708  20.082  0.00  0.00    +0.000 C 
ATOM      5  C   UNL     1       4.502   5.613  19.300  0.00  0.00    +0.000 C 
ATOM      6  C   UNL     1       3.793   6.598  18.370  0.00  0.00    +0.000 C 
ENDROOT
BRANCH   4   7
ATOM      7  N   UNL     1       2.999   3.591  19.302  0.00  0.00    +0.000 N 
ATOM      8  N   UNL     1       1.894   2.957  19.749  0.00  0.00    +0.000 NA
ATOM      9  C   UNL     1       1.687   1.978  18.874  0.00  0.00    +0.000 A 
ATOM     10  C   UNL     1       2.669   1.943  17.879  0.00  0.00    +0.000 A 
ATOM     11  C   UNL     1       3.543   2.966  18.185  0.00  0.00    +0.000 A 
BRANCH  11  12
ATOM     12  N   UNL     1       4.745   3.245  17.530  0.00  0.00    +0.000 N 
ATOM     13  C   UNL     1       4.797   3.907  16.238  0.00  0.00    +0.000 C 
ATOM     14  O   UNL     1       3.791   4.357  15.720  0.00  0.00    +0.000 OA
ATOM     15  H   UNL     1       5.605   2.958  17.976  0.00  0.00    +0.000 HD
BRANCH  13  16
ATOM     16  C   UNL     1       6.160   3.966  15.605  0.00  0.00    +0.000 C 
ATOM     17  C   UNL     1       6.147   4.097  14.093  0.00  0.00    +0.000 C 
ATOM     18  C   UNL     1       7.507   4.700  13.828  0.00  0.00    +0.000 C 
ATOM     19  O   UNL     1       7.776   5.564  14.941  0.00  0.00    +0.000 OA
ATOM     20  C   UNL     1       6.890   5.225  16.010  0.00  0.00    +0.000 C 
ENDBRANCH  13  16
ENDBRANCH  11  12
ENDBRANCH   4   7
BRANCH   1  21
ATOM     21  C   UNL     1       1.974   8.172  18.000  0.00  0.00    +0.000 C 
BRANCH  21  25
ATOM     22  C   UNL     1       0.251  10.593  20.076  0.00  0.00    +0.000 A 
ATOM     23  C   UNL     1      -0.563  10.729  18.970  0.00  0.00    +0.000 A 
ATOM     24  C   UNL     1      -0.055   9.855  17.985  0.00  0.00    +0.000 A 
ATOM     25  C   UNL     1       1.033   9.207  18.548  0.00  0.00    +0.000 A 
ATOM     26  O   UNL     1       1.209   9.648  19.831  0.00  0.00    +0.000 OA
BRANCH  22  27
ATOM     27  C   UNL     1       0.292  11.300  21.380  0.00  0.00    +0.000 C 
BRANCH  27  29
ATOM     28  C   UNL     1      -0.422   9.849  23.089  0.00  0.00    +0.000 C 
ATOM     29  O   UNL     1       0.695  10.355  22.371  0.00  0.00    +0.000 OA
ENDBRANCH  27  29
ENDBRANCH  22  27
ENDBRANCH  21  25
ENDBRANCH   1  21
TORSDOF 7
ENDMDL
MODEL 5
REMARK VINA RESULT:      -6.9      2.543      7.257
REMARK  Name = 
REMARK  8 active torsions:
REMARK  status: ('A' for Active; 'I' for Inactive)
REMARK    1  A    between atoms: C_1  and  O_2
REMARK    2  A    between atoms: O_2  and  C_3
REMARK    3  A    between atoms: C_3  and  C_4
REMARK    4  A    between atoms: C_7  and  C_8
REMARK    5  A    between atoms: C_8  and  N_9
REMARK    6  A    between atoms: C_12  and  N_13
REMARK    7  A    between atoms: C_17  and  N_18
REMARK    8  A    between atoms: C_19  and  C_21
REMARK                            x       y       z     vdW  Elec       q    Type
REMARK                         _______ _______ _______ _____ _____    ______ ____
ROOT
ATOM      1  N   UNL     1       1.992   8.632  18.547  0.00  0.00    +0.000 NA
ATOM      2  C   UNL     1       1.431   7.954  19.717  0.00  0.00    +0.000 C 
ATOM      3  C   UNL     1       2.450   7.079  20.453  0.00  0.00    +0.000 C 
ATOM      4  C   UNL     1       3.174   6.089  19.519  0.00  0.00    +0.000 C 
ATOM      5  C   UNL     1       3.781   6.879  18.352  0.00  0.00    +0.000 C 
ATOM      6  C   UNL     1       2.780   7.797  17.649  0.00  0.00    +0.000 C 
ENDROOT
BRANCH   4   7
ATOM      7  N   UNL     1       2.384   4.924  19.108  0.00  0.00    +0.000 N 
ATOM      8  N   UNL     1       1.334   4.546  19.868  0.00  0.00    +0.000 NA
ATOM      9  C   UNL     1       0.864   3.451  19.279  0.00  0.00    +0.000 A 
ATOM     10  C   UNL     1       1.622   3.088  18.160  0.00  0.00    +0.000 A 
ATOM     11  C   UNL     1       2.633   4.024  18.078  0.00  0.00    +0.000 A 
BRANCH  11  12
ATOM     12  N   UNL     1       3.702   4.003  17.179  0.00  0.00    +0.000 N 
ATOM     13  C   UNL     1       5.074   3.776  17.599  0.00  0.00    +0.000 C 
ATOM     14  O   UNL     1       5.339   3.475  18.749  0.00  0.00    +0.000 OA
ATOM     15  H   UNL     1       3.502   4.165  16.201  0.00  0.00    +0.000 HD
BRANCH  13  16
ATOM     16  C   UNL     1       6.110   3.962  16.525  0.00  0.00    +0.000 C 
ATOM     17  C   UNL     1       5.546   4.323  15.163  0.00  0.00    +0.000 C 
ATOM     18  C   UNL     1       6.734   4.992  14.509  0.00  0.00    +0.000 C 
ATOM     19  O   UNL     1       7.423   5.682  15.561  0.00  0.00    +0.000 OA
ATOM     20  C   UNL     1       6.981   5.162  16.817  0.00  0.00    +0.000 C 
ENDBRANCH  13  16
ENDBRANCH  11  12
ENDBRANCH   4   7
BRANCH   1  21
ATOM     21  C   UNL     1       0.952   9.396  17.809  0.00  0.00    +0.000 C 
BRANCH  21  25
ATOM     22  C   UNL     1      -0.345  11.909  20.076  0.00  0.00    +0.000 A 
ATOM     23  C   UNL     1      -1.569  11.450  19.636  0.00  0.00    +0.000 A 
ATOM     24  C   UNL     1      -1.304  10.432  18.694  0.00  0.00    +0.000 A 
ATOM     25  C   UNL     1       0.074  10.302  18.623  0.00  0.00    +0.000 A 
ATOM     26  O   UNL     1       0.658  11.194  19.481  0.00  0.00    +0.000 OA
BRANCH  22  27
ATOM     27  C   UNL     1       0.039  13.018  20.985  0.00  0.00    +0.000 C 
BRANCH  27  29
ATOM     28  C   UNL     1      -1.150  13.185  23.009  0.00  0.00    +0.000 C 
ATOM     29  O   UNL     1      -0.084  12.540  22.324  0.00  0.00    +0.000 OA
ENDBRANCH  27  29
ENDBRANCH  22  27
ENDBRANCH  21  25
ENDBRANCH   1  21
TORSDOF 7
ENDMDL
MODEL 6
REMARK VINA RESULT:      -6.8      2.624      7.674
REMARK  Name = 
REMARK  8 active torsions:
REMARK  status: ('A' for Active; 'I' for Inactive)
REMARK    1  A    between atoms: C_1  and  O_2
REMARK    2  A    between atoms: O_2  and  C_3
REMARK    3  A    between atoms: C_3  and  C_4
REMARK    4  A    between atoms: C_7  and  C_8
REMARK    5  A    between atoms: C_8  and  N_9
REMARK    6  A    between atoms: C_12  and  N_13
REMARK    7  A    between atoms: C_17  and  N_18
REMARK    8  A    between atoms: C_19  and  C_21
REMARK                            x       y       z     vdW  Elec       q    Type
REMARK                         _______ _______ _______ _____ _____    ______ ____
ROOT
ATOM      1  N   UNL     1       1.915   8.680  18.637  0.00  0.00    +0.000 NA
ATOM      2  C   UNL     1       1.386   7.974  19.805  0.00  0.00    +0.000 C 
ATOM      3  C   UNL     1       2.430   7.097  20.503  0.00  0.00    +0.000 C 
ATOM      4  C   UNL     1       3.145   6.133  19.535  0.00  0.00    +0.000 C 
ATOM      5  C   UNL     1       3.718   6.951  18.371  0.00  0.00    +0.000 C 
ATOM      6  C   UNL     1       2.693   7.871  17.707  0.00  0.00    +0.000 C 
ENDROOT
BRANCH   4   7
ATOM      7  N   UNL     1       2.359   4.967  19.119  0.00  0.00    +0.000 N 
ATOM      8  N   UNL     1       1.307   4.585  19.874  0.00  0.00    +0.000 NA
ATOM      9  C   UNL     1       0.842   3.491  19.281  0.00  0.00    +0.000 A 
ATOM     10  C   UNL     1       1.605   3.131  18.164  0.00  0.00    +0.000 A 
ATOM     11  C   UNL     1       2.613   4.069  18.088  0.00  0.00    +0.000 A 
BRANCH  11  12
ATOM     12  N   UNL     1       3.686   4.053  17.193  0.00  0.00    +0.000 N 
ATOM     13  C   UNL     1       5.054   3.806  17.615  0.00  0.00    +0.000 C 
ATOM     14  O   UNL     1       5.311   3.485  18.761  0.00  0.00    +0.000 OA
ATOM     15  H   UNL     1       3.492   4.232  16.217  0.00  0.00    +0.000 HD
BRANCH  13  16
ATOM     16  C   UNL     1       6.096   4.000  16.548  0.00  0.00    +0.000 C 
ATOM     17  C   UNL     1       5.537   4.315  15.172  0.00  0.00    +0.000 C 
ATOM     18  C   UNL     1       6.712   5.005  14.517  0.00  0.00    +0.000 C 
ATOM     19  O   UNL     1       7.369   5.736  15.561  0.00  0.00    +0.000 OA
ATOM     20  C   UNL     1       6.929   5.230  16.823  0.00  0.00    +0.000 C 
ENDBRANCH  13  16
ENDBRANCH  11  12
ENDBRANCH   4   7
BRANCH   1  21
ATOM     21  C   UNL     1       0.851   9.446  17.936  0.00  0.00    +0.000 C 
BRANCH  21  25
ATOM     22  C   UNL     1      -1.559  11.756  19.348  0.00  0.00    +0.000 A 
ATOM     23  C   UNL     1      -0.479  12.185  20.092  0.00  0.00    +0.000 A 
ATOM     24  C   UNL     1       0.619  11.384  19.707  0.00  0.00    +0.000 A 
ATOM     25  C   UNL     1       0.160  10.521  18.725  0.00  0.00    +0.000 A 
ATOM     26  O   UNL     1      -1.167  10.761  18.495  0.00  0.00    +0.000 OA
BRANCH  22  27
ATOM     27  C   UNL     1      -2.994  12.133  19.360  0.00  0.00    +0.000 C 
BRANCH  27  29
ATOM     28  C   UNL     1      -5.023  11.414  18.409  0.00  0.00    +0.000 C 
ATOM     29  O   UNL     1      -3.615  11.507  18.237  0.00  0.00    +0.000 OA
ENDBRANCH  27  29
ENDBRANCH  22  27
ENDBRANCH  21  25
ENDBRANCH   1  21
TORSDOF 7
ENDMDL
MODEL 7
REMARK VINA RESULT:      -6.7      2.499      7.043
REMARK  Name = 
REMARK  8 active torsions:
REMARK  status: ('A' for Active; 'I' for Inactive)
REMARK    1  A    between atoms: C_1  and  O_2
REMARK    2  A    between atoms: O_2  and  C_3
REMARK    3  A    between atoms: C_3  and  C_4
REMARK    4  A    between atoms: C_7  and  C_8
REMARK    5  A    between atoms: C_8  and  N_9
REMARK    6  A    between atoms: C_12  and  N_13
REMARK    7  A    between atoms: C_17  and  N_18
REMARK    8  A    between atoms: C_19  and  C_21
REMARK                            x       y       z     vdW  Elec       q    Type
REMARK                         _______ _______ _______ _____ _____    ______ ____
ROOT
ATOM      1  N   UNL     1       1.553   8.886  18.716  0.00  0.00    +0.000 NA
ATOM      2  C   UNL     1       1.224   8.094  19.902  0.00  0.00    +0.000 C 
ATOM      3  C   UNL     1       2.417   7.307  20.450  0.00  0.00    +0.000 C 
ATOM      4  C   UNL     1       3.116   6.451  19.374  0.00  0.00    +0.000 C 
ATOM      5  C   UNL     1       3.478   7.359  18.192  0.00  0.00    +0.000 C 
ATOM      6  C   UNL     1       2.302   8.190  17.678  0.00  0.00    +0.000 C 
ENDROOT
BRANCH   4   7
ATOM      7  N   UNL     1       2.408   5.225  18.994  0.00  0.00    +0.000 N 
ATOM      8  N   UNL     1       1.325   4.847  19.706  0.00  0.00    +0.000 NA
ATOM      9  C   UNL     1       0.947   3.694  19.164  0.00  0.00    +0.000 A 
ATOM     10  C   UNL     1       1.796   3.295  18.126  0.00  0.00    +0.000 A 
ATOM     11  C   UNL     1       2.768   4.271  18.047  0.00  0.00    +0.000 A 
BRANCH  11  12
ATOM     12  N   UNL     1       3.897   4.242  17.226  0.00  0.00    +0.000 N 
ATOM     13  C   UNL     1       5.239   4.044  17.746  0.00  0.00    +0.000 C 
ATOM     14  O   UNL     1       5.426   3.774  18.918  0.00  0.00    +0.000 OA
ATOM     15  H   UNL     1       3.765   4.378  16.233  0.00  0.00    +0.000 HD
BRANCH  13  16
ATOM     16  C   UNL     1       6.345   4.218  16.742  0.00  0.00    +0.000 C 
ATOM     17  C   UNL     1       5.905   4.104  15.294  0.00  0.00    +0.000 C 
ATOM     18  C   UNL     1       6.999   4.868  14.582  0.00  0.00    +0.000 C 
ATOM     19  O   UNL     1       7.377   5.929  15.470  0.00  0.00    +0.000 OA
ATOM     20  C   UNL     1       6.893   5.626  16.780  0.00  0.00    +0.000 C 
ENDBRANCH  13  16
ENDBRANCH  11  12
ENDBRANCH   4   7
BRANCH   1  21
ATOM     21  C   UNL     1       0.350   9.561  18.161  0.00  0.00    +0.000 C 
BRANCH  21  25
ATOM     22  C   UNL     1       0.221  12.607  20.122  0.00  0.00    +0.000 A 
ATOM     23  C   UNL     1      -0.806  12.932  19.261  0.00  0.00    +0.000 A 
ATOM     24  C   UNL     1      -0.935  11.854  18.359  0.00  0.00    +0.000 A 
ATOM     25  C   UNL     1       0.007  10.908  18.730  0.00  0.00    +0.000 A 
ATOM     26  O   UNL     1       0.701  11.362  19.818  0.00  0.00    +0.000 OA
BRANCH  22  27
ATOM     27  C   UNL     1       0.887  13.359  21.214  0.00  0.00    +0.000 C 
BRANCH  27  29
ATOM     28  C   UNL     1       2.935  13.974  20.231  0.00  0.00    +0.000 C 
ATOM     29  O   UNL     1       2.286  13.088  21.135  0.00  0.00    +0.000 OA
ENDBRANCH  27  29
ENDBRANCH  22  27
ENDBRANCH  21  25
ENDBRANCH   1  21
TORSDOF 7
ENDMDL
MODEL 8
REMARK VINA RESULT:      -6.7      2.434      7.075
REMARK  Name = 
REMARK  8 active torsions:
REMARK  status: ('A' for Active; 'I' for Inactive)
REMARK    1  A    between atoms: C_1  and  O_2
REMARK    2  A    between atoms: O_2  and  C_3
REMARK    3  A    between atoms: C_3  and  C_4
REMARK    4  A    between atoms: C_7  and  C_8
REMARK    5  A    between atoms: C_8  and  N_9
REMARK    6  A    between atoms: C_12  and  N_13
REMARK    7  A    between atoms: C_17  and  N_18
REMARK    8  A    between atoms: C_19  and  C_21
REMARK                            x       y       z     vdW  Elec       q    Type
REMARK                         _______ _______ _______ _____ _____    ______ ____
ROOT
ATOM      1  N   UNL     1       2.471   6.995  19.972  0.00  0.00    +0.000 NA
ATOM      2  C   UNL     1       1.633   6.013  20.662  0.00  0.00    +0.000 C 
ATOM      3  C   UNL     1       2.436   4.868  21.285  0.00  0.00    +0.000 C 
ATOM      4  C   UNL     1       3.391   4.191  20.282  0.00  0.00    +0.000 C 
ATOM      5  C   UNL     1       4.271   5.273  19.643  0.00  0.00    +0.000 C 
ATOM      6  C   UNL     1       3.476   6.447  19.070  0.00  0.00    +0.000 C 
ENDROOT
BRANCH   4   7
ATOM      7  N   UNL     1       2.749   3.293  19.317  0.00  0.00    +0.000 N 
ATOM      8  N   UNL     1       1.564   2.729  19.635  0.00  0.00    +0.000 NA
ATOM      9  C   UNL     1       1.274   1.942  18.605  0.00  0.00    +0.000 A 
ATOM     10  C   UNL     1       2.278   1.957  17.630  0.00  0.00    +0.000 A 
ATOM     11  C   UNL     1       3.253   2.803  18.116  0.00  0.00    +0.000 A 
BRANCH  11  12
ATOM     12  N   UNL     1       4.499   3.042  17.533  0.00  0.00    +0.000 N 
ATOM     13  C   UNL     1       4.707   4.064  16.521  0.00  0.00    +0.000 C 
ATOM     14  O   UNL     1       3.820   4.841  16.219  0.00  0.00    +0.000 OA
ATOM     15  H   UNL     1       5.278   2.468  17.825  0.00  0.00    +0.000 HD
BRANCH  13  16
ATOM     16  C   UNL     1       6.068   4.061  15.881  0.00  0.00    +0.000 C 
ATOM     17  C   UNL     1       6.051   4.136  14.365  0.00  0.00    +0.000 C 
ATOM     18  C   UNL     1       7.426   4.692  14.072  0.00  0.00    +0.000 C 
ATOM     19  O   UNL     1       7.724   5.589  15.151  0.00  0.00    +0.000 OA
ATOM     20  C   UNL     1       6.835   5.313  16.236  0.00  0.00    +0.000 C 
ENDBRANCH  13  16
ENDBRANCH  11  12
ENDBRANCH   4   7
BRANCH   1  21
ATOM     21  C   UNL     1       1.649   8.039  19.304  0.00  0.00    +0.000 C 
BRANCH  21  25
ATOM     22  C   UNL     1      -0.251  10.823  20.637  0.00  0.00    +0.000 A 
ATOM     23  C   UNL     1       0.202  10.348  21.851  0.00  0.00    +0.000 A 
ATOM     24  C   UNL     1       0.986   9.208  21.571  0.00  0.00    +0.000 A 
ATOM     25  C   UNL     1       0.994   9.056  20.194  0.00  0.00    +0.000 A 
ATOM     26  O   UNL     1       0.252  10.053  19.624  0.00  0.00    +0.000 OA
BRANCH  22  27
ATOM     27  C   UNL     1      -1.179  11.923  20.277  0.00  0.00    +0.000 C 
BRANCH  27  29
ATOM     28  C   UNL     1      -0.535  13.256  18.447  0.00  0.00    +0.000 C 
ATOM     29  O   UNL     1      -1.168  12.050  18.855  0.00  0.00    +0.000 OA
ENDBRANCH  27  29
ENDBRANCH  22  27
ENDBRANCH  21  25
ENDBRANCH   1  21
TORSDOF 7
ENDMDL
MODEL 9
REMARK VINA RESULT:      -6.7      2.704      7.213
REMARK  Name = 
REMARK  8 active torsions:
REMARK  status: ('A' for Active; 'I' for Inactive)
REMARK    1  A    between atoms: C_1  and  O_2
REMARK    2  A    between atoms: O_2  and  C_3
REMARK    3  A    between atoms: C_3  and  C_4
REMARK    4  A    between atoms: C_7  and  C_8
REMARK    5  A    between atoms: C_8  and  N_9
REMARK    6  A    between atoms: C_12  and  N_13
REMARK    7  A    between atoms: C_17  and  N_18
REMARK    8  A    between atoms: C_19  and  C_21
REMARK                            x       y       z     vdW  Elec       q    Type
REMARK                         _______ _______ _______ _____ _____    ______ ____
ROOT
ATOM      1  N   UNL     1       2.697   7.246  19.085  0.00  0.00    +0.000 NA
ATOM      2  C   UNL     1       1.797   6.437  19.907  0.00  0.00    +0.000 C 
ATOM      3  C   UNL     1       2.536   5.496  20.862  0.00  0.00    +0.000 C 
ATOM      4  C   UNL     1       3.589   4.624  20.148  0.00  0.00    +0.000 C 
ATOM      5  C   UNL     1       4.526   5.545  19.356  0.00  0.00    +0.000 C 
ATOM      6  C   UNL     1       3.789   6.525  18.443  0.00  0.00    +0.000 C 
ENDROOT
BRANCH   4   7
ATOM      7  N   UNL     1       3.050   3.504  19.371  0.00  0.00    +0.000 N 
ATOM      8  N   UNL     1       1.960   2.853  19.831  0.00  0.00    +0.000 NA
ATOM      9  C   UNL     1       1.753   1.876  18.955  0.00  0.00    +0.000 A 
ATOM     10  C   UNL     1       2.721   1.858  17.944  0.00  0.00    +0.000 A 
ATOM     11  C   UNL     1       3.585   2.892  18.242  0.00  0.00    +0.000 A 
BRANCH  11  12
ATOM     12  N   UNL     1       4.773   3.190  17.570  0.00  0.00    +0.000 N 
ATOM     13  C   UNL     1       4.797   3.874  16.289  0.00  0.00    +0.000 C 
ATOM     14  O   UNL     1       3.779   4.325  15.797  0.00  0.00    +0.000 OA
ATOM     15  H   UNL     1       5.643   2.902  17.996  0.00  0.00    +0.000 HD
BRANCH  13  16
ATOM     16  C   UNL     1       6.148   3.952  15.633  0.00  0.00    +0.000 C 
ATOM     17  C   UNL     1       6.107   4.140  14.127  0.00  0.00    +0.000 C 
ATOM     18  C   UNL     1       7.464   4.750  13.859  0.00  0.00    +0.000 C 
ATOM     19  O   UNL     1       7.757   5.570  14.999  0.00  0.00    +0.000 OA
ATOM     20  C   UNL     1       6.891   5.193  16.071  0.00  0.00    +0.000 C 
ENDBRANCH  13  16
ENDBRANCH  11  12
ENDBRANCH   4   7
BRANCH   1  21
ATOM     21  C   UNL     1       1.944   8.077  18.109  0.00  0.00    +0.000 C 
BRANCH  21  25
ATOM     22  C   UNL     1      -0.533  10.677  18.599  0.00  0.00    +0.000 A 
ATOM     23  C   UNL     1      -0.077  10.650  19.901  0.00  0.00    +0.000 A 
ATOM     24  C   UNL     1       0.926   9.658  19.956  0.00  0.00    +0.000 A 
ATOM     25  C   UNL     1       1.052   9.144  18.675  0.00  0.00    +0.000 A 
ATOM     26  O   UNL     1       0.171   9.780  17.844  0.00  0.00    +0.000 OA
BRANCH  22  27
ATOM     27  C   UNL     1      -1.629  11.430  17.940  0.00  0.00    +0.000 C 
BRANCH  27  29
ATOM     28  C   UNL     1      -2.716   9.935  16.483  0.00  0.00    +0.000 C 
ATOM     29  O   UNL     1      -2.728  10.533  17.772  0.00  0.00    +0.000 OA
ENDBRANCH  27  29
ENDBRANCH  22  27
ENDBRANCH  21  25
ENDBRANCH   1  21
TORSDOF 7
ENDMDL
