MODEL 1
REMARK VINA RESULT:      -6.3      0.000      0.000
REMARK  Name = 
REMARK  8 active torsions:
REMARK  status: ('A' for Active; 'I' for Inactive)
REMARK    1  A    between atoms: C_1  and  C_2
REMARK    2  A    between atoms: C_2  and  C_3
REMARK    3  A    between atoms: C_2  and  C_4
REMARK    4  A    between atoms: C_4  and  C_5
REMARK    5  A    between atoms: N_8  and  C_9
REMARK    6  A    between atoms: C_9  and  C_10
REMARK    7  A    between atoms: C_10  and  O_12
REMARK    8  A    between atoms: C_14  and  C_15
REMARK                            x       y       z     vdW  Elec       q    Type
REMARK                         _______ _______ _______ _____ _____    ______ ____
ROOT
ATOM      1  C   UNL     1      -0.112  11.485  21.072  0.00  0.00    +0.000 C 
ATOM      2  C   UNL     1      -1.066  11.932  22.182  0.00  0.00    +0.000 C 
ATOM      3  O   UNL     1      -0.927  11.622  23.364  0.00  0.00    +0.000 OA
ATOM      4  N   UNL     1      -2.210  12.609  21.787  0.00  0.00    +0.000 N 
ATOM      5  C   UNL     1      -2.229  13.664  20.743  0.00  0.00    +0.000 C 
ATOM      6  C   UNL     1      -1.686  13.293  19.315  0.00  0.00    +0.000 C 
ATOM      7  C   UNL     1      -0.155  13.405  19.434  0.00  0.00    +0.000 A 
ATOM      8  C   UNL     1       0.512  14.365  18.650  0.00  0.00    +0.000 A 
ATOM      9  C   UNL     1       1.877  14.599  18.819  0.00  0.00    +0.000 A 
ATOM     10  C   UNL     1       2.578  13.906  19.799  0.00  0.00    +0.000 A 
ATOM     11  C   UNL     1       1.938  12.931  20.575  0.00  0.00    +0.000 A 
ATOM     12  C   UNL     1       0.583  12.636  20.371  0.00  0.00    +0.000 A 
ENDROOT
BRANCH   6  13
ATOM     13  C   UNL     1      -2.299  12.030  18.677  0.00  0.00    +0.000 A 
ATOM     14  C   UNL     1      -1.424  11.064  18.128  0.00  0.00    +0.000 A 
ATOM     15  C   UNL     1      -1.879   9.975  17.379  0.00  0.00    +0.000 A 
ATOM     16  C   UNL     1      -3.239   9.772  17.217  0.00  0.00    +0.000 A 
ATOM     17  C   UNL     1      -4.131  10.629  17.852  0.00  0.00    +0.000 A 
ATOM     18  C   UNL     1      -3.675  11.733  18.593  0.00  0.00    +0.000 A 
ATOM     19 CL   UNL     1      -4.916  12.649  19.368  0.00  0.00    +0.000 Cl
ENDBRANCH   6  13
BRANCH   1  20
ATOM     20  C   UNL     1       0.754  10.269  21.485  0.00  0.00    +0.000 C 
BRANCH  20  22
ATOM     21  C   UNL     1       1.400   9.330  19.155  0.00  0.00    +0.000 C 
ATOM     22  C   UNL     1       0.671   9.078  20.480  0.00  0.00    +0.000 C 
ATOM     23  C   UNL     1       1.241   7.802  21.106  0.00  0.00    +0.000 C 
ENDBRANCH  20  22
ENDBRANCH   1  20
BRANCH   4  24
ATOM     24  C   UNL     1      -3.467  12.240  22.465  0.00  0.00    +0.000 C 
BRANCH  24  25
ATOM     25  C   UNL     1      -3.706  12.677  23.903  0.00  0.00    +0.000 C 
ATOM     26  O   UNL     1      -4.443  12.060  24.664  0.00  0.00    +0.000 OA
BRANCH  25  27
ATOM     27  O   UNL     1      -3.035  13.783  24.292  0.00  0.00    +0.000 OA
ATOM     28  H   UNL     1      -2.143  13.534  24.628  0.00  0.00    +0.000 HD
ENDBRANCH  25  27
ENDBRANCH  24  25
ENDBRANCH   4  24
TORSDOF 6
ENDMDL
MODEL 2
REMARK VINA RESULT:      -6.2      3.161      5.684
REMARK  Name = 
REMARK  8 active torsions:
REMARK  status: ('A' for Active; 'I' for Inactive)
REMARK    1  A    between atoms: C_1  and  C_2
REMARK    2  A    between atoms: C_2  and  C_3
REMARK    3  A    between atoms: C_2  and  C_4
REMARK    4  A    between atoms: C_4  and  C_5
REMARK    5  A    between atoms: N_8  and  C_9
REMARK    6  A    between atoms: C_9  and  C_10
REMARK    7  A    between atoms: C_10  and  O_12
REMARK    8  A    between atoms: C_14  and  C_15
REMARK                            x       y       z     vdW  Elec       q    Type
REMARK                         _______ _______ _______ _____ _____    ______ ____
ROOT
ATOM      1  C   UNL     1      -3.535  12.798  20.760  0.00  0.00    +0.000 C 
ATOM      2  C   UNL     1      -3.838  12.290  19.349  0.00  0.00    +0.000 C 
ATOM      3  O   UNL     1      -4.973  12.213  18.883  0.00  0.00    +0.000 OA
ATOM      4  N   UNL     1      -2.772  11.772  18.630  0.00  0.00    +0.000 N 
ATOM      5  C   UNL     1      -1.421  12.388  18.592  0.00  0.00    +0.000 C 
ATOM      6  C   UNL     1      -0.679  12.611  19.960  0.00  0.00    +0.000 C 
ATOM      7  C   UNL     1      -1.281  13.909  20.528  0.00  0.00    +0.000 A 
ATOM      8  C   UNL     1      -0.435  15.019  20.710  0.00  0.00    +0.000 A 
ATOM      9  C   UNL     1      -0.955  16.257  21.092  0.00  0.00    +0.000 A 
ATOM     10  C   UNL     1      -2.327  16.405  21.256  0.00  0.00    +0.000 A 
ATOM     11  C   UNL     1      -3.184  15.308  21.100  0.00  0.00    +0.000 A 
ATOM     12  C   UNL     1      -2.670  14.043  20.783  0.00  0.00    +0.000 A 
ENDROOT
BRANCH   6  13
ATOM     13  C   UNL     1      -0.574  11.371  20.871  0.00  0.00    +0.000 A 
ATOM     14  C   UNL     1      -1.055  11.471  22.197  0.00  0.00    +0.000 A 
ATOM     15  C   UNL     1      -0.851  10.468  23.149  0.00  0.00    +0.000 A 
ATOM     16  C   UNL     1      -0.223   9.290  22.784  0.00  0.00    +0.000 A 
ATOM     17  C   UNL     1       0.148   9.104  21.456  0.00  0.00    +0.000 A 
ATOM     18  C   UNL     1      -0.043  10.118  20.501  0.00  0.00    +0.000 A 
ATOM     19 CL   UNL     1       0.412   9.692  18.891  0.00  0.00    +0.000 Cl
ENDBRANCH   6  13
BRANCH   1  20
ATOM     20  C   UNL     1      -4.780  12.772  21.682  0.00  0.00    +0.000 C 
BRANCH  20  22
ATOM     21  C   UNL     1      -5.775  14.088  23.685  0.00  0.00    +0.000 C 
ATOM     22  C   UNL     1      -4.532  13.429  23.077  0.00  0.00    +0.000 C 
ATOM     23  C   UNL     1      -4.001  12.394  24.073  0.00  0.00    +0.000 C 
ENDBRANCH  20  22
ENDBRANCH   1  20
BRANCH   4  24
ATOM     24  C   UNL     1      -3.026  10.539  17.862  0.00  0.00    +0.000 C 
BRANCH  24  25
ATOM     25  C   UNL     1      -3.381  10.627  16.384  0.00  0.00    +0.000 C 
ATOM     26  O   UNL     1      -2.578  10.363  15.497  0.00  0.00    +0.000 OA
BRANCH  25  27
ATOM     27  O   UNL     1      -4.652  10.999  16.116  0.00  0.00    +0.000 OA
ATOM     28  H   UNL     1      -5.225  10.202  16.035  0.00  0.00    +0.000 HD
ENDBRANCH  25  27
ENDBRANCH  24  25
ENDBRANCH   4  24
TORSDOF 6
ENDMDL
MODEL 3
REMARK VINA RESULT:      -6.1      2.316      4.552
REMARK  Name = 
REMARK  8 active torsions:
REMARK  status: ('A' for Active; 'I' for Inactive)
REMARK    1  A    between atoms: C_1  and  C_2
REMARK    2  A    between atoms: C_2  and  C_3
REMARK    3  A    between atoms: C_2  and  C_4
REMARK    4  A    between atoms: C_4  and  C_5
REMARK    5  A    between atoms: N_8  and  C_9
REMARK    6  A    between atoms: C_9  and  C_10
REMARK    7  A    between atoms: C_10  and  O_12
REMARK    8  A    between atoms: C_14  and  C_15
REMARK                            x       y       z     vdW  Elec       q    Type
REMARK                         _______ _______ _______ _____ _____    ______ ____
ROOT
ATOM      1  C   UNL     1       0.218  11.721  20.452  0.00  0.00    +0.000 C 
ATOM      2  C   UNL     1       1.077  12.953  20.163  0.00  0.00    +0.000 C 
ATOM      3  O   UNL     1       2.306  12.929  20.112  0.00  0.00    +0.000 OA
ATOM      4  N   UNL     1       0.418  14.170  20.091  0.00  0.00    +0.000 N 
ATOM      5  C   UNL     1      -0.880  14.370  19.397  0.00  0.00    +0.000 C 
ATOM      6  C   UNL     1      -2.097  13.484  19.851  0.00  0.00    +0.000 C 
ATOM      7  C   UNL     1      -1.894  12.137  19.134  0.00  0.00    +0.000 A 
ATOM      8  C   UNL     1      -2.861  11.719  18.201  0.00  0.00    +0.000 A 
ATOM      9  C   UNL     1      -2.657  10.576  17.426  0.00  0.00    +0.000 A 
ATOM     10  C   UNL     1      -1.470   9.865  17.549  0.00  0.00    +0.000 A 
ATOM     11  C   UNL     1      -0.503  10.253  18.486  0.00  0.00    +0.000 A 
ATOM     12  C   UNL     1      -0.722  11.358  19.319  0.00  0.00    +0.000 A 
ENDROOT
BRANCH   6  13
ATOM     13  C   UNL     1      -2.399  13.491  21.363  0.00  0.00    +0.000 A 
ATOM     14  C   UNL     1      -2.470  12.251  22.038  0.00  0.00    +0.000 A 
ATOM     15  C   UNL     1      -2.905  12.138  23.362  0.00  0.00    +0.000 A 
ATOM     16  C   UNL     1      -3.212  13.278  24.084  0.00  0.00    +0.000 A 
ATOM     17  C   UNL     1      -3.029  14.524  23.494  0.00  0.00    +0.000 A 
ATOM     18  C   UNL     1      -2.607  14.638  22.158  0.00  0.00    +0.000 A 
ATOM     19 CL   UNL     1      -2.367  16.257  21.609  0.00  0.00    +0.000 Cl
ENDBRANCH   6  13
BRANCH   1  20
ATOM     20  C   UNL     1       1.025  10.572  21.108  0.00  0.00    +0.000 C 
BRANCH  20  22
ATOM     21  C   UNL     1       0.679   8.017  21.396  0.00  0.00    +0.000 C 
ATOM     22  C   UNL     1       0.127   9.422  21.663  0.00  0.00    +0.000 C 
ATOM     23  C   UNL     1      -0.078   9.578  23.172  0.00  0.00    +0.000 C 
ENDBRANCH  20  22
ENDBRANCH   1  20
BRANCH   4  24
ATOM     24  C   UNL     1       1.071  15.319  20.747  0.00  0.00    +0.000 C 
BRANCH  24  25
ATOM     25  C   UNL     1       1.439  15.239  22.222  0.00  0.00    +0.000 C 
ATOM     26  O   UNL     1       0.639  15.497  23.114  0.00  0.00    +0.000 OA
BRANCH  25  27
ATOM     27  O   UNL     1       2.705  14.845  22.481  0.00  0.00    +0.000 OA
ATOM     28  H   UNL     1       3.196  14.713  21.638  0.00  0.00    +0.000 HD
ENDBRANCH  25  27
ENDBRANCH  24  25
ENDBRANCH   4  24
TORSDOF 6
ENDMDL
MODEL 4
REMARK VINA RESULT:      -6.0      3.224      5.470
REMARK  Name = 
REMARK  8 active torsions:
REMARK  status: ('A' for Active; 'I' for Inactive)
REMARK    1  A    between atoms: C_1  and  C_2
REMARK    2  A    between atoms: C_2  and  C_3
REMARK    3  A    between atoms: C_2  and  C_4
REMARK    4  A    between atoms: C_4  and  C_5
REMARK    5  A    between atoms: N_8  and  C_9
REMARK    6  A    between atoms: C_9  and  C_10
REMARK    7  A    between atoms: C_10  and  O_12
REMARK    8  A    between atoms: C_14  and  C_15
REMARK                            x       y       z     vdW  Elec       q    Type
REMARK                         _______ _______ _______ _____ _____    ______ ____
ROOT
ATOM      1  C   UNL     1       0.326  10.881  19.092  0.00  0.00    +0.000 C 
ATOM      2  C   UNL     1       1.328  11.920  18.588  0.00  0.00    +0.000 C 
ATOM      3  O   UNL     1       2.454  11.638  18.180  0.00  0.00    +0.000 OA
ATOM      4  N   UNL     1       0.973  13.253  18.734  0.00  0.00    +0.000 N 
ATOM      5  C   UNL     1      -0.384  13.784  18.453  0.00  0.00    +0.000 C 
ATOM      6  C   UNL     1      -1.595  13.144  19.226  0.00  0.00    +0.000 C 
ATOM      7  C   UNL     1      -1.916  11.851  18.456  0.00  0.00    +0.000 A 
ATOM      8  C   UNL     1      -3.175  11.730  17.839  0.00  0.00    +0.000 A 
ATOM      9  C   UNL     1      -3.465  10.640  17.018  0.00  0.00    +0.000 A 
ATOM     10  C   UNL     1      -2.487   9.683  16.775  0.00  0.00    +0.000 A 
ATOM     11  C   UNL     1      -1.235   9.773  17.396  0.00  0.00    +0.000 A 
ATOM     12  C   UNL     1      -0.951  10.826  18.277  0.00  0.00    +0.000 A 
ENDROOT
BRANCH   6  13
ATOM     13  C   UNL     1      -1.451  13.089  20.760  0.00  0.00    +0.000 A 
ATOM     14  C   UNL     1      -1.730  11.868  21.416  0.00  0.00    +0.000 A 
ATOM     15  C   UNL     1      -1.797  11.758  22.808  0.00  0.00    +0.000 A 
ATOM     16  C   UNL     1      -1.510  12.857  23.599  0.00  0.00    +0.000 A 
ATOM     17  C   UNL     1      -1.105  14.041  22.991  0.00  0.00    +0.000 A 
ATOM     18  C   UNL     1      -1.052  14.157  21.591  0.00  0.00    +0.000 A 
ATOM     19 CL   UNL     1      -0.465  15.672  21.011  0.00  0.00    +0.000 Cl
ENDBRANCH   6  13
BRANCH   1  20
ATOM     20  C   UNL     1       0.998   9.536  19.463  0.00  0.00    +0.000 C 
BRANCH  20  22
ATOM     21  C   UNL     1       1.013   7.554  21.138  0.00  0.00    +0.000 C 
ATOM     22  C   UNL     1       0.577   8.998  20.867  0.00  0.00    +0.000 C 
ATOM     23  C   UNL     1       1.145   9.887  21.978  0.00  0.00    +0.000 C 
ENDBRANCH  20  22
ENDBRANCH   1  20
BRANCH   4  24
ATOM     24  C   UNL     1       2.030  14.175  19.192  0.00  0.00    +0.000 C 
BRANCH  24  25
ATOM     25  C   UNL     1       2.799  15.009  18.177  0.00  0.00    +0.000 C 
ATOM     26  O   UNL     1       2.549  16.190  17.971  0.00  0.00    +0.000 OA
BRANCH  25  27
ATOM     27  O   UNL     1       3.793  14.361  17.530  0.00  0.00    +0.000 OA
ATOM     28  H   UNL     1       4.662  14.763  17.760  0.00  0.00    +0.000 HD
ENDBRANCH  25  27
ENDBRANCH  24  25
ENDBRANCH   4  24
TORSDOF 6
ENDMDL
MODEL 5
REMARK VINA RESULT:      -6.0      8.132     11.690
REMARK  Name = 
REMARK  8 active torsions:
REMARK  status: ('A' for Active; 'I' for Inactive)
REMARK    1  A    between atoms: C_1  and  C_2
REMARK    2  A    between atoms: C_2  and  C_3
REMARK    3  A    between atoms: C_2  and  C_4
REMARK    4  A    between atoms: C_4  and  C_5
REMARK    5  A    between atoms: N_8  and  C_9
REMARK    6  A    between atoms: C_9  and  C_10
REMARK    7  A    between atoms: C_10  and  O_12
REMARK    8  A    between atoms: C_14  and  C_15
REMARK                            x       y       z     vdW  Elec       q    Type
REMARK                         _______ _______ _______ _____ _____    ______ ____
ROOT
ATOM      1  C   UNL     1       8.680  14.962  19.244  0.00  0.00    +0.000 C 
ATOM      2  C   UNL     1       7.272  14.803  19.819  0.00  0.00    +0.000 C 
ATOM      3  O   UNL     1       6.247  15.068  19.193  0.00  0.00    +0.000 OA
ATOM      4  N   UNL     1       7.181  14.469  21.162  0.00  0.00    +0.000 N 
ATOM      5  C   UNL     1       8.040  13.455  21.824  0.00  0.00    +0.000 C 
ATOM      6  C   UNL     1       9.598  13.654  21.750  0.00  0.00    +0.000 C 
ATOM      7  C   UNL     1       9.998  13.122  20.362  0.00  0.00    +0.000 A 
ATOM      8  C   UNL     1      10.858  12.011  20.290  0.00  0.00    +0.000 A 
ATOM      9  C   UNL     1      11.142  11.407  19.064  0.00  0.00    +0.000 A 
ATOM     10  C   UNL     1      10.538  11.883  17.907  0.00  0.00    +0.000 A 
ATOM     11  C   UNL     1       9.696  13.001  17.954  0.00  0.00    +0.000 A 
ATOM     12  C   UNL     1       9.454  13.660  19.167  0.00  0.00    +0.000 A 
ENDROOT
BRANCH   6  13
ATOM     13  C   UNL     1      10.115  15.035  22.202  0.00  0.00    +0.000 A 
ATOM     14  C   UNL     1      10.951  15.759  21.322  0.00  0.00    +0.000 A 
ATOM     15  C   UNL     1      11.608  16.933  21.701  0.00  0.00    +0.000 A 
ATOM     16  C   UNL     1      11.389  17.467  22.959  0.00  0.00    +0.000 A 
ATOM     17  C   UNL     1      10.473  16.853  23.805  0.00  0.00    +0.000 A 
ATOM     18  C   UNL     1       9.823  15.664  23.431  0.00  0.00    +0.000 A 
ATOM     19 CL   UNL     1       8.670  15.076  24.573  0.00  0.00    +0.000 Cl
ENDBRANCH   6  13
BRANCH   1  20
ATOM     20  C   UNL     1       8.716  15.891  18.005  0.00  0.00    +0.000 C 
BRANCH  20  22
ATOM     21  C   UNL     1      10.928  16.325  16.719  0.00  0.00    +0.000 C 
ATOM     22  C   UNL     1      10.030  16.727  17.894  0.00  0.00    +0.000 C 
ATOM     23  C   UNL     1       9.711  18.219  17.765  0.00  0.00    +0.000 C 
ENDBRANCH  20  22
ENDBRANCH   1  20
BRANCH   4  24
ATOM     24  C   UNL     1       6.156  15.176  21.953  0.00  0.00    +0.000 C 
BRANCH  24  25
ATOM     25  C   UNL     1       4.858  14.467  22.316  0.00  0.00    +0.000 C 
ATOM     26  O   UNL     1       4.529  14.249  23.476  0.00  0.00    +0.000 OA
BRANCH  25  27
ATOM     27  O   UNL     1       4.081  14.112  21.269  0.00  0.00    +0.000 OA
ATOM     28  H   UNL     1       4.142  13.140  21.120  0.00  0.00    +0.000 HD
ENDBRANCH  25  27
ENDBRANCH  24  25
ENDBRANCH   4  24
TORSDOF 6
ENDMDL
MODEL 6
REMARK VINA RESULT:      -5.9      2.577      4.272
REMARK  Name = 
REMARK  8 active torsions:
REMARK  status: ('A' for Active; 'I' for Inactive)
REMARK    1  A    between atoms: C_1  and  C_2
REMARK    2  A    between atoms: C_2  and  C_3
REMARK    3  A    between atoms: C_2  and  C_4
REMARK    4  A    between atoms: C_4  and  C_5
REMARK    5  A    between atoms: N_8  and  C_9
REMARK    6  A    between atoms: C_9  and  C_10
REMARK    7  A    between atoms: C_10  and  O_12
REMARK    8  A    between atoms: C_14  and  C_15
REMARK                            x       y       z     vdW  Elec       q    Type
REMARK                         _______ _______ _______ _____ _____    ______ ____
ROOT
ATOM      1  C   UNL     1      -1.598  12.377  19.823  0.00  0.00    +0.000 C 
ATOM      2  C   UNL     1      -0.898  11.529  20.887  0.00  0.00    +0.000 C 
ATOM      3  O   UNL     1      -0.212  10.542  20.627  0.00  0.00    +0.000 OA
ATOM      4  N   UNL     1      -1.179  11.832  22.211  0.00  0.00    +0.000 N 
ATOM      5  C   UNL     1      -1.267  13.215  22.744  0.00  0.00    +0.000 C 
ATOM      6  C   UNL     1      -2.293  14.196  22.068  0.00  0.00    +0.000 C 
ATOM      7  C   UNL     1      -1.579  14.704  20.803  0.00  0.00    +0.000 A 
ATOM      8  C   UNL     1      -1.292  16.078  20.697  0.00  0.00    +0.000 A 
ATOM      9  C   UNL     1      -0.529  16.567  19.636  0.00  0.00    +0.000 A 
ATOM     10  C   UNL     1      -0.013  15.684  18.695  0.00  0.00    +0.000 A 
ATOM     11  C   UNL     1      -0.305  14.316  18.770  0.00  0.00    +0.000 A 
ATOM     12  C   UNL     1      -1.126  13.818  19.791  0.00  0.00    +0.000 A 
ENDROOT
BRANCH   6  13
ATOM     13  C   UNL     1      -3.739  13.674  21.956  0.00  0.00    +0.000 A 
ATOM     14  C   UNL     1      -4.363  13.694  20.688  0.00  0.00    +0.000 A 
ATOM     15  C   UNL     1      -5.719  13.406  20.511  0.00  0.00    +0.000 A 
ATOM     16  C   UNL     1      -6.486  13.011  21.594  0.00  0.00    +0.000 A 
ATOM     17  C   UNL     1      -5.875  12.855  22.833  0.00  0.00    +0.000 A 
ATOM     18  C   UNL     1      -4.515  13.158  23.016  0.00  0.00    +0.000 A 
ATOM     19 CL   UNL     1      -3.908  12.842  24.601  0.00  0.00    +0.000 Cl
ENDBRANCH   6  13
BRANCH   1  20
ATOM     20  C   UNL     1      -1.738  11.638  18.469  0.00  0.00    +0.000 C 
BRANCH  20  22
ATOM     21  C   UNL     1      -4.153  11.783  17.531  0.00  0.00    +0.000 C 
ATOM     22  C   UNL     1      -3.121  10.937  18.285  0.00  0.00    +0.000 C 
ATOM     23  C   UNL     1      -2.957   9.607  17.544  0.00  0.00    +0.000 C 
ENDBRANCH  20  22
ENDBRANCH   1  20
BRANCH   4  24
ATOM     24  C   UNL     1      -1.392  10.691  23.121  0.00  0.00    +0.000 C 
BRANCH  24  25
ATOM     25  C   UNL     1      -0.365   9.569  23.183  0.00  0.00    +0.000 C 
ATOM     26  O   UNL     1       0.722   9.703  23.732  0.00  0.00    +0.000 OA
BRANCH  25  27
ATOM     27  O   UNL     1      -0.743   8.407  22.608  0.00  0.00    +0.000 OA
ATOM     28  H   UNL     1      -0.278   7.653  23.038  0.00  0.00    +0.000 HD
ENDBRANCH  25  27
ENDBRANCH  24  25
ENDBRANCH   4  24
TORSDOF 6
ENDMDL
MODEL 7
REMARK VINA RESULT:      -5.9      9.702     11.978
REMARK  Name = 
REMARK  8 active torsions:
REMARK  status: ('A' for Active; 'I' for Inactive)
REMARK    1  A    between atoms: C_1  and  C_2
REMARK    2  A    between atoms: C_2  and  C_3
REMARK    3  A    between atoms: C_2  and  C_4
REMARK    4  A    between atoms: C_4  and  C_5
REMARK    5  A    between atoms: N_8  and  C_9
REMARK    6  A    between atoms: C_9  and  C_10
REMARK    7  A    between atoms: C_10  and  O_12
REMARK    8  A    between atoms: C_14  and  C_15
REMARK                            x       y       z     vdW  Elec       q    Type
REMARK                         _______ _______ _______ _____ _____    ______ ____
ROOT
ATOM      1  C   UNL     1       8.658  14.909  21.550  0.00  0.00    +0.000 C 
ATOM      2  C   UNL     1       7.818  15.673  20.526  0.00  0.00    +0.000 C 
ATOM      3  O   UNL     1       6.602  15.832  20.626  0.00  0.00    +0.000 OA
ATOM      4  N   UNL     1       8.463  16.081  19.368  0.00  0.00    +0.000 N 
ATOM      5  C   UNL     1       9.825  16.672  19.343  0.00  0.00    +0.000 C 
ATOM      6  C   UNL     1      10.999  15.833  19.969  0.00  0.00    +0.000 C 
ATOM      7  C   UNL     1      10.894  16.079  21.484  0.00  0.00    +0.000 A 
ATOM      8  C   UNL     1      11.963  16.722  22.137  0.00  0.00    +0.000 A 
ATOM      9  C   UNL     1      11.861  17.088  23.480  0.00  0.00    +0.000 A 
ATOM     10  C   UNL     1      10.678  16.853  24.169  0.00  0.00    +0.000 A 
ATOM     11  C   UNL     1       9.610  16.196  23.544  0.00  0.00    +0.000 A 
ATOM     12  C   UNL     1       9.721  15.760  22.217  0.00  0.00    +0.000 A 
ENDROOT
BRANCH   6  13
ATOM     13  C   UNL     1      11.135  14.388  19.450  0.00  0.00    +0.000 A 
ATOM     14  C   UNL     1      11.069  13.330  20.386  0.00  0.00    +0.000 A 
ATOM     15  C   UNL     1      11.351  12.004  20.046  0.00  0.00    +0.000 A 
ATOM     16  C   UNL     1      11.636  11.677  18.732  0.00  0.00    +0.000 A 
ATOM     17  C   UNL     1      11.582  12.671  17.760  0.00  0.00    +0.000 A 
ATOM     18  C   UNL     1      11.313  14.007  18.103  0.00  0.00    +0.000 A 
ATOM     19 CL   UNL     1      11.218  15.094  16.766  0.00  0.00    +0.000 Cl
ENDBRANCH   6  13
BRANCH   1  20
ATOM     20  C   UNL     1       7.803  13.991  22.458  0.00  0.00    +0.000 C 
BRANCH  20  22
ATOM     21  C   UNL     1       8.336  12.620  24.595  0.00  0.00    +0.000 C 
ATOM     22  C   UNL     1       8.615  12.824  23.101  0.00  0.00    +0.000 C 
ATOM     23  C   UNL     1       8.332  11.505  22.376  0.00  0.00    +0.000 C 
ENDBRANCH  20  22
ENDBRANCH   1  20
BRANCH   4  24
ATOM     24  C   UNL     1       7.725  15.910  18.102  0.00  0.00    +0.000 C 
BRANCH  24  25
ATOM     25  C   UNL     1       7.163  14.545  17.732  0.00  0.00    +0.000 C 
ATOM     26  O   UNL     1       5.960  14.308  17.727  0.00  0.00    +0.000 OA
BRANCH  25  27
ATOM     27  O   UNL     1       8.080  13.614  17.389  0.00  0.00    +0.000 OA
ATOM     28  H   UNL     1       8.874  14.051  17.003  0.00  0.00    +0.000 HD
ENDBRANCH  25  27
ENDBRANCH  24  25
ENDBRANCH   4  24
TORSDOF 6
ENDMDL
MODEL 8
REMARK VINA RESULT:      -5.9      3.247      5.502
REMARK  Name = 
REMARK  8 active torsions:
REMARK  status: ('A' for Active; 'I' for Inactive)
REMARK    1  A    between atoms: C_1  and  C_2
REMARK    2  A    between atoms: C_2  and  C_3
REMARK    3  A    between atoms: C_2  and  C_4
REMARK    4  A    between atoms: C_4  and  C_5
REMARK    5  A    between atoms: N_8  and  C_9
REMARK    6  A    between atoms: C_9  and  C_10
REMARK    7  A    between atoms: C_10  and  O_12
REMARK    8  A    between atoms: C_14  and  C_15
REMARK                            x       y       z     vdW  Elec       q    Type
REMARK                         _______ _______ _______ _____ _____    ______ ____
ROOT
ATOM      1  C   UNL     1       0.380   9.918  18.238  0.00  0.00    +0.000 C 
ATOM      2  C   UNL     1       1.330  11.110  18.115  0.00  0.00    +0.000 C 
ATOM      3  O   UNL     1       2.345  11.103  17.420  0.00  0.00    +0.000 OA
ATOM      4  N   UNL     1       1.082  12.194  18.943  0.00  0.00    +0.000 N 
ATOM      5  C   UNL     1      -0.273  12.741  19.209  0.00  0.00    +0.000 C 
ATOM      6  C   UNL     1      -1.356  11.761  19.793  0.00  0.00    +0.000 C 
ATOM      7  C   UNL     1      -1.883  10.983  18.574  0.00  0.00    +0.000 A 
ATOM      8  C   UNL     1      -3.239  11.123  18.221  0.00  0.00    +0.000 A 
ATOM      9  C   UNL     1      -3.733  10.549  17.049  0.00  0.00    +0.000 A 
ATOM     10  C   UNL     1      -2.870   9.865  16.201  0.00  0.00    +0.000 A 
ATOM     11  C   UNL     1      -1.523   9.697  16.544  0.00  0.00    +0.000 A 
ATOM     12  C   UNL     1      -1.025  10.209  17.750  0.00  0.00    +0.000 A 
ENDROOT
BRANCH   6  13
ATOM     13  C   UNL     1      -0.937  10.983  21.056  0.00  0.00    +0.000 A 
ATOM     14  C   UNL     1      -0.500   9.647  20.907  0.00  0.00    +0.000 A 
ATOM     15  C   UNL     1      -0.265   8.805  21.997  0.00  0.00    +0.000 A 
ATOM     16  C   UNL     1      -0.386   9.297  23.285  0.00  0.00    +0.000 A 
ATOM     17  C   UNL     1      -0.688  10.642  23.470  0.00  0.00    +0.000 A 
ATOM     18  C   UNL     1      -0.940  11.486  22.374  0.00  0.00    +0.000 A 
ATOM     19 CL   UNL     1      -1.232  13.138  22.784  0.00  0.00    +0.000 Cl
ENDBRANCH   6  13
BRANCH   1  20
ATOM     20  C   UNL     1       1.033   8.587  17.789  0.00  0.00    +0.000 C 
BRANCH  20  22
ATOM     21  C   UNL     1       2.110   7.271  19.749  0.00  0.00    +0.000 C 
ATOM     22  C   UNL     1       2.333   8.236  18.578  0.00  0.00    +0.000 C 
ATOM     23  C   UNL     1       3.383   7.624  17.646  0.00  0.00    +0.000 C 
ENDBRANCH  20  22
ENDBRANCH   1  20
BRANCH   4  24
ATOM     24  C   UNL     1       2.253  12.826  19.579  0.00  0.00    +0.000 C 
BRANCH  24  25
ATOM     25  C   UNL     1       2.861  14.081  18.969  0.00  0.00    +0.000 C 
ATOM     26  O   UNL     1       2.841  15.166  19.540  0.00  0.00    +0.000 OA
BRANCH  25  27
ATOM     27  O   UNL     1       3.443  13.914  17.762  0.00  0.00    +0.000 OA
ATOM     28  H   UNL     1       2.890  13.324  17.200  0.00  0.00    +0.000 HD
ENDBRANCH  25  27
ENDBRANCH  24  25
ENDBRANCH   4  24
TORSDOF 6
ENDMDL
MODEL 9
REMARK VINA RESULT:      -5.9      2.923      5.215
REMARK  Name = 
REMARK  8 active torsions:
REMARK  status: ('A' for Active; 'I' for Inactive)
REMARK    1  A    between atoms: C_1  and  C_2
REMARK    2  A    between atoms: C_2  and  C_3
REMARK    3  A    between atoms: C_2  and  C_4
REMARK    4  A    between atoms: C_4  and  C_5
REMARK    5  A    between atoms: N_8  and  C_9
REMARK    6  A    between atoms: C_9  and  C_10
REMARK    7  A    between atoms: C_10  and  O_12
REMARK    8  A    between atoms: C_14  and  C_15
REMARK                            x       y       z     vdW  Elec       q    Type
REMARK                         _______ _______ _______ _____ _____    ______ ____
ROOT
ATOM      1  C   UNL     1      -0.100  10.676  19.095  0.00  0.00    +0.000 C 
ATOM      2  C   UNL     1       1.002  11.662  18.704  0.00  0.00    +0.000 C 
ATOM      3  O   UNL     1       2.147  11.323  18.413  0.00  0.00    +0.000 OA
ATOM      4  N   UNL     1       0.703  13.011  18.823  0.00  0.00    +0.000 N 
ATOM      5  C   UNL     1      -0.589  13.613  18.409  0.00  0.00    +0.000 C 
ATOM      6  C   UNL     1      -1.905  13.036  19.048  0.00  0.00    +0.000 C 
ATOM      7  C   UNL     1      -2.211  11.763  18.240  0.00  0.00    +0.000 A 
ATOM      8  C   UNL     1      -3.404  11.709  17.495  0.00  0.00    +0.000 A 
ATOM      9  C   UNL     1      -3.664  10.637  16.641  0.00  0.00    +0.000 A 
ATOM     10  C   UNL     1      -2.717   9.631  16.492  0.00  0.00    +0.000 A 
ATOM     11  C   UNL     1      -1.532   9.655  17.240  0.00  0.00    +0.000 A 
ATOM     12  C   UNL     1      -1.287  10.689  18.153  0.00  0.00    +0.000 A 
ENDROOT
BRANCH   6  13
ATOM     13  C   UNL     1      -1.922  12.969  20.589  0.00  0.00    +0.000 A 
ATOM     14  C   UNL     1      -0.750  13.334  21.289  0.00  0.00    +0.000 A 
ATOM     15  C   UNL     1      -0.605  13.146  22.666  0.00  0.00    +0.000 A 
ATOM     16  C   UNL     1      -1.665  12.653  23.408  0.00  0.00    +0.000 A 
ATOM     17  C   UNL     1      -2.878  12.406  22.773  0.00  0.00    +0.000 A 
ATOM     18  C   UNL     1      -3.020  12.581  21.386  0.00  0.00    +0.000 A 
ATOM     19 CL   UNL     1      -4.609  12.293  20.777  0.00  0.00    +0.000 Cl
ENDBRANCH   6  13
BRANCH   1  20
ATOM     20  C   UNL     1       0.460   9.296  19.523  0.00  0.00    +0.000 C 
BRANCH  20  22
ATOM     21  C   UNL     1      -0.346   9.432  21.986  0.00  0.00    +0.000 C 
ATOM     22  C   UNL     1       0.839   9.222  21.036  0.00  0.00    +0.000 C 
ATOM     23  C   UNL     1       1.486   7.874  21.365  0.00  0.00    +0.000 C 
ENDBRANCH  20  22
ENDBRANCH   1  20
BRANCH   4  24
ATOM     24  C   UNL     1       1.753  13.876  19.394  0.00  0.00    +0.000 C 
BRANCH  24  25
ATOM     25  C   UNL     1       2.603  14.742  18.475  0.00  0.00    +0.000 C 
ATOM     26  O   UNL     1       2.576  15.966  18.514  0.00  0.00    +0.000 OA
BRANCH  25  27
ATOM     27  O   UNL     1       3.406  14.067  17.624  0.00  0.00    +0.000 OA
ATOM     28  H   UNL     1       4.176  14.627  17.373  0.00  0.00    +0.000 HD
ENDBRANCH  25  27
ENDBRANCH  24  25
ENDBRANCH   4  24
TORSDOF 6
ENDMDL
