MODEL 1
REMARK VINA RESULT:      -8.2      0.000      0.000
REMARK  Name = 
REMARK  3 active torsions:
REMARK  status: ('A' for Active; 'I' for Inactive)
REMARK    1  A    between atoms: C_2  and  C_3
REMARK    2  A    between atoms: N_16  and  C_17
REMARK    3  A    between atoms: C_17  and  C_18
REMARK                            x       y       z     vdW  Elec       q    Type
REMARK                         _______ _______ _______ _____ _____    ______ ____
ROOT
ATOM      1  O   UNL     1       2.074   9.431  17.497  0.00  0.00    +0.000 OA
ATOM      2  C   UNL     1       1.745   8.961  18.588  0.00  0.00    +0.000 C 
ATOM      3  N   UNL     1       1.116   9.734  19.560  0.00  0.00    +0.000 N 
ATOM      4  C   UNL     1       0.320   9.210  20.678  0.00  0.00    +0.000 C 
ATOM      5  C   UNL     1       0.534  10.045  21.957  0.00  0.00    +0.000 C 
ATOM      6  N   UNL     1       0.300  11.497  21.765  0.00  0.00    +0.000 NA
ATOM      7  C   UNL     1       1.165  11.950  20.645  0.00  0.00    +0.000 C 
ATOM      8  C   UNL     1       0.981  11.170  19.331  0.00  0.00    +0.000 C 
ENDROOT
BRANCH   2   9
ATOM      9  C   UNL     1       2.025   7.559  18.903  0.00  0.00    +0.000 A 
ATOM     10  C   UNL     1       2.465   6.605  18.004  0.00  0.00    +0.000 A 
ATOM     11  N   UNL     1       2.621   5.452  18.723  0.00  0.00    +0.000 N 
ATOM     12  C   UNL     1       3.046   4.199  18.305  0.00  0.00    +0.000 A 
ATOM     13  C   UNL     1       3.118   3.207  19.209  0.00  0.00    +0.000 A 
ATOM     14 CL   UNL     1       3.670   1.640  18.783  0.00  0.00    +0.000 Cl
ATOM     15  C   UNL     1       2.727   3.466  20.588  0.00  0.00    +0.000 A 
ATOM     16  C   UNL     1       2.318   4.687  20.982  0.00  0.00    +0.000 A 
ATOM     17  C   UNL     1       2.271   5.743  20.036  0.00  0.00    +0.000 A 
ATOM     18  N   UNL     1       1.945   7.007  20.172  0.00  0.00    +0.000 NA
ENDBRANCH   2   9
BRANCH   6  19
ATOM     19  C   UNL     1      -1.139  11.746  21.551  0.00  0.00    +0.000 C 
BRANCH  19  20
ATOM     20  C   UNL     1      -1.733  12.733  22.527  0.00  0.00    +0.000 A 
ATOM     21  C   UNL     1      -3.044  12.553  23.023  0.00  0.00    +0.000 A 
ATOM     22  C   UNL     1      -3.528  13.347  24.064  0.00  0.00    +0.000 A 
ATOM     23  C   UNL     1      -2.671  14.283  24.599  0.00  0.00    +0.000 A 
ATOM     24  C   UNL     1      -1.411  14.495  24.086  0.00  0.00    +0.000 A 
ATOM     25  C   UNL     1      -0.923  13.762  23.034  0.00  0.00    +0.000 A 
ATOM     26  O   UNL     1      -0.711  15.423  24.794  0.00  0.00    +0.000 OA
ATOM     27  C   UNL     1      -1.567  15.536  25.947  0.00  0.00    +0.000 C 
ATOM     28  O   UNL     1      -2.904  15.049  25.701  0.00  0.00    +0.000 OA
ENDBRANCH  19  20
ENDBRANCH   6  19
TORSDOF 3
ENDMDL
MODEL 2
REMARK VINA RESULT:      -7.8      3.740      5.883
REMARK  Name = 
REMARK  3 active torsions:
REMARK  status: ('A' for Active; 'I' for Inactive)
REMARK    1  A    between atoms: C_2  and  C_3
REMARK    2  A    between atoms: N_16  and  C_17
REMARK    3  A    between atoms: C_17  and  C_18
REMARK                            x       y       z     vdW  Elec       q    Type
REMARK                         _______ _______ _______ _____ _____    ______ ____
ROOT
ATOM      1  O   UNL     1       4.885   2.908  19.702  0.00  0.00    +0.000 OA
ATOM      2  C   UNL     1       4.570   3.894  19.032  0.00  0.00    +0.000 C 
ATOM      3  N   UNL     1       3.652   4.832  19.495  0.00  0.00    +0.000 N 
ATOM      4  C   UNL     1       3.525   6.211  19.003  0.00  0.00    +0.000 C 
ATOM      5  C   UNL     1       2.050   6.657  18.961  0.00  0.00    +0.000 C 
ATOM      6  N   UNL     1       1.339   6.479  20.251  0.00  0.00    +0.000 NA
ATOM      7  C   UNL     1       1.486   5.057  20.657  0.00  0.00    +0.000 C 
ATOM      8  C   UNL     1       2.940   4.558  20.740  0.00  0.00    +0.000 C 
ENDROOT
BRANCH   2   9
ATOM      9  C   UNL     1       5.149   4.098  17.704  0.00  0.00    +0.000 A 
ATOM     10  C   UNL     1       6.297   4.817  17.427  0.00  0.00    +0.000 A 
ATOM     11  N   UNL     1       6.484   4.727  16.076  0.00  0.00    +0.000 N 
ATOM     12  C   UNL     1       7.490   5.264  15.284  0.00  0.00    +0.000 A 
ATOM     13  C   UNL     1       7.457   5.037  13.959  0.00  0.00    +0.000 A 
ATOM     14 CL   UNL     1       8.683   5.631  12.916  0.00  0.00    +0.000 Cl
ATOM     15  C   UNL     1       6.362   4.262  13.392  0.00  0.00    +0.000 A 
ATOM     16  C   UNL     1       5.393   3.745  14.172  0.00  0.00    +0.000 A 
ATOM     17  C   UNL     1       5.443   3.957  15.573  0.00  0.00    +0.000 A 
ATOM     18  N   UNL     1       4.652   3.541  16.535  0.00  0.00    +0.000 NA
ENDBRANCH   2   9
BRANCH   6  19
ATOM     19  C   UNL     1       1.856   7.443  21.242  0.00  0.00    +0.000 C 
BRANCH  19  20
ATOM     20  C   UNL     1       1.115   8.758  21.249  0.00  0.00    +0.000 A 
ATOM     21  C   UNL     1       0.765   9.393  20.036  0.00  0.00    +0.000 A 
ATOM     22  C   UNL     1      -0.082  10.503  20.029  0.00  0.00    +0.000 A 
ATOM     23  C   UNL     1      -0.578  10.928  21.242  0.00  0.00    +0.000 A 
ATOM     24  C   UNL     1      -0.202  10.344  22.430  0.00  0.00    +0.000 A 
ATOM     25  C   UNL     1       0.664   9.280  22.473  0.00  0.00    +0.000 A 
ATOM     26  O   UNL     1      -0.851  10.878  23.500  0.00  0.00    +0.000 OA
ATOM     27  C   UNL     1      -1.859  11.640  22.810  0.00  0.00    +0.000 C 
ATOM     28  O   UNL     1      -1.521  11.894  21.430  0.00  0.00    +0.000 OA
ENDBRANCH  19  20
ENDBRANCH   6  19
TORSDOF 3
ENDMDL
MODEL 3
REMARK VINA RESULT:      -7.8      0.798      1.275
REMARK  Name = 
REMARK  3 active torsions:
REMARK  status: ('A' for Active; 'I' for Inactive)
REMARK    1  A    between atoms: C_2  and  C_3
REMARK    2  A    between atoms: N_16  and  C_17
REMARK    3  A    between atoms: C_17  and  C_18
REMARK                            x       y       z     vdW  Elec       q    Type
REMARK                         _______ _______ _______ _____ _____    ______ ____
ROOT
ATOM      1  O   UNL     1       2.129   9.578  17.372  0.00  0.00    +0.000 OA
ATOM      2  C   UNL     1       1.787   9.140  18.473  0.00  0.00    +0.000 C 
ATOM      3  N   UNL     1       1.165   9.947  19.422  0.00  0.00    +0.000 N 
ATOM      4  C   UNL     1       0.355   9.463  20.548  0.00  0.00    +0.000 C 
ATOM      5  C   UNL     1       0.575  10.326  21.807  0.00  0.00    +0.000 C 
ATOM      6  N   UNL     1       0.364  11.775  21.578  0.00  0.00    +0.000 NA
ATOM      7  C   UNL     1       1.242  12.188  20.452  0.00  0.00    +0.000 C 
ATOM      8  C   UNL     1       1.052  11.379  19.156  0.00  0.00    +0.000 C 
ENDROOT
BRANCH   2   9
ATOM      9  C   UNL     1       2.044   7.743  18.823  0.00  0.00    +0.000 A 
ATOM     10  C   UNL     1       1.961   7.202  20.092  0.00  0.00    +0.000 A 
ATOM     11  N   UNL     1       2.252   5.873  19.957  0.00  0.00    +0.000 N 
ATOM     12  C   UNL     1       2.303   4.875  20.921  0.00  0.00    +0.000 A 
ATOM     13  C   UNL     1       2.620   3.626  20.540  0.00  0.00    +0.000 A 
ATOM     14 CL   UNL     1       2.666   2.329  21.662  0.00  0.00    +0.000 Cl
ATOM     15  C   UNL     1       2.923   3.360  19.141  0.00  0.00    +0.000 A 
ATOM     16  C   UNL     1       2.869   4.336  18.215  0.00  0.00    +0.000 A 
ATOM     17  C   UNL     1       2.504   5.649  18.610  0.00  0.00    +0.000 A 
ATOM     18  N   UNL     1       2.351   6.747  17.907  0.00  0.00    +0.000 NA
ENDBRANCH   2   9
BRANCH   6  19
ATOM     19  C   UNL     1      -1.070  12.041  21.350  0.00  0.00    +0.000 C 
BRANCH  19  20
ATOM     20  C   UNL     1      -1.681  12.974  22.367  0.00  0.00    +0.000 A 
ATOM     21  C   UNL     1      -3.023  12.807  22.781  0.00  0.00    +0.000 A 
ATOM     22  C   UNL     1      -3.534  13.539  23.854  0.00  0.00    +0.000 A 
ATOM     23  C   UNL     1      -2.675  14.398  24.502  0.00  0.00    +0.000 A 
ATOM     24  C   UNL     1      -1.383  14.600  24.073  0.00  0.00    +0.000 A 
ATOM     25  C   UNL     1      -0.864  13.930  22.993  0.00  0.00    +0.000 A 
ATOM     26  O   UNL     1      -0.691  15.444  24.885  0.00  0.00    +0.000 OA
ATOM     27  C   UNL     1      -1.603  15.502  25.998  0.00  0.00    +0.000 C 
ATOM     28  O   UNL     1      -2.940  15.087  25.648  0.00  0.00    +0.000 OA
ENDBRANCH  19  20
ENDBRANCH   6  19
TORSDOF 3
ENDMDL
MODEL 4
REMARK VINA RESULT:      -7.8      3.680      5.791
REMARK  Name = 
REMARK  3 active torsions:
REMARK  status: ('A' for Active; 'I' for Inactive)
REMARK    1  A    between atoms: C_2  and  C_3
REMARK    2  A    between atoms: N_16  and  C_17
REMARK    3  A    between atoms: C_17  and  C_18
REMARK                            x       y       z     vdW  Elec       q    Type
REMARK                         _______ _______ _______ _____ _____    ______ ____
ROOT
ATOM      1  O   UNL     1       4.807   2.876  19.793  0.00  0.00    +0.000 OA
ATOM      2  C   UNL     1       4.555   3.856  19.089  0.00  0.00    +0.000 C 
ATOM      3  N   UNL     1       3.660   4.841  19.496  0.00  0.00    +0.000 N 
ATOM      4  C   UNL     1       3.606   6.211  18.968  0.00  0.00    +0.000 C 
ATOM      5  C   UNL     1       2.152   6.713  18.862  0.00  0.00    +0.000 C 
ATOM      6  N   UNL     1       1.389   6.596  20.128  0.00  0.00    +0.000 NA
ATOM      7  C   UNL     1       1.465   5.180  20.573  0.00  0.00    +0.000 C 
ATOM      8  C   UNL     1       2.894   4.626  20.721  0.00  0.00    +0.000 C 
ENDROOT
BRANCH   2   9
ATOM      9  C   UNL     1       5.189   4.005  17.779  0.00  0.00    +0.000 A 
ATOM     10  C   UNL     1       4.744   3.436  16.599  0.00  0.00    +0.000 A 
ATOM     11  N   UNL     1       5.610   3.854  15.627  0.00  0.00    +0.000 N 
ATOM     12  C   UNL     1       5.614   3.577  14.267  0.00  0.00    +0.000 A 
ATOM     13  C   UNL     1       6.584   4.109  13.504  0.00  0.00    +0.000 A 
ATOM     14 CL   UNL     1       6.639   3.849  11.809  0.00  0.00    +0.000 Cl
ATOM     15  C   UNL     1       7.611   4.936  14.124  0.00  0.00    +0.000 A 
ATOM     16  C   UNL     1       7.595   5.198  15.445  0.00  0.00    +0.000 A 
ATOM     17  C   UNL     1       6.555   4.663  16.247  0.00  0.00    +0.000 A 
ATOM     18  N   UNL     1       6.301   4.795  17.528  0.00  0.00    +0.000 NA
ENDBRANCH   2   9
BRANCH   6  19
ATOM     19  C   UNL     1       1.909   7.564  21.115  0.00  0.00    +0.000 C 
BRANCH  19  20
ATOM     20  C   UNL     1       1.115   8.846  21.180  0.00  0.00    +0.000 A 
ATOM     21  C   UNL     1       0.681   9.484  19.995  0.00  0.00    +0.000 A 
ATOM     22  C   UNL     1      -0.210  10.557  20.048  0.00  0.00    +0.000 A 
ATOM     23  C   UNL     1      -0.666  10.942  21.290  0.00  0.00    +0.000 A 
ATOM     24  C   UNL     1      -0.210  10.355  22.448  0.00  0.00    +0.000 A 
ATOM     25  C   UNL     1       0.701   9.329  22.432  0.00  0.00    +0.000 A 
ATOM     26  O   UNL     1      -0.829  10.844  23.557  0.00  0.00    +0.000 OA
ATOM     27  C   UNL     1      -1.900  11.574  22.928  0.00  0.00    +0.000 C 
ATOM     28  O   UNL     1      -1.638  11.863  21.538  0.00  0.00    +0.000 OA
ENDBRANCH  19  20
ENDBRANCH   6  19
TORSDOF 3
ENDMDL
MODEL 5
REMARK VINA RESULT:      -7.8      0.915      1.567
REMARK  Name = 
REMARK  3 active torsions:
REMARK  status: ('A' for Active; 'I' for Inactive)
REMARK    1  A    between atoms: C_2  and  C_3
REMARK    2  A    between atoms: N_16  and  C_17
REMARK    3  A    between atoms: C_17  and  C_18
REMARK                            x       y       z     vdW  Elec       q    Type
REMARK                         _______ _______ _______ _____ _____    ______ ____
ROOT
ATOM      1  O   UNL     1       2.194   9.598  17.555  0.00  0.00    +0.000 OA
ATOM      2  C   UNL     1       1.794   9.092  18.606  0.00  0.00    +0.000 C 
ATOM      3  N   UNL     1       1.110   9.836  19.564  0.00  0.00    +0.000 N 
ATOM      4  C   UNL     1       0.242   9.280  20.611  0.00  0.00    +0.000 C 
ATOM      5  C   UNL     1       0.381  10.067  21.929  0.00  0.00    +0.000 C 
ATOM      6  N   UNL     1       0.169  11.526  21.775  0.00  0.00    +0.000 NA
ATOM      7  C   UNL     1       1.106  12.012  20.728  0.00  0.00    +0.000 C 
ATOM      8  C   UNL     1       0.999  11.280  19.378  0.00  0.00    +0.000 C 
ENDROOT
BRANCH   2   9
ATOM      9  C   UNL     1       2.045   7.678  18.886  0.00  0.00    +0.000 A 
ATOM     10  C   UNL     1       2.433   6.729  17.959  0.00  0.00    +0.000 A 
ATOM     11  N   UNL     1       2.578   5.560  18.652  0.00  0.00    +0.000 N 
ATOM     12  C   UNL     1       2.958   4.303  18.199  0.00  0.00    +0.000 A 
ATOM     13  C   UNL     1       3.027   3.293  19.083  0.00  0.00    +0.000 A 
ATOM     14 CL   UNL     1       3.525   1.720  18.612  0.00  0.00    +0.000 Cl
ATOM     15  C   UNL     1       2.681   3.536  20.476  0.00  0.00    +0.000 A 
ATOM     16  C   UNL     1       2.316   4.760  20.904  0.00  0.00    +0.000 A 
ATOM     17  C   UNL     1       2.272   5.834  19.979  0.00  0.00    +0.000 A 
ATOM     18  N   UNL     1       1.984   7.104  20.148  0.00  0.00    +0.000 NA
ENDBRANCH   2   9
BRANCH   6  19
ATOM     19  C   UNL     1      -1.252  11.796  21.481  0.00  0.00    +0.000 C 
BRANCH  19  20
ATOM     20  C   UNL     1      -1.922  12.687  22.499  0.00  0.00    +0.000 A 
ATOM     21  C   UNL     1      -1.157  13.572  23.293  0.00  0.00    +0.000 A 
ATOM     22  C   UNL     1      -1.780  14.530  24.095  0.00  0.00    +0.000 A 
ATOM     23  C   UNL     1      -3.156  14.593  24.054  0.00  0.00    +0.000 A 
ATOM     24  C   UNL     1      -3.906  13.703  23.320  0.00  0.00    +0.000 A 
ATOM     25  C   UNL     1      -3.325  12.721  22.558  0.00  0.00    +0.000 A 
ATOM     26  O   UNL     1      -5.237  13.977  23.373  0.00  0.00    +0.000 OA
ATOM     27  C   UNL     1      -5.186  15.284  23.977  0.00  0.00    +0.000 C 
ATOM     28  O   UNL     1      -3.934  15.542  24.647  0.00  0.00    +0.000 OA
ENDBRANCH  19  20
ENDBRANCH   6  19
TORSDOF 3
ENDMDL
MODEL 6
REMARK VINA RESULT:      -7.7      4.171     10.240
REMARK  Name = 
REMARK  3 active torsions:
REMARK  status: ('A' for Active; 'I' for Inactive)
REMARK    1  A    between atoms: C_2  and  C_3
REMARK    2  A    between atoms: N_16  and  C_17
REMARK    3  A    between atoms: C_17  and  C_18
REMARK                            x       y       z     vdW  Elec       q    Type
REMARK                         _______ _______ _______ _____ _____    ______ ____
ROOT
ATOM      1  O   UNL     1       1.677   9.883  17.535  0.00  0.00    +0.000 OA
ATOM      2  C   UNL     1       1.558   9.379  18.654  0.00  0.00    +0.000 C 
ATOM      3  N   UNL     1       2.025   8.098  18.935  0.00  0.00    +0.000 N 
ATOM      4  C   UNL     1       2.321   7.577  20.276  0.00  0.00    +0.000 C 
ATOM      5  C   UNL     1       1.926   6.091  20.399  0.00  0.00    +0.000 C 
ATOM      6  N   UNL     1       2.517   5.231  19.346  0.00  0.00    +0.000 NA
ATOM      7  C   UNL     1       2.141   5.806  18.028  0.00  0.00    +0.000 C 
ATOM      8  C   UNL     1       2.531   7.282  17.835  0.00  0.00    +0.000 C 
ENDROOT
BRANCH   2   9
ATOM      9  C   UNL     1       0.900  10.120  19.730  0.00  0.00    +0.000 A 
ATOM     10  C   UNL     1       0.967  11.487  19.926  0.00  0.00    +0.000 A 
ATOM     11  N   UNL     1       0.190  11.752  21.019  0.00  0.00    +0.000 N 
ATOM     12  C   UNL     1      -0.088  12.965  21.635  0.00  0.00    +0.000 A 
ATOM     13  C   UNL     1      -0.890  12.971  22.713  0.00  0.00    +0.000 A 
ATOM     14 CL   UNL     1      -1.315  14.431  23.508  0.00  0.00    +0.000 Cl
ATOM     15  C   UNL     1      -1.422  11.713  23.217  0.00  0.00    +0.000 A 
ATOM     16  C   UNL     1      -1.147  10.543  22.610  0.00  0.00    +0.000 A 
ATOM     17  C   UNL     1      -0.325  10.537  21.454  0.00  0.00    +0.000 A 
ATOM     18  N   UNL     1       0.058   9.552  20.675  0.00  0.00    +0.000 NA
ENDBRANCH   2   9
BRANCH   6  19
ATOM     19  C   UNL     1       3.973   5.112  19.557  0.00  0.00    +0.000 C 
BRANCH  19  20
ATOM     20  C   UNL     1       4.720   4.601  18.349  0.00  0.00    +0.000 A 
ATOM     21  C   UNL     1       4.250   3.473  17.638  0.00  0.00    +0.000 A 
ATOM     22  C   UNL     1       4.821   3.111  16.417  0.00  0.00    +0.000 A 
ATOM     23  C   UNL     1       5.831   3.910  15.928  0.00  0.00    +0.000 A 
ATOM     24  C   UNL     1       6.324   4.980  16.639  0.00  0.00    +0.000 A 
ATOM     25  C   UNL     1       5.815   5.334  17.864  0.00  0.00    +0.000 A 
ATOM     26  O   UNL     1       7.277   5.666  15.953  0.00  0.00    +0.000 OA
ATOM     27  C   UNL     1       7.103   5.075  14.651  0.00  0.00    +0.000 C 
ATOM     28  O   UNL     1       6.413   3.808  14.700  0.00  0.00    +0.000 OA
ENDBRANCH  19  20
ENDBRANCH   6  19
TORSDOF 3
ENDMDL
MODEL 7
REMARK VINA RESULT:      -7.7      3.473      5.403
REMARK  Name = 
REMARK  3 active torsions:
REMARK  status: ('A' for Active; 'I' for Inactive)
REMARK    1  A    between atoms: C_2  and  C_3
REMARK    2  A    between atoms: N_16  and  C_17
REMARK    3  A    between atoms: C_17  and  C_18
REMARK                            x       y       z     vdW  Elec       q    Type
REMARK                         _______ _______ _______ _____ _____    ______ ____
ROOT
ATOM      1  O   UNL     1       4.327   2.992  20.024  0.00  0.00    +0.000 OA
ATOM      2  C   UNL     1       4.179   3.993  19.319  0.00  0.00    +0.000 C 
ATOM      3  N   UNL     1       3.343   5.039  19.698  0.00  0.00    +0.000 N 
ATOM      4  C   UNL     1       3.413   6.413  19.180  0.00  0.00    +0.000 C 
ATOM      5  C   UNL     1       2.006   7.022  19.018  0.00  0.00    +0.000 C 
ATOM      6  N   UNL     1       1.183   6.953  20.250  0.00  0.00    +0.000 NA
ATOM      7  C   UNL     1       1.135   5.533  20.684  0.00  0.00    +0.000 C 
ATOM      8  C   UNL     1       2.512   4.874  20.887  0.00  0.00    +0.000 C 
ENDROOT
BRANCH   2   9
ATOM      9  C   UNL     1       4.877   4.102  18.037  0.00  0.00    +0.000 A 
ATOM     10  C   UNL     1       4.465   3.537  16.845  0.00  0.00    +0.000 A 
ATOM     11  N   UNL     1       5.390   3.911  15.909  0.00  0.00    +0.000 N 
ATOM     12  C   UNL     1       5.445   3.619  14.553  0.00  0.00    +0.000 A 
ATOM     13  C   UNL     1       6.469   4.104  13.831  0.00  0.00    +0.000 A 
ATOM     14 CL   UNL     1       6.590   3.822  12.143  0.00  0.00    +0.000 Cl
ATOM     15  C   UNL     1       7.497   4.898  14.489  0.00  0.00    +0.000 A 
ATOM     16  C   UNL     1       7.431   5.177  15.805  0.00  0.00    +0.000 A 
ATOM     17  C   UNL     1       6.335   4.690  16.563  0.00  0.00    +0.000 A 
ATOM     18  N   UNL     1       6.029   4.847  17.830  0.00  0.00    +0.000 NA
ENDBRANCH   2   9
BRANCH   6  19
ATOM     19  C   UNL     1       1.731   7.874  21.267  0.00  0.00    +0.000 C 
BRANCH  19  20
ATOM     20  C   UNL     1       0.814   9.028  21.594  0.00  0.00    +0.000 A 
ATOM     21  C   UNL     1      -0.015   8.986  22.738  0.00  0.00    +0.000 A 
ATOM     22  C   UNL     1      -0.718  10.119  23.151  0.00  0.00    +0.000 A 
ATOM     23  C   UNL     1      -0.547  11.273  22.419  0.00  0.00    +0.000 A 
ATOM     24  C   UNL     1       0.219  11.306  21.277  0.00  0.00    +0.000 A 
ATOM     25  C   UNL     1       0.887  10.197  20.819  0.00  0.00    +0.000 A 
ATOM     26  O   UNL     1       0.300  12.553  20.740  0.00  0.00    +0.000 OA
ATOM     27  C   UNL     1      -0.256  13.315  21.828  0.00  0.00    +0.000 C 
ATOM     28  O   UNL     1      -1.029  12.506  22.740  0.00  0.00    +0.000 OA
ENDBRANCH  19  20
ENDBRANCH   6  19
TORSDOF 3
ENDMDL
MODEL 8
REMARK VINA RESULT:      -7.7      3.664      5.833
REMARK  Name = 
REMARK  3 active torsions:
REMARK  status: ('A' for Active; 'I' for Inactive)
REMARK    1  A    between atoms: C_2  and  C_3
REMARK    2  A    between atoms: N_16  and  C_17
REMARK    3  A    between atoms: C_17  and  C_18
REMARK                            x       y       z     vdW  Elec       q    Type
REMARK                         _______ _______ _______ _____ _____    ______ ____
ROOT
ATOM      1  O   UNL     1       4.866   3.039  19.763  0.00  0.00    +0.000 OA
ATOM      2  C   UNL     1       4.535   3.996  19.061  0.00  0.00    +0.000 C 
ATOM      3  N   UNL     1       3.603   4.936  19.494  0.00  0.00    +0.000 N 
ATOM      4  C   UNL     1       3.455   6.295  18.956  0.00  0.00    +0.000 C 
ATOM      5  C   UNL     1       1.972   6.717  18.902  0.00  0.00    +0.000 C 
ATOM      6  N   UNL     1       1.267   6.572  20.198  0.00  0.00    +0.000 NA
ATOM      7  C   UNL     1       1.437   5.167  20.652  0.00  0.00    +0.000 C 
ATOM      8  C   UNL     1       2.898   4.693  20.749  0.00  0.00    +0.000 C 
ENDROOT
BRANCH   2   9
ATOM      9  C   UNL     1       5.109   4.165  17.725  0.00  0.00    +0.000 A 
ATOM     10  C   UNL     1       6.250   4.884  17.423  0.00  0.00    +0.000 A 
ATOM     11  N   UNL     1       6.434   4.754  16.075  0.00  0.00    +0.000 N 
ATOM     12  C   UNL     1       7.434   5.273  15.264  0.00  0.00    +0.000 A 
ATOM     13  C   UNL     1       7.399   5.006  13.947  0.00  0.00    +0.000 A 
ATOM     14 CL   UNL     1       8.617   5.577  12.882  0.00  0.00    +0.000 Cl
ATOM     15  C   UNL     1       6.308   4.206  13.407  0.00  0.00    +0.000 A 
ATOM     16  C   UNL     1       5.346   3.706  14.205  0.00  0.00    +0.000 A 
ATOM     17  C   UNL     1       5.397   3.961  15.599  0.00  0.00    +0.000 A 
ATOM     18  N   UNL     1       4.612   3.568  16.576  0.00  0.00    +0.000 NA
ENDBRANCH   2   9
BRANCH   6  19
ATOM     19  C   UNL     1       1.770   7.577  21.155  0.00  0.00    +0.000 C 
BRANCH  19  20
ATOM     20  C   UNL     1       0.826   8.736  21.368  0.00  0.00    +0.000 A 
ATOM     21  C   UNL     1       0.273   8.988  22.644  0.00  0.00    +0.000 A 
ATOM     22  C   UNL     1      -0.443  10.161  22.892  0.00  0.00    +0.000 A 
ATOM     23  C   UNL     1      -0.560  11.062  21.857  0.00  0.00    +0.000 A 
ATOM     24  C   UNL     1      -0.066  10.799  20.600  0.00  0.00    +0.000 A 
ATOM     25  C   UNL     1       0.603   9.635  20.312  0.00  0.00    +0.000 A 
ATOM     26  O   UNL     1      -0.239  11.842  19.744  0.00  0.00    +0.000 OA
ATOM     27  C   UNL     1      -0.626  12.860  20.687  0.00  0.00    +0.000 C 
ATOM     28  O   UNL     1      -1.092  12.314  21.939  0.00  0.00    +0.000 OA
ENDBRANCH  19  20
ENDBRANCH   6  19
TORSDOF 3
ENDMDL
MODEL 9
REMARK VINA RESULT:      -7.6      1.321      2.117
REMARK  Name = 
REMARK  3 active torsions:
REMARK  status: ('A' for Active; 'I' for Inactive)
REMARK    1  A    between atoms: C_2  and  C_3
REMARK    2  A    between atoms: N_16  and  C_17
REMARK    3  A    between atoms: C_17  and  C_18
REMARK                            x       y       z     vdW  Elec       q    Type
REMARK                         _______ _______ _______ _____ _____    ______ ____
ROOT
ATOM      1  O   UNL     1       1.661   9.407  17.301  0.00  0.00    +0.000 OA
ATOM      2  C   UNL     1       1.784   8.891  18.414  0.00  0.00    +0.000 C 
ATOM      3  N   UNL     1       1.258   9.484  19.560  0.00  0.00    +0.000 N 
ATOM      4  C   UNL     1       0.973   8.787  20.821  0.00  0.00    +0.000 C 
ATOM      5  C   UNL     1       1.292   9.680  22.038  0.00  0.00    +0.000 C 
ATOM      6  N   UNL     1       0.627  11.004  21.993  0.00  0.00    +0.000 NA
ATOM      7  C   UNL     1       0.995  11.652  20.707  0.00  0.00    +0.000 C 
ATOM      8  C   UNL     1       0.678  10.819  19.452  0.00  0.00    +0.000 C 
ENDROOT
BRANCH   2   9
ATOM      9  C   UNL     1       2.511   7.631  18.566  0.00  0.00    +0.000 A 
ATOM     10  C   UNL     1       2.232   6.646  19.495  0.00  0.00    +0.000 A 
ATOM     11  N   UNL     1       3.132   5.643  19.267  0.00  0.00    +0.000 N 
ATOM     12  C   UNL     1       3.284   4.425  19.915  0.00  0.00    +0.000 A 
ATOM     13  C   UNL     1       4.258   3.594  19.506  0.00  0.00    +0.000 A 
ATOM     14 CL   UNL     1       4.487   2.054  20.227  0.00  0.00    +0.000 Cl
ATOM     15  C   UNL     1       5.137   4.002  18.419  0.00  0.00    +0.000 A 
ATOM     16  C   UNL     1       4.979   5.186  17.797  0.00  0.00    +0.000 A 
ATOM     17  C   UNL     1       3.932   6.051  18.207  0.00  0.00    +0.000 A 
ATOM     18  N   UNL     1       3.555   7.222  17.750  0.00  0.00    +0.000 NA
ENDBRANCH   2   9
BRANCH   6  19
ATOM     19  C   UNL     1      -0.827  10.839  22.188  0.00  0.00    +0.000 C 
BRANCH  19  20
ATOM     20  C   UNL     1      -1.483  12.015  22.870  0.00  0.00    +0.000 A 
ATOM     21  C   UNL     1      -0.796  13.244  23.003  0.00  0.00    +0.000 A 
ATOM     22  C   UNL     1      -1.459  14.386  23.457  0.00  0.00    +0.000 A 
ATOM     23  C   UNL     1      -2.802  14.270  23.737  0.00  0.00    +0.000 A 
ATOM     24  C   UNL     1      -3.464  13.065  23.656  0.00  0.00    +0.000 A 
ATOM     25  C   UNL     1      -2.829  11.915  23.257  0.00  0.00    +0.000 A 
ATOM     26  O   UNL     1      -4.793  13.183  23.920  0.00  0.00    +0.000 OA
ATOM     27  C   UNL     1      -4.915  14.618  23.886  0.00  0.00    +0.000 C 
ATOM     28  O   UNL     1      -3.648  15.291  24.051  0.00  0.00    +0.000 OA
ENDBRANCH  19  20
ENDBRANCH   6  19
TORSDOF 3
ENDMDL
