MODEL 1
REMARK VINA RESULT:      -7.8      0.000      0.000
REMARK  Name = 
REMARK  10 active torsions:
REMARK  status: ('A' for Active; 'I' for Inactive)
REMARK    1  A    between atoms: C_1  and  O_2
REMARK    2  A    between atoms: O_2  and  C_3
REMARK    3  A    between atoms: C_5  and  C_6
REMARK    4  A    between atoms: C_9  and  S_10
REMARK    5  A    between atoms: S_10  and  C_12
REMARK    6  A    between atoms: C_12  and  C_13
REMARK    7  A    between atoms: C_22  and  O_23
REMARK    8  A    between atoms: O_23  and  C_24
REMARK    9  A    between atoms: C_25  and  O_26
REMARK   10  A    between atoms: O_26  and  C_27
REMARK                            x       y       z     vdW  Elec       q    Type
REMARK                         _______ _______ _______ _____ _____    ______ ____
ROOT
ATOM      1  C   UNL     1       8.480   9.131  18.215  0.00  0.00    +0.000 A 
ATOM      2  N   UNL     1       7.624   8.991  17.221  0.00  0.00    +0.000 NA
ATOM      3  N   UNL     1       7.240   7.665  17.215  0.00  0.00    +0.000 NA
ATOM      4  C   UNL     1       7.861   7.086  18.224  0.00  0.00    +0.000 A 
ATOM      5  O   UNL     1       8.676   7.963  18.900  0.00  0.00    +0.000 OA
ENDROOT
BRANCH   1   8
ATOM      6  C   UNL     1      10.272  12.448  18.187  0.00  0.00    +0.000 A 
ATOM      7  C   UNL     1       9.738  11.208  17.786  0.00  0.00    +0.000 A 
ATOM      8  C   UNL     1       9.157  10.328  18.702  0.00  0.00    +0.000 A 
ATOM      9  C   UNL     1       9.221  10.661  20.055  0.00  0.00    +0.000 A 
ATOM     10  C   UNL     1       9.833  11.853  20.494  0.00  0.00    +0.000 A 
ATOM     11  C   UNL     1      10.359  12.771  19.558  0.00  0.00    +0.000 A 
BRANCH   6  13
ATOM     12  C   UNL     1      12.149  13.246  16.985  0.00  0.00    +0.000 C 
ATOM     13  O   UNL     1      10.745  13.319  17.244  0.00  0.00    +0.000 OA
ENDBRANCH   6  13
BRANCH  10  14
ATOM     14  O   UNL     1       9.796  11.948  21.866  0.00  0.00    +0.000 OA
ATOM     15  C   UNL     1       8.559  12.175  22.525  0.00  0.00    +0.000 C 
ENDBRANCH  10  14
BRANCH  11  16
ATOM     16  O   UNL     1      10.918  13.903  20.083  0.00  0.00    +0.000 OA
ATOM     17  C   UNL     1      10.147  15.078  20.282  0.00  0.00    +0.000 C 
ENDBRANCH  11  16
ENDBRANCH   1   8
BRANCH   4  18
ATOM     18  S   UNL     1       7.728   5.400  18.635  0.00  0.00    +0.000 S 
ATOM     19  O   UNL     1       7.329   5.336  20.156  0.00  0.00    +0.000 OA
BRANCH  18  20
ATOM     20  C   UNL     1       6.302   4.949  17.599  0.00  0.00    +0.000 C 
BRANCH  20  21
ATOM     21  C   UNL     1       5.043   4.736  18.406  0.00  0.00    +0.000 A 
ATOM     22  C   UNL     1       4.739   3.504  18.999  0.00  0.00    +0.000 A 
ATOM     23  C   UNL     1       3.562   3.353  19.729  0.00  0.00    +0.000 A 
ATOM     24  C   UNL     1       2.734   4.450  19.857  0.00  0.00    +0.000 A 
ATOM     25 CL   UNL     1       1.268   4.352  20.742  0.00  0.00    +0.000 Cl
ATOM     26  N   UNL     1       2.992   5.660  19.323  0.00  0.00    +0.000 NA
ATOM     27  C   UNL     1       4.137   5.776  18.615  0.00  0.00    +0.000 A 
ENDBRANCH  20  21
ENDBRANCH  18  20
ENDBRANCH   4  18
TORSDOF 7
ENDMDL
MODEL 2
REMARK VINA RESULT:      -7.5      5.581      7.965
REMARK  Name = 
REMARK  10 active torsions:
REMARK  status: ('A' for Active; 'I' for Inactive)
REMARK    1  A    between atoms: C_1  and  O_2
REMARK    2  A    between atoms: O_2  and  C_3
REMARK    3  A    between atoms: C_5  and  C_6
REMARK    4  A    between atoms: C_9  and  S_10
REMARK    5  A    between atoms: S_10  and  C_12
REMARK    6  A    between atoms: C_12  and  C_13
REMARK    7  A    between atoms: C_22  and  O_23
REMARK    8  A    between atoms: O_23  and  C_24
REMARK    9  A    between atoms: C_25  and  O_26
REMARK   10  A    between atoms: O_26  and  C_27
REMARK                            x       y       z     vdW  Elec       q    Type
REMARK                         _______ _______ _______ _____ _____    ______ ____
ROOT
ATOM      1  C   UNL     1       3.593   3.951  17.073  0.00  0.00    +0.000 A 
ATOM      2  N   UNL     1       2.619   3.109  16.787  0.00  0.00    +0.000 NA
ATOM      3  N   UNL     1       1.686   3.225  17.797  0.00  0.00    +0.000 NA
ATOM      4  C   UNL     1       2.134   4.152  18.621  0.00  0.00    +0.000 A 
ATOM      5  O   UNL     1       3.352   4.652  18.223  0.00  0.00    +0.000 OA
ENDROOT
BRANCH   1   8
ATOM      6  C   UNL     1       6.132   3.978  14.286  0.00  0.00    +0.000 A 
ATOM      7  C   UNL     1       5.062   3.605  15.123  0.00  0.00    +0.000 A 
ATOM      8  C   UNL     1       4.803   4.271  16.323  0.00  0.00    +0.000 A 
ATOM      9  C   UNL     1       5.707   5.251  16.732  0.00  0.00    +0.000 A 
ATOM     10  C   UNL     1       6.840   5.579  15.959  0.00  0.00    +0.000 A 
ATOM     11  C   UNL     1       7.060   4.949  14.714  0.00  0.00    +0.000 A 
BRANCH   6  13
ATOM     12  C   UNL     1       5.150   3.387  12.214  0.00  0.00    +0.000 C 
ATOM     13  O   UNL     1       6.291   3.360  13.075  0.00  0.00    +0.000 OA
ENDBRANCH   6  13
BRANCH  10  14
ATOM     14  O   UNL     1       7.592   6.550  16.578  0.00  0.00    +0.000 OA
ATOM     15  C   UNL     1       7.450   6.771  17.974  0.00  0.00    +0.000 C 
ENDBRANCH  10  14
BRANCH  11  16
ATOM     16  O   UNL     1       8.178   5.349  14.034  0.00  0.00    +0.000 OA
ATOM     17  C   UNL     1       8.106   5.746  12.673  0.00  0.00    +0.000 C 
ENDBRANCH  11  16
ENDBRANCH   1   8
BRANCH   4  18
ATOM     18  S   UNL     1       1.327   4.658  20.079  0.00  0.00    +0.000 S 
ATOM     19  O   UNL     1       1.455   3.469  21.101  0.00  0.00    +0.000 OA
BRANCH  18  20
ATOM     20  C   UNL     1       2.425   6.022  20.572  0.00  0.00    +0.000 C 
BRANCH  20  21
ATOM     21  C   UNL     1       1.956   7.361  20.054  0.00  0.00    +0.000 A 
ATOM     22  C   UNL     1       2.218   7.785  18.745  0.00  0.00    +0.000 A 
ATOM     23  C   UNL     1       1.770   9.032  18.313  0.00  0.00    +0.000 A 
ATOM     24  C   UNL     1       1.056   9.808  19.204  0.00  0.00    +0.000 A 
ATOM     25 CL   UNL     1       0.465  11.354  18.753  0.00  0.00    +0.000 Cl
ATOM     26  N   UNL     1       0.761   9.436  20.465  0.00  0.00    +0.000 NA
ATOM     27  C   UNL     1       1.214   8.225  20.859  0.00  0.00    +0.000 A 
ENDBRANCH  20  21
ENDBRANCH  18  20
ENDBRANCH   4  18
TORSDOF 7
ENDMDL
MODEL 3
REMARK VINA RESULT:      -7.3      7.048     10.059
REMARK  Name = 
REMARK  10 active torsions:
REMARK  status: ('A' for Active; 'I' for Inactive)
REMARK    1  A    between atoms: C_1  and  O_2
REMARK    2  A    between atoms: O_2  and  C_3
REMARK    3  A    between atoms: C_5  and  C_6
REMARK    4  A    between atoms: C_9  and  S_10
REMARK    5  A    between atoms: S_10  and  C_12
REMARK    6  A    between atoms: C_12  and  C_13
REMARK    7  A    between atoms: C_22  and  O_23
REMARK    8  A    between atoms: O_23  and  C_24
REMARK    9  A    between atoms: C_25  and  O_26
REMARK   10  A    between atoms: O_26  and  C_27
REMARK                            x       y       z     vdW  Elec       q    Type
REMARK                         _______ _______ _______ _____ _____    ______ ____
ROOT
ATOM      1  C   UNL     1       2.214   8.031  18.688  0.00  0.00    +0.000 A 
ATOM      2  N   UNL     1       2.252   8.821  17.632  0.00  0.00    +0.000 NA
ATOM      3  N   UNL     1       1.568   9.969  17.974  0.00  0.00    +0.000 NA
ATOM      4  C   UNL     1       1.182   9.822  19.226  0.00  0.00    +0.000 A 
ATOM      5  O   UNL     1       1.554   8.602  19.741  0.00  0.00    +0.000 OA
ENDROOT
BRANCH   1   8
ATOM      6  C   UNL     1       2.807   4.584  20.097  0.00  0.00    +0.000 A 
ATOM      7  C   UNL     1       2.367   5.914  19.943  0.00  0.00    +0.000 A 
ATOM      8  C   UNL     1       2.818   6.718  18.894  0.00  0.00    +0.000 A 
ATOM      9  C   UNL     1       3.809   6.204  18.059  0.00  0.00    +0.000 A 
ATOM     10  C   UNL     1       4.336   4.909  18.247  0.00  0.00    +0.000 A 
ATOM     11  C   UNL     1       3.829   4.076  19.269  0.00  0.00    +0.000 A 
BRANCH   6  13
ATOM     12  C   UNL     1       1.049   3.135  20.745  0.00  0.00    +0.000 C 
ATOM     13  O   UNL     1       2.268   3.803  21.083  0.00  0.00    +0.000 OA
ENDBRANCH   6  13
BRANCH  10  14
ATOM     14  O   UNL     1       5.316   4.638  17.321  0.00  0.00    +0.000 OA
ATOM     15  C   UNL     1       4.958   4.150  16.036  0.00  0.00    +0.000 C 
ENDBRANCH  10  14
BRANCH  11  16
ATOM     16  O   UNL     1       4.394   2.834  19.359  0.00  0.00    +0.000 OA
ATOM     17  C   UNL     1       3.805   1.711  18.722  0.00  0.00    +0.000 C 
ENDBRANCH  11  16
ENDBRANCH   1   8
BRANCH   4  18
ATOM     18  S   UNL     1       0.257  10.992  20.123  0.00  0.00    +0.000 S 
ATOM     19  O   UNL     1       1.284  11.813  20.987  0.00  0.00    +0.000 OA
BRANCH  18  20
ATOM     20  C   UNL     1      -0.353  12.013  18.746  0.00  0.00    +0.000 C 
BRANCH  20  21
ATOM     21  C   UNL     1      -1.821  11.793  18.466  0.00  0.00    +0.000 A 
ATOM     22  C   UNL     1      -2.268  11.150  17.305  0.00  0.00    +0.000 A 
ATOM     23  C   UNL     1      -3.633  10.975  17.086  0.00  0.00    +0.000 A 
ATOM     24  C   UNL     1      -4.508  11.434  18.050  0.00  0.00    +0.000 A 
ATOM     25 CL   UNL     1      -6.203  11.255  17.863  0.00  0.00    +0.000 Cl
ATOM     26  N   UNL     1      -4.126  12.039  19.193  0.00  0.00    +0.000 NA
ATOM     27  C   UNL     1      -2.797  12.202  19.375  0.00  0.00    +0.000 A 
ENDBRANCH  20  21
ENDBRANCH  18  20
ENDBRANCH   4  18
TORSDOF 7
ENDMDL
MODEL 4
REMARK VINA RESULT:      -7.3      7.132     10.579
REMARK  Name = 
REMARK  10 active torsions:
REMARK  status: ('A' for Active; 'I' for Inactive)
REMARK    1  A    between atoms: C_1  and  O_2
REMARK    2  A    between atoms: O_2  and  C_3
REMARK    3  A    between atoms: C_5  and  C_6
REMARK    4  A    between atoms: C_9  and  S_10
REMARK    5  A    between atoms: S_10  and  C_12
REMARK    6  A    between atoms: C_12  and  C_13
REMARK    7  A    between atoms: C_22  and  O_23
REMARK    8  A    between atoms: O_23  and  C_24
REMARK    9  A    between atoms: C_25  and  O_26
REMARK   10  A    between atoms: O_26  and  C_27
REMARK                            x       y       z     vdW  Elec       q    Type
REMARK                         _______ _______ _______ _____ _____    ______ ____
ROOT
ATOM      1  C   UNL     1       1.683   7.795  20.040  0.00  0.00    +0.000 A 
ATOM      2  N   UNL     1       1.612   8.942  19.391  0.00  0.00    +0.000 NA
ATOM      3  N   UNL     1       0.879   9.800  20.186  0.00  0.00    +0.000 NA
ATOM      4  C   UNL     1       0.574   9.134  21.283  0.00  0.00    +0.000 A 
ATOM      5  O   UNL     1       1.050   7.844  21.252  0.00  0.00    +0.000 OA
ENDROOT
BRANCH   1   8
ATOM      6  C   UNL     1       2.863   4.219  20.204  0.00  0.00    +0.000 A 
ATOM      7  C   UNL     1       2.341   5.477  20.561  0.00  0.00    +0.000 A 
ATOM      8  C   UNL     1       2.377   6.562  19.684  0.00  0.00    +0.000 A 
ATOM      9  C   UNL     1       3.051   6.399  18.474  0.00  0.00    +0.000 A 
ATOM     10  C   UNL     1       3.666   5.177  18.129  0.00  0.00    +0.000 A 
ATOM     11  C   UNL     1       3.569   4.063  18.992  0.00  0.00    +0.000 A 
BRANCH   6  13
ATOM     12  C   UNL     1       1.376   2.758  21.327  0.00  0.00    +0.000 C 
ATOM     13  O   UNL     1       2.722   3.159  21.058  0.00  0.00    +0.000 OA
ENDBRANCH   6  13
BRANCH  10  14
ATOM     14  O   UNL     1       4.288   5.268  16.906  0.00  0.00    +0.000 OA
ATOM     15  C   UNL     1       5.479   6.031  16.774  0.00  0.00    +0.000 C 
ENDBRANCH  10  14
BRANCH  11  16
ATOM     16  O   UNL     1       4.185   2.921  18.561  0.00  0.00    +0.000 OA
ATOM     17  C   UNL     1       3.447   1.878  17.943  0.00  0.00    +0.000 C 
ENDBRANCH  11  16
ENDBRANCH   1   8
BRANCH   4  18
ATOM     18  S   UNL     1      -0.368   9.771  22.600  0.00  0.00    +0.000 S 
ATOM     19  O   UNL     1       0.527   9.661  23.889  0.00  0.00    +0.000 OA
BRANCH  18  20
ATOM     20  C   UNL     1      -0.488  11.508  22.073  0.00  0.00    +0.000 C 
BRANCH  20  21
ATOM     21  C   UNL     1      -1.887  12.061  22.211  0.00  0.00    +0.000 A 
ATOM     22  C   UNL     1      -2.507  12.781  21.181  0.00  0.00    +0.000 A 
ATOM     23  C   UNL     1      -3.796  13.278  21.357  0.00  0.00    +0.000 A 
ATOM     24  C   UNL     1      -4.433  13.020  22.555  0.00  0.00    +0.000 A 
ATOM     25 CL   UNL     1      -6.023  13.591  22.852  0.00  0.00    +0.000 Cl
ATOM     26  N   UNL     1      -3.887  12.316  23.566  0.00  0.00    +0.000 NA
ATOM     27  C   UNL     1      -2.632  11.852  23.371  0.00  0.00    +0.000 A 
ENDBRANCH  20  21
ENDBRANCH  18  20
ENDBRANCH   4  18
TORSDOF 7
ENDMDL
MODEL 5
REMARK VINA RESULT:      -7.3      2.058      2.545
REMARK  Name = 
REMARK  10 active torsions:
REMARK  status: ('A' for Active; 'I' for Inactive)
REMARK    1  A    between atoms: C_1  and  O_2
REMARK    2  A    between atoms: O_2  and  C_3
REMARK    3  A    between atoms: C_5  and  C_6
REMARK    4  A    between atoms: C_9  and  S_10
REMARK    5  A    between atoms: S_10  and  C_12
REMARK    6  A    between atoms: C_12  and  C_13
REMARK    7  A    between atoms: C_22  and  O_23
REMARK    8  A    between atoms: O_23  and  C_24
REMARK    9  A    between atoms: C_25  and  O_26
REMARK   10  A    between atoms: O_26  and  C_27
REMARK                            x       y       z     vdW  Elec       q    Type
REMARK                         _______ _______ _______ _____ _____    ______ ____
ROOT
ATOM      1  C   UNL     1       8.329   8.891  18.125  0.00  0.00    +0.000 A 
ATOM      2  N   UNL     1       8.611   7.929  18.983  0.00  0.00    +0.000 NA
ATOM      3  N   UNL     1       8.002   6.786  18.508  0.00  0.00    +0.000 NA
ATOM      4  C   UNL     1       7.411   7.113  17.375  0.00  0.00    +0.000 A 
ATOM      5  O   UNL     1       7.573   8.446  17.075  0.00  0.00    +0.000 OA
ENDROOT
BRANCH   1   8
ATOM      6  C   UNL     1      10.562  11.917  18.407  0.00  0.00    +0.000 A 
ATOM      7  C   UNL     1      10.046  10.612  18.539  0.00  0.00    +0.000 A 
ATOM      8  C   UNL     1       8.757  10.286  18.112  0.00  0.00    +0.000 A 
ATOM      9  C   UNL     1       7.943  11.320  17.650  0.00  0.00    +0.000 A 
ATOM     10  C   UNL     1       8.401  12.653  17.595  0.00  0.00    +0.000 A 
ATOM     11  C   UNL     1       9.728  12.966  17.966  0.00  0.00    +0.000 A 
BRANCH   6  13
ATOM     12  C   UNL     1      12.206  11.888  20.110  0.00  0.00    +0.000 C 
ATOM     13  O   UNL     1      11.862  12.169  18.751  0.00  0.00    +0.000 OA
ENDBRANCH   6  13
BRANCH  10  14
ATOM     14  O   UNL     1       7.415  13.493  17.133  0.00  0.00    +0.000 OA
ATOM     15  C   UNL     1       6.850  14.463  18.002  0.00  0.00    +0.000 C 
ENDBRANCH  10  14
BRANCH  11  16
ATOM     16  O   UNL     1      10.081  14.283  17.863  0.00  0.00    +0.000 OA
ATOM     17  C   UNL     1      10.997  14.723  16.872  0.00  0.00    +0.000 C 
ENDBRANCH  11  16
ENDBRANCH   1   8
BRANCH   4  18
ATOM     18  S   UNL     1       6.480   6.022  16.389  0.00  0.00    +0.000 S 
ATOM     19  O   UNL     1       7.384   5.643  15.158  0.00  0.00    +0.000 OA
BRANCH  18  20
ATOM     20  C   UNL     1       6.363   4.611  17.531  0.00  0.00    +0.000 C 
BRANCH  20  21
ATOM     21  C   UNL     1       4.975   4.442  18.104  0.00  0.00    +0.000 A 
ATOM     22  C   UNL     1       3.970   3.743  17.424  0.00  0.00    +0.000 A 
ATOM     23  C   UNL     1       2.703   3.619  17.989  0.00  0.00    +0.000 A 
ATOM     24  C   UNL     1       2.488   4.184  19.231  0.00  0.00    +0.000 A 
ATOM     25 CL   UNL     1       0.960   4.074  20.000  0.00  0.00    +0.000 Cl
ATOM     26  N   UNL     1       3.428   4.847  19.933  0.00  0.00    +0.000 NA
ATOM     27  C   UNL     1       4.646   4.958  19.357  0.00  0.00    +0.000 A 
ENDBRANCH  20  21
ENDBRANCH  18  20
ENDBRANCH   4  18
TORSDOF 7
ENDMDL
MODEL 6
REMARK VINA RESULT:      -7.3      6.167      9.460
REMARK  Name = 
REMARK  10 active torsions:
REMARK  status: ('A' for Active; 'I' for Inactive)
REMARK    1  A    between atoms: C_1  and  O_2
REMARK    2  A    between atoms: O_2  and  C_3
REMARK    3  A    between atoms: C_5  and  C_6
REMARK    4  A    between atoms: C_9  and  S_10
REMARK    5  A    between atoms: S_10  and  C_12
REMARK    6  A    between atoms: C_12  and  C_13
REMARK    7  A    between atoms: C_22  and  O_23
REMARK    8  A    between atoms: O_23  and  C_24
REMARK    9  A    between atoms: C_25  and  O_26
REMARK   10  A    between atoms: O_26  and  C_27
REMARK                            x       y       z     vdW  Elec       q    Type
REMARK                         _______ _______ _______ _____ _____    ______ ____
ROOT
ATOM      1  C   UNL     1       2.298   7.871  18.498  0.00  0.00    +0.000 A 
ATOM      2  N   UNL     1       1.659   8.836  17.864  0.00  0.00    +0.000 NA
ATOM      3  N   UNL     1       0.952   9.535  18.820  0.00  0.00    +0.000 NA
ATOM      4  C   UNL     1       1.227   8.974  19.982  0.00  0.00    +0.000 A 
ATOM      5  O   UNL     1       2.074   7.899  19.847  0.00  0.00    +0.000 OA
ENDROOT
BRANCH   1   8
ATOM      6  C   UNL     1       3.635   4.539  17.347  0.00  0.00    +0.000 A 
ATOM      7  C   UNL     1       2.844   5.525  17.968  0.00  0.00    +0.000 A 
ATOM      8  C   UNL     1       3.225   6.869  17.982  0.00  0.00    +0.000 A 
ATOM      9  C   UNL     1       4.475   7.197  17.459  0.00  0.00    +0.000 A 
ATOM     10  C   UNL     1       5.329   6.215  16.915  0.00  0.00    +0.000 A 
ATOM     11  C   UNL     1       4.911   4.868  16.843  0.00  0.00    +0.000 A 
BRANCH   6  13
ATOM     12  C   UNL     1       3.206   2.516  18.501  0.00  0.00    +0.000 C 
ATOM     13  O   UNL     1       3.178   3.251  17.275  0.00  0.00    +0.000 OA
ENDBRANCH   6  13
BRANCH  10  14
ATOM     14  O   UNL     1       6.512   6.774  16.489  0.00  0.00    +0.000 OA
ATOM     15  C   UNL     1       7.497   7.152  17.439  0.00  0.00    +0.000 C 
ENDBRANCH  10  14
BRANCH  11  16
ATOM     16  O   UNL     1       5.805   3.996  16.285  0.00  0.00    +0.000 OA
ATOM     17  C   UNL     1       5.982   3.927  14.878  0.00  0.00    +0.000 C 
ENDBRANCH  11  16
ENDBRANCH   1   8
BRANCH   4  18
ATOM     18  S   UNL     1       0.562   9.477  21.510  0.00  0.00    +0.000 S 
ATOM     19  O   UNL     1       1.713   9.333  22.572  0.00  0.00    +0.000 OA
BRANCH  18  20
ATOM     20  C   UNL     1       0.268  11.235  21.146  0.00  0.00    +0.000 C 
BRANCH  20  21
ATOM     21  C   UNL     1      -1.085  11.708  21.622  0.00  0.00    +0.000 A 
ATOM     22  C   UNL     1      -1.488  11.584  22.958  0.00  0.00    +0.000 A 
ATOM     23  C   UNL     1      -2.749  12.030  23.350  0.00  0.00    +0.000 A 
ATOM     24  C   UNL     1      -3.560  12.604  22.392  0.00  0.00    +0.000 A 
ATOM     25 CL   UNL     1      -5.125  13.182  22.790  0.00  0.00    +0.000 Cl
ATOM     26  N   UNL     1      -3.211  12.764  21.100  0.00  0.00    +0.000 NA
ATOM     27  C   UNL     1      -1.985  12.316  20.747  0.00  0.00    +0.000 A 
ENDBRANCH  20  21
ENDBRANCH  18  20
ENDBRANCH   4  18
TORSDOF 7
ENDMDL
MODEL 7
REMARK VINA RESULT:      -7.3      7.005     10.059
REMARK  Name = 
REMARK  10 active torsions:
REMARK  status: ('A' for Active; 'I' for Inactive)
REMARK    1  A    between atoms: C_1  and  O_2
REMARK    2  A    between atoms: O_2  and  C_3
REMARK    3  A    between atoms: C_5  and  C_6
REMARK    4  A    between atoms: C_9  and  S_10
REMARK    5  A    between atoms: S_10  and  C_12
REMARK    6  A    between atoms: C_12  and  C_13
REMARK    7  A    between atoms: C_22  and  O_23
REMARK    8  A    between atoms: O_23  and  C_24
REMARK    9  A    between atoms: C_25  and  O_26
REMARK   10  A    between atoms: O_26  and  C_27
REMARK                            x       y       z     vdW  Elec       q    Type
REMARK                         _______ _______ _______ _____ _____    ______ ____
ROOT
ATOM      1  C   UNL     1       2.241   8.098  18.570  0.00  0.00    +0.000 A 
ATOM      2  N   UNL     1       2.316   8.982  17.594  0.00  0.00    +0.000 NA
ATOM      3  N   UNL     1       1.641  10.105  18.027  0.00  0.00    +0.000 NA
ATOM      4  C   UNL     1       1.222   9.849  19.251  0.00  0.00    +0.000 A 
ATOM      5  O   UNL     1       1.564   8.580  19.657  0.00  0.00    +0.000 OA
ENDROOT
BRANCH   1   8
ATOM      6  C   UNL     1       2.934   4.619  19.849  0.00  0.00    +0.000 A 
ATOM      7  C   UNL     1       2.526   5.965  19.776  0.00  0.00    +0.000 A 
ATOM      8  C   UNL     1       2.819   6.762  18.667  0.00  0.00    +0.000 A 
ATOM      9  C   UNL     1       3.631   6.218  17.671  0.00  0.00    +0.000 A 
ATOM     10  C   UNL     1       4.131   4.902  17.763  0.00  0.00    +0.000 A 
ATOM     11  C   UNL     1       3.777   4.080  18.855  0.00  0.00    +0.000 A 
BRANCH   6  13
ATOM     12  C   UNL     1       1.186   3.400  20.883  0.00  0.00    +0.000 C 
ATOM     13  O   UNL     1       2.543   3.850  20.911  0.00  0.00    +0.000 OA
ENDBRANCH   6  13
BRANCH  10  14
ATOM     14  O   UNL     1       4.925   4.603  16.680  0.00  0.00    +0.000 OA
ATOM     15  C   UNL     1       6.338   4.609  16.817  0.00  0.00    +0.000 C 
ENDBRANCH  10  14
BRANCH  11  16
ATOM     16  O   UNL     1       4.301   2.816  18.843  0.00  0.00    +0.000 OA
ATOM     17  C   UNL     1       3.542   1.712  18.376  0.00  0.00    +0.000 C 
ENDBRANCH  11  16
ENDBRANCH   1   8
BRANCH   4  18
ATOM     18  S   UNL     1       0.294  10.946  20.233  0.00  0.00    +0.000 S 
ATOM     19  O   UNL     1       1.317  11.694  21.164  0.00  0.00    +0.000 OA
BRANCH  18  20
ATOM     20  C   UNL     1      -0.308  12.073  18.938  0.00  0.00    +0.000 C 
BRANCH  20  21
ATOM     21  C   UNL     1      -1.793  11.938  18.695  0.00  0.00    +0.000 A 
ATOM     22  C   UNL     1      -2.741  12.332  19.647  0.00  0.00    +0.000 A 
ATOM     23  C   UNL     1      -4.100  12.182  19.381  0.00  0.00    +0.000 A 
ATOM     24  C   UNL     1      -4.467  11.659  18.157  0.00  0.00    +0.000 A 
ATOM     25 CL   UNL     1      -6.119  11.445  17.747  0.00  0.00    +0.000 Cl
ATOM     26  N   UNL     1      -3.594  11.285  17.201  0.00  0.00    +0.000 NA
ATOM     27  C   UNL     1      -2.282  11.434  17.489  0.00  0.00    +0.000 A 
ENDBRANCH  20  21
ENDBRANCH  18  20
ENDBRANCH   4  18
TORSDOF 7
ENDMDL
MODEL 8
REMARK VINA RESULT:      -7.3      7.001      9.730
REMARK  Name = 
REMARK  10 active torsions:
REMARK  status: ('A' for Active; 'I' for Inactive)
REMARK    1  A    between atoms: C_1  and  O_2
REMARK    2  A    between atoms: O_2  and  C_3
REMARK    3  A    between atoms: C_5  and  C_6
REMARK    4  A    between atoms: C_9  and  S_10
REMARK    5  A    between atoms: S_10  and  C_12
REMARK    6  A    between atoms: C_12  and  C_13
REMARK    7  A    between atoms: C_22  and  O_23
REMARK    8  A    between atoms: O_23  and  C_24
REMARK    9  A    between atoms: C_25  and  O_26
REMARK   10  A    between atoms: O_26  and  C_27
REMARK                            x       y       z     vdW  Elec       q    Type
REMARK                         _______ _______ _______ _____ _____    ______ ____
ROOT
ATOM      1  C   UNL     1       2.196   7.876  18.495  0.00  0.00    +0.000 A 
ATOM      2  N   UNL     1       2.339   8.765  17.531  0.00  0.00    +0.000 NA
ATOM      3  N   UNL     1       1.736   9.926  17.971  0.00  0.00    +0.000 NA
ATOM      4  C   UNL     1       1.289   9.683  19.188  0.00  0.00    +0.000 A 
ATOM      5  O   UNL     1       1.542   8.390  19.582  0.00  0.00    +0.000 OA
ENDROOT
BRANCH   1   8
ATOM      6  C   UNL     1       4.417   4.868  18.015  0.00  0.00    +0.000 A 
ATOM      7  C   UNL     1       3.817   6.132  17.855  0.00  0.00    +0.000 A 
ATOM      8  C   UNL     1       2.684   6.504  18.580  0.00  0.00    +0.000 A 
ATOM      9  C   UNL     1       2.087   5.540  19.394  0.00  0.00    +0.000 A 
ATOM     10  C   UNL     1       2.612   4.236  19.502  0.00  0.00    +0.000 A 
ATOM     11  C   UNL     1       3.797   3.887  18.817  0.00  0.00    +0.000 A 
BRANCH   6  13
ATOM     12  C   UNL     1       5.433   4.165  15.995  0.00  0.00    +0.000 C 
ATOM     13  O   UNL     1       5.581   4.582  17.355  0.00  0.00    +0.000 OA
ENDBRANCH   6  13
BRANCH  10  14
ATOM     14  O   UNL     1       1.840   3.463  20.337  0.00  0.00    +0.000 OA
ATOM     15  C   UNL     1       2.170   3.365  21.715  0.00  0.00    +0.000 C 
ENDBRANCH  10  14
BRANCH  11  16
ATOM     16  O   UNL     1       4.233   2.603  18.999  0.00  0.00    +0.000 OA
ATOM     17  C   UNL     1       3.622   1.517  18.320  0.00  0.00    +0.000 C 
ENDBRANCH  11  16
ENDBRANCH   1   8
BRANCH   4  18
ATOM     18  S   UNL     1       0.426  10.827  20.175  0.00  0.00    +0.000 S 
ATOM     19  O   UNL     1       1.506  11.614  21.004  0.00  0.00    +0.000 OA
BRANCH  18  20
ATOM     20  C   UNL     1      -0.255  11.897  18.870  0.00  0.00    +0.000 C 
BRANCH  20  21
ATOM     21  C   UNL     1      -1.713  11.619  18.593  0.00  0.00    +0.000 A 
ATOM     22  C   UNL     1      -2.123  10.701  17.618  0.00  0.00    +0.000 A 
ATOM     23  C   UNL     1      -3.481  10.482  17.393  0.00  0.00    +0.000 A 
ATOM     24  C   UNL     1      -4.387  11.178  18.169  0.00  0.00    +0.000 A 
ATOM     25 CL   UNL     1      -6.076  10.966  17.961  0.00  0.00    +0.000 Cl
ATOM     26  N   UNL     1      -4.042  12.056  19.132  0.00  0.00    +0.000 NA
ATOM     27  C   UNL     1      -2.718  12.253  19.323  0.00  0.00    +0.000 A 
ENDBRANCH  20  21
ENDBRANCH  18  20
ENDBRANCH   4  18
TORSDOF 7
ENDMDL
MODEL 9
REMARK VINA RESULT:      -7.3      5.415      8.134
REMARK  Name = 
REMARK  10 active torsions:
REMARK  status: ('A' for Active; 'I' for Inactive)
REMARK    1  A    between atoms: C_1  and  O_2
REMARK    2  A    between atoms: O_2  and  C_3
REMARK    3  A    between atoms: C_5  and  C_6
REMARK    4  A    between atoms: C_9  and  S_10
REMARK    5  A    between atoms: S_10  and  C_12
REMARK    6  A    between atoms: C_12  and  C_13
REMARK    7  A    between atoms: C_22  and  O_23
REMARK    8  A    between atoms: O_23  and  C_24
REMARK    9  A    between atoms: C_25  and  O_26
REMARK   10  A    between atoms: O_26  and  C_27
REMARK                            x       y       z     vdW  Elec       q    Type
REMARK                         _______ _______ _______ _____ _____    ______ ____
ROOT
ATOM      1  C   UNL     1       3.540   3.964  17.031  0.00  0.00    +0.000 A 
ATOM      2  N   UNL     1       2.611   3.054  16.804  0.00  0.00    +0.000 NA
ATOM      3  N   UNL     1       1.706   3.148  17.841  0.00  0.00    +0.000 NA
ATOM      4  C   UNL     1       2.121   4.128  18.620  0.00  0.00    +0.000 A 
ATOM      5  O   UNL     1       3.292   4.687  18.166  0.00  0.00    +0.000 OA
ENDROOT
BRANCH   1   8
ATOM      6  C   UNL     1       6.755   5.652  16.017  0.00  0.00    +0.000 A 
ATOM      7  C   UNL     1       5.541   5.358  16.669  0.00  0.00    +0.000 A 
ATOM      8  C   UNL     1       4.704   4.330  16.231  0.00  0.00    +0.000 A 
ATOM      9  C   UNL     1       5.047   3.668  15.052  0.00  0.00    +0.000 A 
ATOM     10  C   UNL     1       6.209   4.005  14.327  0.00  0.00    +0.000 A 
ATOM     11  C   UNL     1       7.087   5.000  14.811  0.00  0.00    +0.000 A 
BRANCH   6  13
ATOM     12  C   UNL     1       7.148   7.215  17.752  0.00  0.00    +0.000 C 
ATOM     13  O   UNL     1       7.589   6.604  16.537  0.00  0.00    +0.000 OA
ENDBRANCH   6  13
BRANCH  10  14
ATOM     14  O   UNL     1       6.320   3.236  13.192  0.00  0.00    +0.000 OA
ATOM     15  C   UNL     1       5.325   3.318  12.183  0.00  0.00    +0.000 C 
ENDBRANCH  10  14
BRANCH  11  16
ATOM     16  O   UNL     1       8.193   5.243  14.044  0.00  0.00    +0.000 OA
ATOM     17  C   UNL     1       8.076   5.774  12.734  0.00  0.00    +0.000 C 
ENDBRANCH  11  16
ENDBRANCH   1   8
BRANCH   4  18
ATOM     18  S   UNL     1       1.331   4.632  20.087  0.00  0.00    +0.000 S 
ATOM     19  O   UNL     1       1.468   3.441  21.105  0.00  0.00    +0.000 OA
BRANCH  18  20
ATOM     20  C   UNL     1       2.436   5.994  20.571  0.00  0.00    +0.000 C 
BRANCH  20  21
ATOM     21  C   UNL     1       1.869   7.351  20.228  0.00  0.00    +0.000 A 
ATOM     22  C   UNL     1       1.090   8.082  21.135  0.00  0.00    +0.000 A 
ATOM     23  C   UNL     1       0.583   9.328  20.771  0.00  0.00    +0.000 A 
ATOM     24  C   UNL     1       0.888   9.811  19.514  0.00  0.00    +0.000 A 
ATOM     25 CL   UNL     1       0.308  11.337  18.988  0.00  0.00    +0.000 Cl
ATOM     26  N   UNL     1       1.649   9.155  18.616  0.00  0.00    +0.000 NA
ATOM     27  C   UNL     1       2.122   7.946  18.992  0.00  0.00    +0.000 A 
ENDBRANCH  20  21
ENDBRANCH  18  20
ENDBRANCH   4  18
TORSDOF 7
ENDMDL
