MODEL 1
REMARK VINA RESULT:      -7.9      0.000      0.000
REMARK  Name = 
REMARK  10 active torsions:
REMARK  status: ('A' for Active; 'I' for Inactive)
REMARK    1  A    between atoms: C_1  and  C_2
REMARK    2  A    between atoms: C_2  and  O_3
REMARK    3  A    between atoms: O_3  and  C_4
REMARK    4  A    between atoms: C_4  and  C_6
REMARK    5  A    between atoms: N_9  and  C_10
REMARK    6  A    between atoms: C_13  and  C_14
REMARK    7  A    between atoms: N_16  and  C_17
REMARK    8  A    between atoms: C_21  and  C_22
REMARK    9  A    between atoms: C_22  and  O_24
REMARK   10  A    between atoms: C_28  and  C_29
REMARK                            x       y       z     vdW  Elec       q    Type
REMARK                         _______ _______ _______ _____ _____    ______ ____
ROOT
ATOM      1  C   UNL     1       6.765   6.411  17.600  0.00  0.00    +0.000 A 
ATOM      2  C   UNL     1       6.701   7.636  16.923  0.00  0.00    +0.000 A 
ATOM      3  C   UNL     1       7.491   8.707  17.343  0.00  0.00    +0.000 A 
ATOM      4  C   UNL     1       8.380   8.561  18.419  0.00  0.00    +0.000 A 
ATOM      5  C   UNL     1       8.498   7.320  19.047  0.00  0.00    +0.000 A 
ATOM      6  C   UNL     1       7.702   6.246  18.627  0.00  0.00    +0.000 A 
ENDROOT
BRANCH   1  10
ATOM      7  C   UNL     1       4.218   3.893  17.064  0.00  0.00    +0.000 A 
ATOM      8  C   UNL     1       5.232   3.658  16.125  0.00  0.00    +0.000 A 
ATOM      9  N   UNL     1       6.190   4.577  16.173  0.00  0.00    +0.000 NA
ATOM     10  N   UNL     1       5.856   5.381  17.222  0.00  0.00    +0.000 N 
ATOM     11  C   UNL     1       4.613   5.047  17.724  0.00  0.00    +0.000 A 
BRANCH  11  12
ATOM     12  C   UNL     1       3.855   5.894  18.659  0.00  0.00    +0.000 C 
ATOM     13  F   UNL     1       2.577   5.477  18.827  0.00  0.00    +0.000 F 
ATOM     14  F   UNL     1       4.415   5.932  19.892  0.00  0.00    +0.000 F 
ATOM     15  F   UNL     1       3.764   7.174  18.216  0.00  0.00    +0.000 F 
ENDBRANCH  11  12
BRANCH   7  16
ATOM     16  C   UNL     1       3.024   3.113  17.292  0.00  0.00    +0.000 C 
ATOM     17  O   UNL     1       1.932   3.419  16.842  0.00  0.00    +0.000 OA
BRANCH  16  18
ATOM     18  O   UNL     1       3.263   2.074  18.140  0.00  0.00    +0.000 OA
BRANCH  18  20
ATOM     19  C   UNL     1       3.778   2.468  20.424  0.00  0.00    +0.000 C 
ATOM     20  C   UNL     1       2.661   2.196  19.433  0.00  0.00    +0.000 C 
ENDBRANCH  18  20
ENDBRANCH  16  18
ENDBRANCH   7  16
ENDBRANCH   1  10
BRANCH   4  21
ATOM     21  C   UNL     1       9.077   9.774  18.908  0.00  0.00    +0.000 C 
ATOM     22  O   UNL     1       8.976  10.030  20.103  0.00  0.00    +0.000 OA
ATOM     23  N   UNL     1       9.748  10.549  17.972  0.00  0.00    +0.000 N 
ATOM     24  H   UNL     1       9.553  10.381  16.993  0.00  0.00    +0.000 HD
BRANCH  23  25
ATOM     25  C   UNL     1      10.531  11.688  18.292  0.00  0.00    +0.000 A 
ATOM     26  C   UNL     1      11.584  11.639  19.205  0.00  0.00    +0.000 A 
ATOM     27  C   UNL     1      12.332  12.778  19.514  0.00  0.00    +0.000 A 
ATOM     28  C   UNL     1      12.030  13.989  18.907  0.00  0.00    +0.000 A 
ATOM     29  C   UNL     1      10.971  14.058  17.992  0.00  0.00    +0.000 A 
ATOM     30  C   UNL     1      10.244  12.904  17.659  0.00  0.00    +0.000 A 
BRANCH  29  31
ATOM     31  C   UNL     1      10.609  15.337  17.330  0.00  0.00    +0.000 C 
ATOM     32  O   UNL     1       9.569  15.925  17.559  0.00  0.00    +0.000 OA
BRANCH  31  33
ATOM     33  O   UNL     1      11.554  15.809  16.486  0.00  0.00    +0.000 OA
ATOM     34  H   UNL     1      12.185  16.442  16.872  0.00  0.00    +0.000 HD
ENDBRANCH  31  33
ENDBRANCH  29  31
ENDBRANCH  23  25
ENDBRANCH   4  21
TORSDOF 9
ENDMDL
MODEL 2
REMARK VINA RESULT:      -7.7      1.021      1.380
REMARK  Name = 
REMARK  10 active torsions:
REMARK  status: ('A' for Active; 'I' for Inactive)
REMARK    1  A    between atoms: C_1  and  C_2
REMARK    2  A    between atoms: C_2  and  O_3
REMARK    3  A    between atoms: O_3  and  C_4
REMARK    4  A    between atoms: C_4  and  C_6
REMARK    5  A    between atoms: N_9  and  C_10
REMARK    6  A    between atoms: C_13  and  C_14
REMARK    7  A    between atoms: N_16  and  C_17
REMARK    8  A    between atoms: C_21  and  C_22
REMARK    9  A    between atoms: C_22  and  O_24
REMARK   10  A    between atoms: C_28  and  C_29
REMARK                            x       y       z     vdW  Elec       q    Type
REMARK                         _______ _______ _______ _____ _____    ______ ____
ROOT
ATOM      1  C   UNL     1       6.577   6.120  17.630  0.00  0.00    +0.000 A 
ATOM      2  C   UNL     1       6.342   7.348  16.999  0.00  0.00    +0.000 A 
ATOM      3  C   UNL     1       7.117   8.461  17.329  0.00  0.00    +0.000 A 
ATOM      4  C   UNL     1       8.158   8.356  18.265  0.00  0.00    +0.000 A 
ATOM      5  C   UNL     1       8.440   7.115  18.839  0.00  0.00    +0.000 A 
ATOM      6  C   UNL     1       7.659   5.999  18.511  0.00  0.00    +0.000 A 
ENDROOT
BRANCH   1  10
ATOM      7  C   UNL     1       4.204   3.391  17.426  0.00  0.00    +0.000 A 
ATOM      8  C   UNL     1       4.926   3.399  16.224  0.00  0.00    +0.000 A 
ATOM      9  N   UNL     1       5.778   4.416  16.151  0.00  0.00    +0.000 NA
ATOM     10  N   UNL     1       5.689   5.039  17.360  0.00  0.00    +0.000 N 
ATOM     11  C   UNL     1       4.672   4.496  18.122  0.00  0.00    +0.000 A 
BRANCH  11  12
ATOM     12  C   UNL     1       4.142   5.123  19.343  0.00  0.00    +0.000 C 
ATOM     13  F   UNL     1       3.033   5.865  19.114  0.00  0.00    +0.000 F 
ATOM     14  F   UNL     1       3.810   4.212  20.289  0.00  0.00    +0.000 F 
ATOM     15  F   UNL     1       5.040   5.975  19.900  0.00  0.00    +0.000 F 
ENDBRANCH  11  12
BRANCH   7  16
ATOM     16  C   UNL     1       3.195   2.448  17.846  0.00  0.00    +0.000 C 
ATOM     17  O   UNL     1       3.454   1.308  18.198  0.00  0.00    +0.000 OA
BRANCH  16  18
ATOM     18  O   UNL     1       1.942   2.962  17.700  0.00  0.00    +0.000 OA
BRANCH  18  20
ATOM     19  C   UNL     1       0.804   3.409  19.735  0.00  0.00    +0.000 C 
ATOM     20  C   UNL     1       0.959   2.424  18.590  0.00  0.00    +0.000 C 
ENDBRANCH  18  20
ENDBRANCH  16  18
ENDBRANCH   7  16
ENDBRANCH   1  10
BRANCH   4  21
ATOM     21  C   UNL     1       8.841   9.604  18.680  0.00  0.00    +0.000 C 
ATOM     22  O   UNL     1       8.977   9.790  19.884  0.00  0.00    +0.000 OA
ATOM     23  N   UNL     1       9.232  10.484  17.680  0.00  0.00    +0.000 N 
ATOM     24  H   UNL     1       8.847  10.347  16.754  0.00  0.00    +0.000 HD
BRANCH  23  25
ATOM     25  C   UNL     1       9.970  11.674  17.907  0.00  0.00    +0.000 A 
ATOM     26  C   UNL     1      11.315  11.661  18.273  0.00  0.00    +0.000 A 
ATOM     27  C   UNL     1      12.016  12.847  18.504  0.00  0.00    +0.000 A 
ATOM     28  C   UNL     1      11.372  14.070  18.372  0.00  0.00    +0.000 A 
ATOM     29  C   UNL     1      10.019  14.101  18.011  0.00  0.00    +0.000 A 
ATOM     30  C   UNL     1       9.326  12.908  17.746  0.00  0.00    +0.000 A 
BRANCH  29  31
ATOM     31  C   UNL     1       9.290  15.386  17.870  0.00  0.00    +0.000 C 
ATOM     32  O   UNL     1       9.797  16.462  18.125  0.00  0.00    +0.000 OA
BRANCH  31  33
ATOM     33  O   UNL     1       8.031  15.258  17.392  0.00  0.00    +0.000 OA
ATOM     34  H   UNL     1       7.357  15.000  18.046  0.00  0.00    +0.000 HD
ENDBRANCH  31  33
ENDBRANCH  29  31
ENDBRANCH  23  25
ENDBRANCH   4  21
TORSDOF 9
ENDMDL
MODEL 3
REMARK VINA RESULT:      -7.6      7.172      9.526
REMARK  Name = 
REMARK  10 active torsions:
REMARK  status: ('A' for Active; 'I' for Inactive)
REMARK    1  A    between atoms: C_1  and  C_2
REMARK    2  A    between atoms: C_2  and  O_3
REMARK    3  A    between atoms: O_3  and  C_4
REMARK    4  A    between atoms: C_4  and  C_6
REMARK    5  A    between atoms: N_9  and  C_10
REMARK    6  A    between atoms: C_13  and  C_14
REMARK    7  A    between atoms: N_16  and  C_17
REMARK    8  A    between atoms: C_21  and  C_22
REMARK    9  A    between atoms: C_22  and  O_24
REMARK   10  A    between atoms: C_28  and  C_29
REMARK                            x       y       z     vdW  Elec       q    Type
REMARK                         _______ _______ _______ _____ _____    ______ ____
ROOT
ATOM      1  C   UNL     1       1.937   8.140  18.994  0.00  0.00    +0.000 A 
ATOM      2  C   UNL     1       1.649   8.216  20.363  0.00  0.00    +0.000 A 
ATOM      3  C   UNL     1       0.786   9.203  20.839  0.00  0.00    +0.000 A 
ATOM      4  C   UNL     1       0.171  10.104  19.956  0.00  0.00    +0.000 A 
ATOM      5  C   UNL     1       0.400   9.981  18.584  0.00  0.00    +0.000 A 
ATOM      6  C   UNL     1       1.270   8.992  18.106  0.00  0.00    +0.000 A 
ENDROOT
BRANCH   1  10
ATOM      7  C   UNL     1       4.315   5.497  18.302  0.00  0.00    +0.000 A 
ATOM      8  C   UNL     1       4.598   6.546  17.416  0.00  0.00    +0.000 A 
ATOM      9  N   UNL     1       3.731   7.547  17.524  0.00  0.00    +0.000 NA
ATOM     10  N   UNL     1       2.916   7.200  18.559  0.00  0.00    +0.000 N 
ATOM     11  C   UNL     1       3.187   5.916  18.992  0.00  0.00    +0.000 A 
BRANCH  11  12
ATOM     12  C   UNL     1       2.306   5.154  19.892  0.00  0.00    +0.000 C 
ATOM     13  F   UNL     1       2.896   4.038  20.382  0.00  0.00    +0.000 F 
ATOM     14  F   UNL     1       1.906   5.882  20.961  0.00  0.00    +0.000 F 
ATOM     15  F   UNL     1       1.188   4.723  19.254  0.00  0.00    +0.000 F 
ENDBRANCH  11  12
BRANCH   7  16
ATOM     16  C   UNL     1       5.033   4.253  18.460  0.00  0.00    +0.000 C 
ATOM     17  O   UNL     1       5.803   4.042  19.382  0.00  0.00    +0.000 OA
BRANCH  16  18
ATOM     18  O   UNL     1       4.813   3.416  17.409  0.00  0.00    +0.000 OA
BRANCH  18  20
ATOM     19  C   UNL     1       3.396   1.672  18.175  0.00  0.00    +0.000 C 
ATOM     20  C   UNL     1       3.477   2.912  17.304  0.00  0.00    +0.000 C 
ENDBRANCH  18  20
ENDBRANCH  16  18
ENDBRANCH   7  16
ENDBRANCH   1  10
BRANCH   4  21
ATOM     21  C   UNL     1      -0.613  11.217  20.540  0.00  0.00    +0.000 C 
ATOM     22  O   UNL     1      -1.302  11.877  19.769  0.00  0.00    +0.000 OA
ATOM     23  N   UNL     1      -0.473  11.455  21.900  0.00  0.00    +0.000 N 
ATOM     24  H   UNL     1       0.303  11.016  22.379  0.00  0.00    +0.000 HD
BRANCH  23  25
ATOM     25  C   UNL     1      -1.217  12.424  22.621  0.00  0.00    +0.000 A 
ATOM     26  C   UNL     1      -0.737  13.712  22.857  0.00  0.00    +0.000 A 
ATOM     27  C   UNL     1      -1.483  14.644  23.582  0.00  0.00    +0.000 A 
ATOM     28  C   UNL     1      -2.729  14.294  24.085  0.00  0.00    +0.000 A 
ATOM     29  C   UNL     1      -3.224  13.002  23.864  0.00  0.00    +0.000 A 
ATOM     30  C   UNL     1      -2.486  12.079  23.105  0.00  0.00    +0.000 A 
BRANCH  29  31
ATOM     31  C   UNL     1      -4.546  12.583  24.393  0.00  0.00    +0.000 C 
ATOM     32  O   UNL     1      -5.492  12.323  23.673  0.00  0.00    +0.000 OA
BRANCH  31  33
ATOM     33  O   UNL     1      -4.593  12.475  25.740  0.00  0.00    +0.000 OA
ATOM     34  H   UNL     1      -5.058  11.691  26.084  0.00  0.00    +0.000 HD
ENDBRANCH  31  33
ENDBRANCH  29  31
ENDBRANCH  23  25
ENDBRANCH   4  21
TORSDOF 9
ENDMDL
MODEL 4
REMARK VINA RESULT:      -7.5      2.211      2.756
REMARK  Name = 
REMARK  10 active torsions:
REMARK  status: ('A' for Active; 'I' for Inactive)
REMARK    1  A    between atoms: C_1  and  C_2
REMARK    2  A    between atoms: C_2  and  O_3
REMARK    3  A    between atoms: O_3  and  C_4
REMARK    4  A    between atoms: C_4  and  C_6
REMARK    5  A    between atoms: N_9  and  C_10
REMARK    6  A    between atoms: C_13  and  C_14
REMARK    7  A    between atoms: N_16  and  C_17
REMARK    8  A    between atoms: C_21  and  C_22
REMARK    9  A    between atoms: C_22  and  O_24
REMARK   10  A    between atoms: C_28  and  C_29
REMARK                            x       y       z     vdW  Elec       q    Type
REMARK                         _______ _______ _______ _____ _____    ______ ____
ROOT
ATOM      1  C   UNL     1       5.676   5.459  17.883  0.00  0.00    +0.000 A 
ATOM      2  C   UNL     1       5.487   6.549  17.023  0.00  0.00    +0.000 A 
ATOM      3  C   UNL     1       6.367   7.631  17.065  0.00  0.00    +0.000 A 
ATOM      4  C   UNL     1       7.466   7.626  17.939  0.00  0.00    +0.000 A 
ATOM      5  C   UNL     1       7.697   6.509  18.743  0.00  0.00    +0.000 A 
ATOM      6  C   UNL     1       6.810   5.424  18.703  0.00  0.00    +0.000 A 
ENDROOT
BRANCH   1  10
ATOM      7  C   UNL     1       2.932   3.125  18.256  0.00  0.00    +0.000 A 
ATOM      8  C   UNL     1       3.945   2.459  17.552  0.00  0.00    +0.000 A 
ATOM      9  N   UNL     1       4.979   3.249  17.284  0.00  0.00    +0.000 NA
ATOM     10  N   UNL     1       4.690   4.430  17.898  0.00  0.00    +0.000 N 
ATOM     11  C   UNL     1       3.410   4.418  18.417  0.00  0.00    +0.000 A 
BRANCH  11  12
ATOM     12  C   UNL     1       2.706   5.622  18.886  0.00  0.00    +0.000 C 
ATOM     13  F   UNL     1       2.427   6.490  17.884  0.00  0.00    +0.000 F 
ATOM     14  F   UNL     1       1.526   5.331  19.485  0.00  0.00    +0.000 F 
ATOM     15  F   UNL     1       3.450   6.324  19.777  0.00  0.00    +0.000 F 
ENDBRANCH  11  12
BRANCH   7  16
ATOM     16  C   UNL     1       1.669   2.591  18.707  0.00  0.00    +0.000 C 
ATOM     17  O   UNL     1       0.622   2.753  18.101  0.00  0.00    +0.000 OA
BRANCH  16  18
ATOM     18  O   UNL     1       1.790   1.985  19.921  0.00  0.00    +0.000 OA
BRANCH  18  20
ATOM     19  C   UNL     1       2.327   3.188  21.897  0.00  0.00    +0.000 C 
ATOM     20  C   UNL     1       1.196   2.694  21.014  0.00  0.00    +0.000 C 
ENDBRANCH  18  20
ENDBRANCH  16  18
ENDBRANCH   7  16
ENDBRANCH   1  10
BRANCH   4  21
ATOM     21  C   UNL     1       8.271   8.866  18.041  0.00  0.00    +0.000 C 
ATOM     22  O   UNL     1       8.388   9.539  17.022  0.00  0.00    +0.000 OA
ATOM     23  N   UNL     1       8.868   9.144  19.263  0.00  0.00    +0.000 N 
ATOM     24  H   UNL     1       8.911   8.400  19.947  0.00  0.00    +0.000 HD
BRANCH  23  25
ATOM     25  C   UNL     1       9.596  10.329  19.544  0.00  0.00    +0.000 A 
ATOM     26  C   UNL     1      10.660  10.758  18.752  0.00  0.00    +0.000 A 
ATOM     27  C   UNL     1      11.371  11.922  19.059  0.00  0.00    +0.000 A 
ATOM     28  C   UNL     1      11.020  12.674  20.172  0.00  0.00    +0.000 A 
ATOM     29  C   UNL     1       9.957  12.254  20.982  0.00  0.00    +0.000 A 
ATOM     30  C   UNL     1       9.224  11.102  20.651  0.00  0.00    +0.000 A 
BRANCH  29  31
ATOM     31  C   UNL     1       9.558  13.023  22.187  0.00  0.00    +0.000 C 
ATOM     32  O   UNL     1       9.647  14.235  22.254  0.00  0.00    +0.000 OA
BRANCH  31  33
ATOM     33  O   UNL     1       9.047  12.265  23.183  0.00  0.00    +0.000 OA
ATOM     34  H   UNL     1       9.319  12.514  24.084  0.00  0.00    +0.000 HD
ENDBRANCH  31  33
ENDBRANCH  29  31
ENDBRANCH  23  25
ENDBRANCH   4  21
TORSDOF 9
ENDMDL
MODEL 5
REMARK VINA RESULT:      -7.5      7.498      9.886
REMARK  Name = 
REMARK  10 active torsions:
REMARK  status: ('A' for Active; 'I' for Inactive)
REMARK    1  A    between atoms: C_1  and  C_2
REMARK    2  A    between atoms: C_2  and  O_3
REMARK    3  A    between atoms: O_3  and  C_4
REMARK    4  A    between atoms: C_4  and  C_6
REMARK    5  A    between atoms: N_9  and  C_10
REMARK    6  A    between atoms: C_13  and  C_14
REMARK    7  A    between atoms: N_16  and  C_17
REMARK    8  A    between atoms: C_21  and  C_22
REMARK    9  A    between atoms: C_22  and  O_24
REMARK   10  A    between atoms: C_28  and  C_29
REMARK                            x       y       z     vdW  Elec       q    Type
REMARK                         _______ _______ _______ _____ _____    ______ ____
ROOT
ATOM      1  C   UNL     1       1.781   8.056  19.662  0.00  0.00    +0.000 A 
ATOM      2  C   UNL     1       1.762   7.774  21.035  0.00  0.00    +0.000 A 
ATOM      3  C   UNL     1       1.005   8.566  21.898  0.00  0.00    +0.000 A 
ATOM      4  C   UNL     1       0.229   9.626  21.403  0.00  0.00    +0.000 A 
ATOM      5  C   UNL     1       0.190   9.861  20.027  0.00  0.00    +0.000 A 
ATOM      6  C   UNL     1       0.954   9.068  19.161  0.00  0.00    +0.000 A 
ENDROOT
BRANCH   1  10
ATOM      7  C   UNL     1       3.992   5.796  17.895  0.00  0.00    +0.000 A 
ATOM      8  C   UNL     1       4.083   7.042  17.258  0.00  0.00    +0.000 A 
ATOM      9  N   UNL     1       3.247   7.937  17.774  0.00  0.00    +0.000 NA
ATOM     10  N   UNL     1       2.660   7.305  18.829  0.00  0.00    +0.000 N 
ATOM     11  C   UNL     1       3.022   5.972  18.871  0.00  0.00    +0.000 A 
BRANCH  11  12
ATOM     12  C   UNL     1       2.347   4.968  19.708  0.00  0.00    +0.000 C 
ATOM     13  F   UNL     1       1.034   5.240  19.898  0.00  0.00    +0.000 F 
ATOM     14  F   UNL     1       2.411   3.724  19.175  0.00  0.00    +0.000 F 
ATOM     15  F   UNL     1       2.887   4.904  20.951  0.00  0.00    +0.000 F 
ENDBRANCH  11  12
BRANCH   7  16
ATOM     16  C   UNL     1       4.737   4.595  17.600  0.00  0.00    +0.000 C 
ATOM     17  O   UNL     1       4.387   3.786  16.755  0.00  0.00    +0.000 OA
BRANCH  16  18
ATOM     18  O   UNL     1       5.795   4.445  18.443  0.00  0.00    +0.000 OA
BRANCH  18  20
ATOM     19  C   UNL     1       7.723   5.697  19.040  0.00  0.00    +0.000 C 
ATOM     20  C   UNL     1       7.049   4.910  17.931  0.00  0.00    +0.000 C 
ENDBRANCH  18  20
ENDBRANCH  16  18
ENDBRANCH   7  16
ENDBRANCH   1  10
BRANCH   4  21
ATOM     21  C   UNL     1      -0.430  10.517  22.386  0.00  0.00    +0.000 C 
ATOM     22  O   UNL     1      -0.244  10.270  23.573  0.00  0.00    +0.000 OA
ATOM     23  N   UNL     1      -1.241  11.529  21.892  0.00  0.00    +0.000 N 
ATOM     24  H   UNL     1      -1.518  11.479  20.920  0.00  0.00    +0.000 HD
BRANCH  23  25
ATOM     25  C   UNL     1      -1.870  12.512  22.697  0.00  0.00    +0.000 A 
ATOM     26  C   UNL     1      -1.167  13.573  23.268  0.00  0.00    +0.000 A 
ATOM     27  C   UNL     1      -1.808  14.522  24.068  0.00  0.00    +0.000 A 
ATOM     28  C   UNL     1      -3.172  14.419  24.308  0.00  0.00    +0.000 A 
ATOM     29  C   UNL     1      -3.892  13.356  23.748  0.00  0.00    +0.000 A 
ATOM     30  C   UNL     1      -3.251  12.423  22.916  0.00  0.00    +0.000 A 
BRANCH  29  31
ATOM     31  C   UNL     1      -5.349  13.202  23.989  0.00  0.00    +0.000 C 
ATOM     32  O   UNL     1      -5.908  12.122  23.976  0.00  0.00    +0.000 OA
BRANCH  31  33
ATOM     33  O   UNL     1      -5.988  14.361  24.266  0.00  0.00    +0.000 OA
ATOM     34  H   UNL     1      -6.763  14.285  24.852  0.00  0.00    +0.000 HD
ENDBRANCH  31  33
ENDBRANCH  29  31
ENDBRANCH  23  25
ENDBRANCH   4  21
TORSDOF 9
ENDMDL
MODEL 6
REMARK VINA RESULT:      -7.4      2.034      2.594
REMARK  Name = 
REMARK  10 active torsions:
REMARK  status: ('A' for Active; 'I' for Inactive)
REMARK    1  A    between atoms: C_1  and  C_2
REMARK    2  A    between atoms: C_2  and  O_3
REMARK    3  A    between atoms: O_3  and  C_4
REMARK    4  A    between atoms: C_4  and  C_6
REMARK    5  A    between atoms: N_9  and  C_10
REMARK    6  A    between atoms: C_13  and  C_14
REMARK    7  A    between atoms: N_16  and  C_17
REMARK    8  A    between atoms: C_21  and  C_22
REMARK    9  A    between atoms: C_22  and  O_24
REMARK   10  A    between atoms: C_28  and  C_29
REMARK                            x       y       z     vdW  Elec       q    Type
REMARK                         _______ _______ _______ _____ _____    ______ ____
ROOT
ATOM      1  C   UNL     1       6.421   5.959  17.529  0.00  0.00    +0.000 A 
ATOM      2  C   UNL     1       6.073   7.129  16.841  0.00  0.00    +0.000 A 
ATOM      3  C   UNL     1       6.777   8.311  17.075  0.00  0.00    +0.000 A 
ATOM      4  C   UNL     1       7.858   8.335  17.969  0.00  0.00    +0.000 A 
ATOM      5  C   UNL     1       8.252   7.153  18.599  0.00  0.00    +0.000 A 
ATOM      6  C   UNL     1       7.542   5.967  18.367  0.00  0.00    +0.000 A 
ENDROOT
BRANCH   1  10
ATOM      7  C   UNL     1       4.202   3.097  17.564  0.00  0.00    +0.000 A 
ATOM      8  C   UNL     1       4.986   2.995  16.406  0.00  0.00    +0.000 A 
ATOM      9  N   UNL     1       5.788   4.042  16.243  0.00  0.00    +0.000 NA
ATOM     10  N   UNL     1       5.604   4.805  17.357  0.00  0.00    +0.000 N 
ATOM     11  C   UNL     1       4.576   4.305  18.134  0.00  0.00    +0.000 A 
BRANCH  11  12
ATOM     12  C   UNL     1       3.951   5.049  19.239  0.00  0.00    +0.000 C 
ATOM     13  F   UNL     1       3.571   4.247  20.263  0.00  0.00    +0.000 F 
ATOM     14  F   UNL     1       4.778   5.983  19.766  0.00  0.00    +0.000 F 
ATOM     15  F   UNL     1       2.822   5.687  18.840  0.00  0.00    +0.000 F 
ENDBRANCH  11  12
BRANCH   7  16
ATOM     16  C   UNL     1       3.220   2.158  18.054  0.00  0.00    +0.000 C 
ATOM     17  O   UNL     1       3.516   1.082  18.548  0.00  0.00    +0.000 OA
BRANCH  16  18
ATOM     18  O   UNL     1       1.953   2.586  17.799  0.00  0.00    +0.000 OA
BRANCH  18  20
ATOM     19  C   UNL     1       0.742   3.213  19.743  0.00  0.00    +0.000 C 
ATOM     20  C   UNL     1       0.958   2.116  18.716  0.00  0.00    +0.000 C 
ENDBRANCH  18  20
ENDBRANCH  16  18
ENDBRANCH   7  16
ENDBRANCH   1  10
BRANCH   4  21
ATOM     21  C   UNL     1       8.465   9.649  18.284  0.00  0.00    +0.000 C 
ATOM     22  O   UNL     1       8.264  10.560  17.487  0.00  0.00    +0.000 OA
ATOM     23  N   UNL     1       9.248   9.737  19.426  0.00  0.00    +0.000 N 
ATOM     24  H   UNL     1       9.547   8.874  19.862  0.00  0.00    +0.000 HD
BRANCH  23  25
ATOM     25  C   UNL     1       9.825  10.940  19.908  0.00  0.00    +0.000 A 
ATOM     26  C   UNL     1      11.061  11.409  19.461  0.00  0.00    +0.000 A 
ATOM     27  C   UNL     1      11.614  12.590  19.962  0.00  0.00    +0.000 A 
ATOM     28  C   UNL     1      10.931  13.321  20.924  0.00  0.00    +0.000 A 
ATOM     29  C   UNL     1       9.692  12.862  21.389  0.00  0.00    +0.000 A 
ATOM     30  C   UNL     1       9.123  11.692  20.858  0.00  0.00    +0.000 A 
BRANCH  29  31
ATOM     31  C   UNL     1       8.934  13.608  22.425  0.00  0.00    +0.000 C 
ATOM     32  O   UNL     1       8.486  14.724  22.237  0.00  0.00    +0.000 OA
BRANCH  31  33
ATOM     33  O   UNL     1       8.749  12.923  23.575  0.00  0.00    +0.000 OA
ATOM     34  H   UNL     1       8.338  13.424  24.302  0.00  0.00    +0.000 HD
ENDBRANCH  31  33
ENDBRANCH  29  31
ENDBRANCH  23  25
ENDBRANCH   4  21
TORSDOF 9
ENDMDL
MODEL 7
REMARK VINA RESULT:      -7.3      7.080      9.430
REMARK  Name = 
REMARK  10 active torsions:
REMARK  status: ('A' for Active; 'I' for Inactive)
REMARK    1  A    between atoms: C_1  and  C_2
REMARK    2  A    between atoms: C_2  and  O_3
REMARK    3  A    between atoms: O_3  and  C_4
REMARK    4  A    between atoms: C_4  and  C_6
REMARK    5  A    between atoms: N_9  and  C_10
REMARK    6  A    between atoms: C_13  and  C_14
REMARK    7  A    between atoms: N_16  and  C_17
REMARK    8  A    between atoms: C_21  and  C_22
REMARK    9  A    between atoms: C_22  and  O_24
REMARK   10  A    between atoms: C_28  and  C_29
REMARK                            x       y       z     vdW  Elec       q    Type
REMARK                         _______ _______ _______ _____ _____    ______ ____
ROOT
ATOM      1  C   UNL     1       2.027   7.581  19.540  0.00  0.00    +0.000 A 
ATOM      2  C   UNL     1       1.701   8.629  18.670  0.00  0.00    +0.000 A 
ATOM      3  C   UNL     1       0.962   9.717  19.136  0.00  0.00    +0.000 A 
ATOM      4  C   UNL     1       0.569   9.792  20.481  0.00  0.00    +0.000 A 
ATOM      5  C   UNL     1       0.957   8.783  21.365  0.00  0.00    +0.000 A 
ATOM      6  C   UNL     1       1.695   7.688  20.896  0.00  0.00    +0.000 A 
ENDROOT
BRANCH   1  10
ATOM      7  C   UNL     1       3.539   4.429  18.592  0.00  0.00    +0.000 A 
ATOM      8  C   UNL     1       3.999   5.395  17.686  0.00  0.00    +0.000 A 
ATOM      9  N   UNL     1       3.443   6.584  17.887  0.00  0.00    +0.000 NA
ATOM     10  N   UNL     1       2.674   6.431  19.002  0.00  0.00    +0.000 N 
ATOM     11  C   UNL     1       2.637   5.108  19.398  0.00  0.00    +0.000 A 
BRANCH  11  12
ATOM     12  C   UNL     1       1.681   4.576  20.382  0.00  0.00    +0.000 C 
ATOM     13  F   UNL     1       2.179   4.559  21.642  0.00  0.00    +0.000 F 
ATOM     14  F   UNL     1       0.534   5.294  20.429  0.00  0.00    +0.000 F 
ATOM     15  F   UNL     1       1.342   3.290  20.109  0.00  0.00    +0.000 F 
ENDBRANCH  11  12
BRANCH   7  16
ATOM     16  C   UNL     1       3.915   3.037  18.668  0.00  0.00    +0.000 C 
ATOM     17  O   UNL     1       3.407   2.171  17.973  0.00  0.00    +0.000 OA
BRANCH  16  18
ATOM     18  O   UNL     1       4.814   2.818  19.667  0.00  0.00    +0.000 OA
BRANCH  18  20
ATOM     19  C   UNL     1       5.426   1.061  21.143  0.00  0.00    +0.000 C 
ATOM     20  C   UNL     1       4.325   2.034  20.762  0.00  0.00    +0.000 C 
ENDBRANCH  18  20
ENDBRANCH  16  18
ENDBRANCH   7  16
ENDBRANCH   1  10
BRANCH   4  21
ATOM     21  C   UNL     1      -0.338  10.895  20.875  0.00  0.00    +0.000 C 
ATOM     22  O   UNL     1      -1.084  11.339  20.008  0.00  0.00    +0.000 OA
ATOM     23  N   UNL     1      -0.243  11.371  22.176  0.00  0.00    +0.000 N 
ATOM     24  H   UNL     1       0.569  11.104  22.717  0.00  0.00    +0.000 HD
BRANCH  23  25
ATOM     25  C   UNL     1      -1.096  12.360  22.728  0.00  0.00    +0.000 A 
ATOM     26  C   UNL     1      -0.719  13.698  22.836  0.00  0.00    +0.000 A 
ATOM     27  C   UNL     1      -1.572  14.651  23.397  0.00  0.00    +0.000 A 
ATOM     28  C   UNL     1      -2.824  14.272  23.862  0.00  0.00    +0.000 A 
ATOM     29  C   UNL     1      -3.217  12.930  23.768  0.00  0.00    +0.000 A 
ATOM     30  C   UNL     1      -2.370  11.981  23.172  0.00  0.00    +0.000 A 
BRANCH  29  31
ATOM     31  C   UNL     1      -4.542  12.481  24.264  0.00  0.00    +0.000 C 
ATOM     32  O   UNL     1      -5.459  12.187  23.519  0.00  0.00    +0.000 OA
BRANCH  31  33
ATOM     33  O   UNL     1      -4.626  12.384  25.610  0.00  0.00    +0.000 OA
ATOM     34  H   UNL     1      -5.197  11.671  25.946  0.00  0.00    +0.000 HD
ENDBRANCH  31  33
ENDBRANCH  29  31
ENDBRANCH  23  25
ENDBRANCH   4  21
TORSDOF 9
ENDMDL
MODEL 8
REMARK VINA RESULT:      -7.3      7.624     10.638
REMARK  Name = 
REMARK  10 active torsions:
REMARK  status: ('A' for Active; 'I' for Inactive)
REMARK    1  A    between atoms: C_1  and  C_2
REMARK    2  A    between atoms: C_2  and  O_3
REMARK    3  A    between atoms: O_3  and  C_4
REMARK    4  A    between atoms: C_4  and  C_6
REMARK    5  A    between atoms: N_9  and  C_10
REMARK    6  A    between atoms: C_13  and  C_14
REMARK    7  A    between atoms: N_16  and  C_17
REMARK    8  A    between atoms: C_21  and  C_22
REMARK    9  A    between atoms: C_22  and  O_24
REMARK   10  A    between atoms: C_28  and  C_29
REMARK                            x       y       z     vdW  Elec       q    Type
REMARK                         _______ _______ _______ _____ _____    ______ ____
ROOT
ATOM      1  C   UNL     1       0.176  10.732  20.695  0.00  0.00    +0.000 A 
ATOM      2  C   UNL     1       0.436   9.425  21.128  0.00  0.00    +0.000 A 
ATOM      3  C   UNL     1       1.199   8.567  20.335  0.00  0.00    +0.000 A 
ATOM      4  C   UNL     1       1.743   9.011  19.119  0.00  0.00    +0.000 A 
ATOM      5  C   UNL     1       1.546  10.335  18.723  0.00  0.00    +0.000 A 
ATOM      6  C   UNL     1       0.776  11.195  19.518  0.00  0.00    +0.000 A 
ENDROOT
BRANCH   1  10
ATOM      7  C   UNL     1      -2.217  12.976  22.230  0.00  0.00    +0.000 A 
ATOM      8  C   UNL     1      -1.416  12.462  23.260  0.00  0.00    +0.000 A 
ATOM      9  N   UNL     1      -0.546  11.558  22.822  0.00  0.00    +0.000 NA
ATOM     10  N   UNL     1      -0.708  11.538  21.470  0.00  0.00    +0.000 N 
ATOM     11  C   UNL     1      -1.782  12.319  21.088  0.00  0.00    +0.000 A 
BRANCH  11  12
ATOM     12  C   UNL     1      -2.384  12.282  19.746  0.00  0.00    +0.000 C 
ATOM     13  F   UNL     1      -2.388  11.040  19.206  0.00  0.00    +0.000 F 
ATOM     14  F   UNL     1      -3.670  12.708  19.745  0.00  0.00    +0.000 F 
ATOM     15  F   UNL     1      -1.700  13.057  18.867  0.00  0.00    +0.000 F 
ENDBRANCH  11  12
BRANCH   7  16
ATOM     16  C   UNL     1      -3.267  13.962  22.333  0.00  0.00    +0.000 C 
ATOM     17  O   UNL     1      -3.193  15.069  21.824  0.00  0.00    +0.000 OA
BRANCH  16  18
ATOM     18  O   UNL     1      -4.276  13.533  23.141  0.00  0.00    +0.000 OA
BRANCH  18  20
ATOM     19  C   UNL     1      -6.141  12.742  21.903  0.00  0.00    +0.000 C 
ATOM     20  C   UNL     1      -5.592  13.901  22.715  0.00  0.00    +0.000 C 
ENDBRANCH  18  20
ENDBRANCH  16  18
ENDBRANCH   7  16
ENDBRANCH   1  10
BRANCH   4  21
ATOM     21  C   UNL     1       2.415   8.009  18.258  0.00  0.00    +0.000 C 
ATOM     22  O   UNL     1       2.654   8.341  17.102  0.00  0.00    +0.000 OA
ATOM     23  N   UNL     1       2.678   6.763  18.809  0.00  0.00    +0.000 N 
ATOM     24  H   UNL     1       2.215   6.523  19.676  0.00  0.00    +0.000 HD
BRANCH  23  25
ATOM     25  C   UNL     1       3.389   5.731  18.145  0.00  0.00    +0.000 A 
ATOM     26  C   UNL     1       2.767   4.567  17.692  0.00  0.00    +0.000 A 
ATOM     27  C   UNL     1       3.492   3.558  17.053  0.00  0.00    +0.000 A 
ATOM     28  C   UNL     1       4.859   3.704  16.858  0.00  0.00    +0.000 A 
ATOM     29  C   UNL     1       5.501   4.863  17.313  0.00  0.00    +0.000 A 
ATOM     30  C   UNL     1       4.763   5.890  17.925  0.00  0.00    +0.000 A 
BRANCH  29  31
ATOM     31  C   UNL     1       6.962   5.054  17.135  0.00  0.00    +0.000 C 
ATOM     32  O   UNL     1       7.431   5.866  16.360  0.00  0.00    +0.000 OA
BRANCH  31  33
ATOM     33  O   UNL     1       7.722   4.277  17.940  0.00  0.00    +0.000 OA
ATOM     34  H   UNL     1       7.942   4.660  18.808  0.00  0.00    +0.000 HD
ENDBRANCH  31  33
ENDBRANCH  29  31
ENDBRANCH  23  25
ENDBRANCH   4  21
TORSDOF 9
ENDMDL
MODEL 9
REMARK VINA RESULT:      -7.3      2.060      2.443
REMARK  Name = 
REMARK  10 active torsions:
REMARK  status: ('A' for Active; 'I' for Inactive)
REMARK    1  A    between atoms: C_1  and  C_2
REMARK    2  A    between atoms: C_2  and  O_3
REMARK    3  A    between atoms: O_3  and  C_4
REMARK    4  A    between atoms: C_4  and  C_6
REMARK    5  A    between atoms: N_9  and  C_10
REMARK    6  A    between atoms: C_13  and  C_14
REMARK    7  A    between atoms: N_16  and  C_17
REMARK    8  A    between atoms: C_21  and  C_22
REMARK    9  A    between atoms: C_22  and  O_24
REMARK   10  A    between atoms: C_28  and  C_29
REMARK                            x       y       z     vdW  Elec       q    Type
REMARK                         _______ _______ _______ _____ _____    ______ ____
ROOT
ATOM      1  C   UNL     1       6.026   5.861  17.765  0.00  0.00    +0.000 A 
ATOM      2  C   UNL     1       5.840   6.992  16.960  0.00  0.00    +0.000 A 
ATOM      3  C   UNL     1       6.688   8.092  17.096  0.00  0.00    +0.000 A 
ATOM      4  C   UNL     1       7.754   8.065  18.008  0.00  0.00    +0.000 A 
ATOM      5  C   UNL     1       7.985   6.910  18.758  0.00  0.00    +0.000 A 
ATOM      6  C   UNL     1       7.130   5.807  18.625  0.00  0.00    +0.000 A 
ENDROOT
BRANCH   1  10
ATOM      7  C   UNL     1       3.358   3.418  17.941  0.00  0.00    +0.000 A 
ATOM      8  C   UNL     1       4.360   2.874  17.125  0.00  0.00    +0.000 A 
ATOM      9  N   UNL     1       5.362   3.722  16.921  0.00  0.00    +0.000 NA
ATOM     10  N   UNL     1       5.068   4.809  17.687  0.00  0.00    +0.000 N 
ATOM     11  C   UNL     1       3.809   4.694  18.245  0.00  0.00    +0.000 A 
BRANCH  11  12
ATOM     12  C   UNL     1       3.093   5.810  18.884  0.00  0.00    +0.000 C 
ATOM     13  F   UNL     1       1.866   5.456  19.337  0.00  0.00    +0.000 F 
ATOM     14  F   UNL     1       3.766   6.316  19.945  0.00  0.00    +0.000 F 
ATOM     15  F   UNL     1       2.878   6.831  18.017  0.00  0.00    +0.000 F 
ENDBRANCH  11  12
BRANCH   7  16
ATOM     16  C   UNL     1       2.127   2.794  18.366  0.00  0.00    +0.000 C 
ATOM     17  O   UNL     1       1.036   3.088  17.902  0.00  0.00    +0.000 OA
BRANCH  16  18
ATOM     18  O   UNL     1       2.337   1.931  19.398  0.00  0.00    +0.000 OA
BRANCH  18  20
ATOM     19  C   UNL     1       1.344   2.783  21.380  0.00  0.00    +0.000 C 
ATOM     20  C   UNL     1       2.654   2.549  20.650  0.00  0.00    +0.000 C 
ENDBRANCH  18  20
ENDBRANCH  16  18
ENDBRANCH   7  16
ENDBRANCH   1  10
BRANCH   4  21
ATOM     21  C   UNL     1       8.523   9.316  18.209  0.00  0.00    +0.000 C 
ATOM     22  O   UNL     1       8.683  10.033  17.227  0.00  0.00    +0.000 OA
ATOM     23  N   UNL     1       9.038   9.556  19.475  0.00  0.00    +0.000 N 
ATOM     24  H   UNL     1       9.058   8.785  20.130  0.00  0.00    +0.000 HD
BRANCH  23  25
ATOM     25  C   UNL     1       9.719  10.743  19.848  0.00  0.00    +0.000 A 
ATOM     26  C   UNL     1      10.926  11.127  19.263  0.00  0.00    +0.000 A 
ATOM     27  C   UNL     1      11.585  12.295  19.658  0.00  0.00    +0.000 A 
ATOM     28  C   UNL     1      11.038  13.097  20.650  0.00  0.00    +0.000 A 
ATOM     29  C   UNL     1       9.830  12.722  21.253  0.00  0.00    +0.000 A 
ATOM     30  C   UNL     1       9.154  11.566  20.830  0.00  0.00    +0.000 A 
BRANCH  29  31
ATOM     31  C   UNL     1       9.218  13.545  22.326  0.00  0.00    +0.000 C 
ATOM     32  O   UNL     1       8.305  13.144  23.024  0.00  0.00    +0.000 OA
BRANCH  31  33
ATOM     33  O   UNL     1       9.791  14.759  22.487  0.00  0.00    +0.000 OA
ATOM     34  H   UNL     1      10.430  14.829  23.219  0.00  0.00    +0.000 HD
ENDBRANCH  31  33
ENDBRANCH  29  31
ENDBRANCH  23  25
ENDBRANCH   4  21
TORSDOF 9
ENDMDL
