MODEL 1
REMARK VINA RESULT:      -7.6      0.000      0.000
REMARK  Name = 
REMARK  11 active torsions:
REMARK  status: ('A' for Active; 'I' for Inactive)
REMARK    1  A    between atoms: C_2  and  C_3
REMARK    2  A    between atoms: C_3  and  C_4
REMARK    3  A    between atoms: C_4  and  C_5
REMARK    4  A    between atoms: C_5  and  C_6
REMARK    5  A    between atoms: C_6  and  C_7
REMARK    6  A    between atoms: C_7  and  C_8
REMARK    7  A    between atoms: C_8  and  C_9
REMARK    8  A    between atoms: C_9  and  C_10
REMARK    9  A    between atoms: N_12  and  C_13
REMARK   10  A    between atoms: C_16  and  N_17
REMARK   11  A    between atoms: N_27  and  C_28
REMARK                            x       y       z     vdW  Elec       q    Type
REMARK                         _______ _______ _______ _____ _____    ______ ____
ROOT
ATOM      1  C   UNL     1       2.605   6.321  19.287  0.00  0.00    +0.000 C 
ENDROOT
BRANCH   1   2
ATOM      2  C   UNL     1       2.259   7.699  18.868  0.00  0.00    +0.000 A 
ATOM      3  C   UNL     1       1.535   8.652  19.542  0.00  0.00    +0.000 A 
ATOM      4  N   UNL     1       1.520   9.744  18.707  0.00  0.00    +0.000 N 
ATOM      5  N   UNL     1       2.183   9.444  17.565  0.00  0.00    +0.000 NA
ATOM      6  N   UNL     1       2.649   8.204  17.661  0.00  0.00    +0.000 NA
BRANCH   4   7
ATOM      7  C   UNL     1       0.931  11.011  18.934  0.00  0.00    +0.000 A 
ATOM      8  C   UNL     1      -0.430  11.120  19.229  0.00  0.00    +0.000 A 
ATOM      9  C   UNL     1      -1.000  12.373  19.477  0.00  0.00    +0.000 A 
ATOM     10  C   UNL     1      -0.243  13.550  19.428  0.00  0.00    +0.000 A 
ATOM     11  C   UNL     1       1.120  13.418  19.115  0.00  0.00    +0.000 A 
ATOM     12  C   UNL     1       1.711  12.169  18.877  0.00  0.00    +0.000 A 
BRANCH  10  13
ATOM     13  N   UNL     1      -0.793  14.784  19.697  0.00  0.00    +0.000 N 
ATOM     14  C   UNL     1      -0.480  15.992  18.919  0.00  0.00    +0.000 C 
ATOM     15  C   UNL     1       0.214  17.042  19.796  0.00  0.00    +0.000 C 
ATOM     16  O   UNL     1      -0.539  17.323  20.988  0.00  0.00    +0.000 OA
ATOM     17  C   UNL     1      -0.707  16.122  21.762  0.00  0.00    +0.000 C 
ATOM     18  C   UNL     1      -1.472  15.042  20.978  0.00  0.00    +0.000 C 
ENDBRANCH  10  13
ENDBRANCH   4   7
ENDBRANCH   1   2
BRANCH   1  19
ATOM     19  C   UNL     1       1.715   5.822  20.424  0.00  0.00    +0.000 C 
BRANCH  19  20
ATOM     20  C   UNL     1       2.391   4.678  21.179  0.00  0.00    +0.000 C 
BRANCH  20  21
ATOM     21  C   UNL     1       1.609   3.372  21.043  0.00  0.00    +0.000 C 
BRANCH  21  22
ATOM     22  C   UNL     1       0.659   3.431  19.848  0.00  0.00    +0.000 C 
BRANCH  22  23
ATOM     23  C   UNL     1       1.011   2.376  18.803  0.00  0.00    +0.000 C 
BRANCH  23  24
ATOM     24  C   UNL     1       2.522   2.157  18.713  0.00  0.00    +0.000 C 
BRANCH  24  26
ATOM     25  O   UNL     1       2.516   3.585  16.778  0.00  0.00    +0.000 OA
ATOM     26  C   UNL     1       3.160   3.084  17.695  0.00  0.00    +0.000 C 
ATOM     27  N   UNL     1       4.518   3.268  17.925  0.00  0.00    +0.000 N 
ATOM     28  H   UNL     1       4.954   2.659  18.603  0.00  0.00    +0.000 HD
BRANCH  27  29
ATOM     29  C   UNL     1       5.374   4.121  17.193  0.00  0.00    +0.000 A 
ATOM     30  C   UNL     1       5.747   5.388  17.631  0.00  0.00    +0.000 A 
ATOM     31  C   UNL     1       6.566   6.157  16.820  0.00  0.00    +0.000 A 
ATOM     32  N   UNL     1       7.036   5.750  15.624  0.00  0.00    +0.000 NA
ATOM     33  C   UNL     1       6.681   4.510  15.230  0.00  0.00    +0.000 A 
ATOM     34  C   UNL     1       5.873   3.663  15.973  0.00  0.00    +0.000 A 
ENDBRANCH  27  29
ENDBRANCH  24  26
ENDBRANCH  23  24
ENDBRANCH  22  23
ENDBRANCH  21  22
ENDBRANCH  20  21
ENDBRANCH  19  20
ENDBRANCH   1  19
TORSDOF 11
ENDMDL
MODEL 2
REMARK VINA RESULT:      -7.5      4.969      7.300
REMARK  Name = 
REMARK  11 active torsions:
REMARK  status: ('A' for Active; 'I' for Inactive)
REMARK    1  A    between atoms: C_2  and  C_3
REMARK    2  A    between atoms: C_3  and  C_4
REMARK    3  A    between atoms: C_4  and  C_5
REMARK    4  A    between atoms: C_5  and  C_6
REMARK    5  A    between atoms: C_6  and  C_7
REMARK    6  A    between atoms: C_7  and  C_8
REMARK    7  A    between atoms: C_8  and  C_9
REMARK    8  A    between atoms: C_9  and  C_10
REMARK    9  A    between atoms: N_12  and  C_13
REMARK   10  A    between atoms: C_16  and  N_17
REMARK   11  A    between atoms: N_27  and  C_28
REMARK                            x       y       z     vdW  Elec       q    Type
REMARK                         _______ _______ _______ _____ _____    ______ ____
ROOT
ATOM      1  C   UNL     1       7.513   5.043  18.334  0.00  0.00    +0.000 C 
ENDROOT
BRANCH   1   2
ATOM      2  C   UNL     1       7.670   6.491  18.066  0.00  0.00    +0.000 A 
ATOM      3  C   UNL     1       8.342   7.439  18.799  0.00  0.00    +0.000 A 
ATOM      4  N   UNL     1       8.175   8.612  18.102  0.00  0.00    +0.000 N 
ATOM      5  N   UNL     1       7.407   8.380  17.011  0.00  0.00    +0.000 NA
ATOM      6  N   UNL     1       7.106   7.086  16.974  0.00  0.00    +0.000 NA
BRANCH   4   7
ATOM      7  C   UNL     1       8.693   9.893  18.408  0.00  0.00    +0.000 A 
ATOM      8  C   UNL     1       8.483  10.971  17.544  0.00  0.00    +0.000 A 
ATOM      9  C   UNL     1       8.977  12.239  17.865  0.00  0.00    +0.000 A 
ATOM     10  C   UNL     1       9.701  12.472  19.041  0.00  0.00    +0.000 A 
ATOM     11  C   UNL     1       9.913  11.372  19.888  0.00  0.00    +0.000 A 
ATOM     12  C   UNL     1       9.413  10.096  19.588  0.00  0.00    +0.000 A 
BRANCH  10  13
ATOM     13  N   UNL     1      10.167  13.725  19.376  0.00  0.00    +0.000 N 
ATOM     14  C   UNL     1      10.777  14.035  20.677  0.00  0.00    +0.000 C 
ATOM     15  C   UNL     1       9.935  15.062  21.445  0.00  0.00    +0.000 C 
ATOM     16  O   UNL     1       9.673  16.234  20.655  0.00  0.00    +0.000 OA
ATOM     17  C   UNL     1       8.969  15.875  19.453  0.00  0.00    +0.000 C 
ATOM     18  C   UNL     1       9.787  14.906  18.582  0.00  0.00    +0.000 C 
ENDBRANCH  10  13
ENDBRANCH   4   7
ENDBRANCH   1   2
BRANCH   1  19
ATOM     19  C   UNL     1       6.105   4.694  18.817  0.00  0.00    +0.000 C 
BRANCH  19  20
ATOM     20  C   UNL     1       5.222   4.268  17.645  0.00  0.00    +0.000 C 
BRANCH  20  21
ATOM     21  C   UNL     1       4.153   3.266  18.079  0.00  0.00    +0.000 C 
BRANCH  21  22
ATOM     22  C   UNL     1       4.394   2.805  19.516  0.00  0.00    +0.000 C 
BRANCH  22  23
ATOM     23  C   UNL     1       3.085   2.444  20.213  0.00  0.00    +0.000 C 
BRANCH  23  24
ATOM     24  C   UNL     1       2.613   3.568  21.137  0.00  0.00    +0.000 C 
BRANCH  24  26
ATOM     25  O   UNL     1       0.892   4.484  19.729  0.00  0.00    +0.000 OA
ATOM     26  C   UNL     1       1.927   4.676  20.360  0.00  0.00    +0.000 C 
ATOM     27  N   UNL     1       2.609   5.884  20.446  0.00  0.00    +0.000 N 
ATOM     28  H   UNL     1       3.536   5.858  20.849  0.00  0.00    +0.000 HD
BRANCH  27  29
ATOM     29  C   UNL     1       2.192   7.113  19.888  0.00  0.00    +0.000 A 
ATOM     30  C   UNL     1       1.502   8.083  20.609  0.00  0.00    +0.000 A 
ATOM     31  C   UNL     1       1.110   9.241  19.957  0.00  0.00    +0.000 A 
ATOM     32  N   UNL     1       1.362   9.494  18.657  0.00  0.00    +0.000 NA
ATOM     33  C   UNL     1       2.053   8.550  17.984  0.00  0.00    +0.000 A 
ATOM     34  C   UNL     1       2.494   7.364  18.550  0.00  0.00    +0.000 A 
ENDBRANCH  27  29
ENDBRANCH  24  26
ENDBRANCH  23  24
ENDBRANCH  22  23
ENDBRANCH  21  22
ENDBRANCH  20  21
ENDBRANCH  19  20
ENDBRANCH   1  19
TORSDOF 11
ENDMDL
MODEL 3
REMARK VINA RESULT:      -7.4      2.384      3.147
REMARK  Name = 
REMARK  11 active torsions:
REMARK  status: ('A' for Active; 'I' for Inactive)
REMARK    1  A    between atoms: C_2  and  C_3
REMARK    2  A    between atoms: C_3  and  C_4
REMARK    3  A    between atoms: C_4  and  C_5
REMARK    4  A    between atoms: C_5  and  C_6
REMARK    5  A    between atoms: C_6  and  C_7
REMARK    6  A    between atoms: C_7  and  C_8
REMARK    7  A    between atoms: C_8  and  C_9
REMARK    8  A    between atoms: C_9  and  C_10
REMARK    9  A    between atoms: N_12  and  C_13
REMARK   10  A    between atoms: C_16  and  N_17
REMARK   11  A    between atoms: N_27  and  C_28
REMARK                            x       y       z     vdW  Elec       q    Type
REMARK                         _______ _______ _______ _____ _____    ______ ____
ROOT
ATOM      1  C   UNL     1       2.695   7.758  18.597  0.00  0.00    +0.000 C 
ENDROOT
BRANCH   1   2
ATOM      2  C   UNL     1       1.653   8.767  18.893  0.00  0.00    +0.000 A 
ATOM      3  C   UNL     1       1.115   9.126  20.105  0.00  0.00    +0.000 A 
ATOM      4  N   UNL     1       0.198  10.107  19.811  0.00  0.00    +0.000 N 
ATOM      5  N   UNL     1       0.168  10.305  18.471  0.00  0.00    +0.000 NA
ATOM      6  N   UNL     1       1.061   9.502  17.906  0.00  0.00    +0.000 NA
BRANCH   4   7
ATOM      7  C   UNL     1      -0.617  10.840  20.707  0.00  0.00    +0.000 A 
ATOM      8  C   UNL     1      -0.626  10.536  22.070  0.00  0.00    +0.000 A 
ATOM      9  C   UNL     1      -1.415  11.280  22.953  0.00  0.00    +0.000 A 
ATOM     10  C   UNL     1      -2.223  12.335  22.510  0.00  0.00    +0.000 A 
ATOM     11  C   UNL     1      -2.209  12.613  21.135  0.00  0.00    +0.000 A 
ATOM     12  C   UNL     1      -1.414  11.887  20.237  0.00  0.00    +0.000 A 
BRANCH  10  13
ATOM     13  N   UNL     1      -2.981  13.089  23.380  0.00  0.00    +0.000 N 
ATOM     14  C   UNL     1      -3.941  12.501  24.327  0.00  0.00    +0.000 C 
ATOM     15  C   UNL     1      -5.371  12.957  24.008  0.00  0.00    +0.000 C 
ATOM     16  O   UNL     1      -5.468  14.389  23.927  0.00  0.00    +0.000 OA
ATOM     17  C   UNL     1      -4.592  14.888  22.901  0.00  0.00    +0.000 C 
ATOM     18  C   UNL     1      -3.121  14.542  23.191  0.00  0.00    +0.000 C 
ENDBRANCH  10  13
ENDBRANCH   4   7
ENDBRANCH   1   2
BRANCH   1  19
ATOM     19  C   UNL     1       2.195   6.330  18.817  0.00  0.00    +0.000 C 
BRANCH  19  20
ATOM     20  C   UNL     1       2.151   5.995  20.307  0.00  0.00    +0.000 C 
BRANCH  20  21
ATOM     21  C   UNL     1       1.914   4.504  20.544  0.00  0.00    +0.000 C 
BRANCH  21  22
ATOM     22  C   UNL     1       1.227   3.866  19.336  0.00  0.00    +0.000 C 
BRANCH  22  23
ATOM     23  C   UNL     1       1.328   2.344  19.377  0.00  0.00    +0.000 C 
BRANCH  23  24
ATOM     24  C   UNL     1       2.653   1.853  18.792  0.00  0.00    +0.000 C 
BRANCH  24  26
ATOM     25  O   UNL     1       2.442   3.089  16.740  0.00  0.00    +0.000 OA
ATOM     26  C   UNL     1       3.150   2.770  17.691  0.00  0.00    +0.000 C 
ATOM     27  N   UNL     1       4.465   3.171  17.890  0.00  0.00    +0.000 N 
ATOM     28  H   UNL     1       4.985   2.694  18.614  0.00  0.00    +0.000 HD
BRANCH  27  29
ATOM     29  C   UNL     1       5.189   4.073  17.077  0.00  0.00    +0.000 A 
ATOM     30  C   UNL     1       5.668   3.745  15.812  0.00  0.00    +0.000 A 
ATOM     31  C   UNL     1       6.395   4.694  15.111  0.00  0.00    +0.000 A 
ATOM     32  N   UNL     1       6.666   5.929  15.578  0.00  0.00    +0.000 NA
ATOM     33  C   UNL     1       6.172   6.233  16.796  0.00  0.00    +0.000 A 
ATOM     34  C   UNL     1       5.428   5.355  17.570  0.00  0.00    +0.000 A 
ENDBRANCH  27  29
ENDBRANCH  24  26
ENDBRANCH  23  24
ENDBRANCH  22  23
ENDBRANCH  21  22
ENDBRANCH  20  21
ENDBRANCH  19  20
ENDBRANCH   1  19
TORSDOF 11
ENDMDL
MODEL 4
REMARK VINA RESULT:      -7.3      2.979      3.714
REMARK  Name = 
REMARK  11 active torsions:
REMARK  status: ('A' for Active; 'I' for Inactive)
REMARK    1  A    between atoms: C_2  and  C_3
REMARK    2  A    between atoms: C_3  and  C_4
REMARK    3  A    between atoms: C_4  and  C_5
REMARK    4  A    between atoms: C_5  and  C_6
REMARK    5  A    between atoms: C_6  and  C_7
REMARK    6  A    between atoms: C_7  and  C_8
REMARK    7  A    between atoms: C_8  and  C_9
REMARK    8  A    between atoms: C_9  and  C_10
REMARK    9  A    between atoms: N_12  and  C_13
REMARK   10  A    between atoms: C_16  and  N_17
REMARK   11  A    between atoms: N_27  and  C_28
REMARK                            x       y       z     vdW  Elec       q    Type
REMARK                         _______ _______ _______ _____ _____    ______ ____
ROOT
ATOM      1  C   UNL     1       2.782   8.171  17.774  0.00  0.00    +0.000 C 
ENDROOT
BRANCH   1   2
ATOM      2  C   UNL     1       1.712   9.162  18.034  0.00  0.00    +0.000 A 
ATOM      3  C   UNL     1       0.357   9.039  17.853  0.00  0.00    +0.000 A 
ATOM      4  N   UNL     1      -0.167  10.246  18.254  0.00  0.00    +0.000 N 
ATOM      5  N   UNL     1       0.841  11.068  18.633  0.00  0.00    +0.000 NA
ATOM      6  N   UNL     1       1.989  10.410  18.514  0.00  0.00    +0.000 NA
BRANCH   4   7
ATOM      7  C   UNL     1      -1.526  10.638  18.298  0.00  0.00    +0.000 A 
ATOM      8  C   UNL     1      -1.938  11.684  19.128  0.00  0.00    +0.000 A 
ATOM      9  C   UNL     1      -3.278  12.083  19.148  0.00  0.00    +0.000 A 
ATOM     10  C   UNL     1      -4.247  11.451  18.359  0.00  0.00    +0.000 A 
ATOM     11  C   UNL     1      -3.814  10.393  17.544  0.00  0.00    +0.000 A 
ATOM     12  C   UNL     1      -2.472   9.989  17.501  0.00  0.00    +0.000 A 
BRANCH  10  13
ATOM     13  N   UNL     1      -5.564  11.857  18.355  0.00  0.00    +0.000 N 
ATOM     14  C   UNL     1      -6.206  12.491  17.194  0.00  0.00    +0.000 C 
ATOM     15  C   UNL     1      -6.639  13.926  17.524  0.00  0.00    +0.000 C 
ATOM     16  O   UNL     1      -7.448  13.978  18.711  0.00  0.00    +0.000 OA
ATOM     17  C   UNL     1      -6.717  13.453  19.833  0.00  0.00    +0.000 C 
ATOM     18  C   UNL     1      -6.316  11.984  19.614  0.00  0.00    +0.000 C 
ENDBRANCH  10  13
ENDBRANCH   4   7
ENDBRANCH   1   2
BRANCH   1  19
ATOM     19  C   UNL     1       2.393   6.767  18.238  0.00  0.00    +0.000 C 
BRANCH  19  20
ATOM     20  C   UNL     1       2.424   6.673  19.763  0.00  0.00    +0.000 C 
BRANCH  20  21
ATOM     21  C   UNL     1       2.244   5.234  20.244  0.00  0.00    +0.000 C 
BRANCH  21  22
ATOM     22  C   UNL     1       1.394   4.435  19.256  0.00  0.00    +0.000 C 
BRANCH  22  23
ATOM     23  C   UNL     1       1.398   2.947  19.594  0.00  0.00    +0.000 C 
BRANCH  23  24
ATOM     24  C   UNL     1       2.611   2.237  18.991  0.00  0.00    +0.000 C 
BRANCH  24  26
ATOM     25  O   UNL     1       2.509   3.244  16.809  0.00  0.00    +0.000 OA
ATOM     26  C   UNL     1       3.177   3.005  17.811  0.00  0.00    +0.000 C 
ATOM     27  N   UNL     1       4.502   3.374  18.006  0.00  0.00    +0.000 N 
ATOM     28  H   UNL     1       4.981   2.961  18.796  0.00  0.00    +0.000 HD
BRANCH  27  29
ATOM     29  C   UNL     1       5.285   4.150  17.123  0.00  0.00    +0.000 A 
ATOM     30  C   UNL     1       5.728   3.687  15.888  0.00  0.00    +0.000 A 
ATOM     31  C   UNL     1       6.520   4.519  15.112  0.00  0.00    +0.000 A 
ATOM     32  N   UNL     1       6.887   5.764  15.477  0.00  0.00    +0.000 NA
ATOM     33  C   UNL     1       6.427   6.200  16.668  0.00  0.00    +0.000 A 
ATOM     34  C   UNL     1       5.624   5.446  17.511  0.00  0.00    +0.000 A 
ENDBRANCH  27  29
ENDBRANCH  24  26
ENDBRANCH  23  24
ENDBRANCH  22  23
ENDBRANCH  21  22
ENDBRANCH  20  21
ENDBRANCH  19  20
ENDBRANCH   1  19
TORSDOF 11
ENDMDL
MODEL 5
REMARK VINA RESULT:      -7.2      2.261      2.839
REMARK  Name = 
REMARK  11 active torsions:
REMARK  status: ('A' for Active; 'I' for Inactive)
REMARK    1  A    between atoms: C_2  and  C_3
REMARK    2  A    between atoms: C_3  and  C_4
REMARK    3  A    between atoms: C_4  and  C_5
REMARK    4  A    between atoms: C_5  and  C_6
REMARK    5  A    between atoms: C_6  and  C_7
REMARK    6  A    between atoms: C_7  and  C_8
REMARK    7  A    between atoms: C_8  and  C_9
REMARK    8  A    between atoms: C_9  and  C_10
REMARK    9  A    between atoms: N_12  and  C_13
REMARK   10  A    between atoms: C_16  and  N_17
REMARK   11  A    between atoms: N_27  and  C_28
REMARK                            x       y       z     vdW  Elec       q    Type
REMARK                         _______ _______ _______ _____ _____    ______ ____
ROOT
ATOM      1  C   UNL     1       2.432   8.495  18.388  0.00  0.00    +0.000 C 
ENDROOT
BRANCH   1   2
ATOM      2  C   UNL     1       1.251   9.344  18.666  0.00  0.00    +0.000 A 
ATOM      3  C   UNL     1       0.891   9.971  19.833  0.00  0.00    +0.000 A 
ATOM      4  N   UNL     1      -0.282  10.626  19.539  0.00  0.00    +0.000 N 
ATOM      5  N   UNL     1      -0.625  10.375  18.253  0.00  0.00    +0.000 NA
ATOM      6  N   UNL     1       0.311   9.604  17.710  0.00  0.00    +0.000 NA
BRANCH   4   7
ATOM      7  C   UNL     1      -1.059  11.451  20.387  0.00  0.00    +0.000 A 
ATOM      8  C   UNL     1      -2.118  12.202  19.871  0.00  0.00    +0.000 A 
ATOM      9  C   UNL     1      -2.898  12.997  20.718  0.00  0.00    +0.000 A 
ATOM     10  C   UNL     1      -2.643  13.078  22.092  0.00  0.00    +0.000 A 
ATOM     11  C   UNL     1      -1.565  12.327  22.587  0.00  0.00    +0.000 A 
ATOM     12  C   UNL     1      -0.782  11.515  21.754  0.00  0.00    +0.000 A 
BRANCH  10  13
ATOM     13  N   UNL     1      -3.425  13.838  22.936  0.00  0.00    +0.000 N 
ATOM     14  C   UNL     1      -4.000  15.135  22.549  0.00  0.00    +0.000 C 
ATOM     15  C   UNL     1      -3.435  16.265  23.420  0.00  0.00    +0.000 C 
ATOM     16  O   UNL     1      -3.582  15.981  24.821  0.00  0.00    +0.000 OA
ATOM     17  C   UNL     1      -2.896  14.763  25.156  0.00  0.00    +0.000 C 
ATOM     18  C   UNL     1      -3.462  13.560  24.381  0.00  0.00    +0.000 C 
ENDBRANCH  10  13
ENDBRANCH   4   7
ENDBRANCH   1   2
BRANCH   1  19
ATOM     19  C   UNL     1       2.147   7.012  18.627  0.00  0.00    +0.000 C 
BRANCH  19  20
ATOM     20  C   UNL     1       2.284   6.667  20.109  0.00  0.00    +0.000 C 
BRANCH  20  21
ATOM     21  C   UNL     1       1.373   5.505  20.504  0.00  0.00    +0.000 C 
BRANCH  21  22
ATOM     22  C   UNL     1       2.058   4.165  20.241  0.00  0.00    +0.000 C 
BRANCH  22  23
ATOM     23  C   UNL     1       1.199   3.263  19.359  0.00  0.00    +0.000 C 
BRANCH  23  24
ATOM     24  C   UNL     1       1.555   3.419  17.880  0.00  0.00    +0.000 C 
BRANCH  24  26
ATOM     25  O   UNL     1       3.548   2.074  17.809  0.00  0.00    +0.000 OA
ATOM     26  C   UNL     1       3.033   3.174  17.634  0.00  0.00    +0.000 C 
ATOM     27  N   UNL     1       3.696   4.321  17.215  0.00  0.00    +0.000 N 
ATOM     28  H   UNL     1       3.190   5.194  17.285  0.00  0.00    +0.000 HD
BRANCH  27  29
ATOM     29  C   UNL     1       5.057   4.403  16.846  0.00  0.00    +0.000 A 
ATOM     30  C   UNL     1       6.082   4.652  17.754  0.00  0.00    +0.000 A 
ATOM     31  C   UNL     1       7.381   4.745  17.282  0.00  0.00    +0.000 A 
ATOM     32  N   UNL     1       7.721   4.603  15.985  0.00  0.00    +0.000 NA
ATOM     33  C   UNL     1       6.715   4.339  15.125  0.00  0.00    +0.000 A 
ATOM     34  C   UNL     1       5.386   4.219  15.503  0.00  0.00    +0.000 A 
ENDBRANCH  27  29
ENDBRANCH  24  26
ENDBRANCH  23  24
ENDBRANCH  22  23
ENDBRANCH  21  22
ENDBRANCH  20  21
ENDBRANCH  19  20
ENDBRANCH   1  19
TORSDOF 11
ENDMDL
MODEL 6
REMARK VINA RESULT:      -7.2      4.397      6.726
REMARK  Name = 
REMARK  11 active torsions:
REMARK  status: ('A' for Active; 'I' for Inactive)
REMARK    1  A    between atoms: C_2  and  C_3
REMARK    2  A    between atoms: C_3  and  C_4
REMARK    3  A    between atoms: C_4  and  C_5
REMARK    4  A    between atoms: C_5  and  C_6
REMARK    5  A    between atoms: C_6  and  C_7
REMARK    6  A    between atoms: C_7  and  C_8
REMARK    7  A    between atoms: C_8  and  C_9
REMARK    8  A    between atoms: C_9  and  C_10
REMARK    9  A    between atoms: N_12  and  C_13
REMARK   10  A    between atoms: C_16  and  N_17
REMARK   11  A    between atoms: N_27  and  C_28
REMARK                            x       y       z     vdW  Elec       q    Type
REMARK                         _______ _______ _______ _____ _____    ______ ____
ROOT
ATOM      1  C   UNL     1       4.926   4.071  16.621  0.00  0.00    +0.000 C 
ENDROOT
BRANCH   1   2
ATOM      2  C   UNL     1       4.023   4.828  17.517  0.00  0.00    +0.000 A 
ATOM      3  C   UNL     1       3.710   6.165  17.503  0.00  0.00    +0.000 A 
ATOM      4  N   UNL     1       2.827   6.335  18.543  0.00  0.00    +0.000 N 
ATOM      5  N   UNL     1       2.642   5.151  19.173  0.00  0.00    +0.000 NA
ATOM      6  N   UNL     1       3.358   4.224  18.546  0.00  0.00    +0.000 NA
BRANCH   4   7
ATOM      7  C   UNL     1       2.171   7.523  18.948  0.00  0.00    +0.000 A 
ATOM      8  C   UNL     1       1.753   7.688  20.271  0.00  0.00    +0.000 A 
ATOM      9  C   UNL     1       1.128   8.874  20.670  0.00  0.00    +0.000 A 
ATOM     10  C   UNL     1       0.889   9.920  19.770  0.00  0.00    +0.000 A 
ATOM     11  C   UNL     1       1.303   9.726  18.443  0.00  0.00    +0.000 A 
ATOM     12  C   UNL     1       1.944   8.550  18.028  0.00  0.00    +0.000 A 
BRANCH  10  13
ATOM     13  N   UNL     1       0.297  11.101  20.164  0.00  0.00    +0.000 N 
ATOM     14  C   UNL     1      -1.109  11.427  19.887  0.00  0.00    +0.000 C 
ATOM     15  C   UNL     1      -1.216  12.654  18.972  0.00  0.00    +0.000 C 
ATOM     16  O   UNL     1      -0.472  13.770  19.489  0.00  0.00    +0.000 OA
ATOM     17  C   UNL     1       0.917  13.422  19.623  0.00  0.00    +0.000 C 
ATOM     18  C   UNL     1       1.117  12.246  20.595  0.00  0.00    +0.000 C 
ENDBRANCH  10  13
ENDBRANCH   4   7
ENDBRANCH   1   2
BRANCH   1  19
ATOM     19  C   UNL     1       6.400   4.311  16.948  0.00  0.00    +0.000 C 
BRANCH  19  20
ATOM     20  C   UNL     1       7.003   5.345  15.999  0.00  0.00    +0.000 C 
BRANCH  20  21
ATOM     21  C   UNL     1       7.300   6.663  16.714  0.00  0.00    +0.000 C 
BRANCH  21  22
ATOM     22  C   UNL     1       7.788   6.408  18.139  0.00  0.00    +0.000 C 
BRANCH  22  23
ATOM     23  C   UNL     1       8.306   7.688  18.789  0.00  0.00    +0.000 C 
BRANCH  23  24
ATOM     24  C   UNL     1       8.126   8.897  17.870  0.00  0.00    +0.000 C 
BRANCH  24  26
ATOM     25  O   UNL     1       9.592  10.059  19.381  0.00  0.00    +0.000 OA
ATOM     26  C   UNL     1       8.845  10.119  18.409  0.00  0.00    +0.000 C 
ATOM     27  N   UNL     1       8.545  11.270  17.690  0.00  0.00    +0.000 N 
ATOM     28  H   UNL     1       7.782  11.211  17.029  0.00  0.00    +0.000 HD
BRANCH  27  29
ATOM     29  C   UNL     1       9.103  12.550  17.904  0.00  0.00    +0.000 A 
ATOM     30  C   UNL     1       8.404  13.598  18.496  0.00  0.00    +0.000 A 
ATOM     31  C   UNL     1       9.034  14.825  18.629  0.00  0.00    +0.000 A 
ATOM     32  N   UNL     1      10.297  15.070  18.224  0.00  0.00    +0.000 NA
ATOM     33  C   UNL     1      10.962  14.033  17.674  0.00  0.00    +0.000 A 
ATOM     34  C   UNL     1      10.421  12.768  17.505  0.00  0.00    +0.000 A 
ENDBRANCH  27  29
ENDBRANCH  24  26
ENDBRANCH  23  24
ENDBRANCH  22  23
ENDBRANCH  21  22
ENDBRANCH  20  21
ENDBRANCH  19  20
ENDBRANCH   1  19
TORSDOF 11
ENDMDL
MODEL 7
REMARK VINA RESULT:      -7.1      2.285      2.921
REMARK  Name = 
REMARK  11 active torsions:
REMARK  status: ('A' for Active; 'I' for Inactive)
REMARK    1  A    between atoms: C_2  and  C_3
REMARK    2  A    between atoms: C_3  and  C_4
REMARK    3  A    between atoms: C_4  and  C_5
REMARK    4  A    between atoms: C_5  and  C_6
REMARK    5  A    between atoms: C_6  and  C_7
REMARK    6  A    between atoms: C_7  and  C_8
REMARK    7  A    between atoms: C_8  and  C_9
REMARK    8  A    between atoms: C_9  and  C_10
REMARK    9  A    between atoms: N_12  and  C_13
REMARK   10  A    between atoms: C_16  and  N_17
REMARK   11  A    between atoms: N_27  and  C_28
REMARK                            x       y       z     vdW  Elec       q    Type
REMARK                         _______ _______ _______ _____ _____    ______ ____
ROOT
ATOM      1  C   UNL     1       2.130   7.171  20.413  0.00  0.00    +0.000 C 
ENDROOT
BRANCH   1   2
ATOM      2  C   UNL     1       1.477   8.500  20.394  0.00  0.00    +0.000 A 
ATOM      3  C   UNL     1       1.045   9.267  21.448  0.00  0.00    +0.000 A 
ATOM      4  N   UNL     1       0.522  10.401  20.872  0.00  0.00    +0.000 N 
ATOM      5  N   UNL     1       0.611  10.301  19.525  0.00  0.00    +0.000 NA
ATOM      6  N   UNL     1       1.204   9.151  19.225  0.00  0.00    +0.000 NA
BRANCH   4   7
ATOM      7  C   UNL     1      -0.033  11.533  21.517  0.00  0.00    +0.000 A 
ATOM      8  C   UNL     1       0.418  12.818  21.208  0.00  0.00    +0.000 A 
ATOM      9  C   UNL     1      -0.151  13.934  21.831  0.00  0.00    +0.000 A 
ATOM     10  C   UNL     1      -1.171  13.806  22.782  0.00  0.00    +0.000 A 
ATOM     11  C   UNL     1      -1.599  12.504  23.087  0.00  0.00    +0.000 A 
ATOM     12  C   UNL     1      -1.049  11.376  22.463  0.00  0.00    +0.000 A 
BRANCH  10  13
ATOM     13  N   UNL     1      -1.755  14.904  23.378  0.00  0.00    +0.000 N 
ATOM     14  C   UNL     1      -1.263  15.493  24.632  0.00  0.00    +0.000 C 
ATOM     15  C   UNL     1      -2.318  15.379  25.740  0.00  0.00    +0.000 C 
ATOM     16  O   UNL     1      -3.585  15.917  25.327  0.00  0.00    +0.000 OA
ATOM     17  C   UNL     1      -4.067  15.216  24.167  0.00  0.00    +0.000 C 
ATOM     18  C   UNL     1      -3.099  15.351  22.978  0.00  0.00    +0.000 C 
ENDBRANCH  10  13
ENDBRANCH   4   7
ENDBRANCH   1   2
BRANCH   1  19
ATOM     19  C   UNL     1       1.155   6.053  20.781  0.00  0.00    +0.000 C 
BRANCH  19  20
ATOM     20  C   UNL     1       1.903   4.745  21.035  0.00  0.00    +0.000 C 
BRANCH  20  21
ATOM     21  C   UNL     1       1.094   3.533  20.575  0.00  0.00    +0.000 C 
BRANCH  21  22
ATOM     22  C   UNL     1       2.014   2.441  20.031  0.00  0.00    +0.000 C 
BRANCH  22  23
ATOM     23  C   UNL     1       1.906   2.325  18.513  0.00  0.00    +0.000 C 
BRANCH  23  24
ATOM     24  C   UNL     1       1.566   3.670  17.869  0.00  0.00    +0.000 C 
BRANCH  24  26
ATOM     25  O   UNL     1       2.903   5.655  17.626  0.00  0.00    +0.000 OA
ATOM     26  C   UNL     1       2.818   4.439  17.489  0.00  0.00    +0.000 C 
ATOM     27  N   UNL     1       3.809   3.612  16.972  0.00  0.00    +0.000 N 
ATOM     28  H   UNL     1       3.543   2.662  16.749  0.00  0.00    +0.000 HD
BRANCH  27  29
ATOM     29  C   UNL     1       5.108   4.016  16.588  0.00  0.00    +0.000 A 
ATOM     30  C   UNL     1       6.119   4.304  17.501  0.00  0.00    +0.000 A 
ATOM     31  C   UNL     1       7.348   4.723  17.019  0.00  0.00    +0.000 A 
ATOM     32  N   UNL     1       7.634   4.865  15.709  0.00  0.00    +0.000 NA
ATOM     33  C   UNL     1       6.647   4.558  14.842  0.00  0.00    +0.000 A 
ATOM     34  C   UNL     1       5.387   4.123  15.226  0.00  0.00    +0.000 A 
ENDBRANCH  27  29
ENDBRANCH  24  26
ENDBRANCH  23  24
ENDBRANCH  22  23
ENDBRANCH  21  22
ENDBRANCH  20  21
ENDBRANCH  19  20
ENDBRANCH   1  19
TORSDOF 11
ENDMDL
MODEL 8
REMARK VINA RESULT:      -7.1      1.167      1.504
REMARK  Name = 
REMARK  11 active torsions:
REMARK  status: ('A' for Active; 'I' for Inactive)
REMARK    1  A    between atoms: C_2  and  C_3
REMARK    2  A    between atoms: C_3  and  C_4
REMARK    3  A    between atoms: C_4  and  C_5
REMARK    4  A    between atoms: C_5  and  C_6
REMARK    5  A    between atoms: C_6  and  C_7
REMARK    6  A    between atoms: C_7  and  C_8
REMARK    7  A    between atoms: C_8  and  C_9
REMARK    8  A    between atoms: C_9  and  C_10
REMARK    9  A    between atoms: N_12  and  C_13
REMARK   10  A    between atoms: C_16  and  N_17
REMARK   11  A    between atoms: N_27  and  C_28
REMARK                            x       y       z     vdW  Elec       q    Type
REMARK                         _______ _______ _______ _____ _____    ______ ____
ROOT
ATOM      1  C   UNL     1       1.432   6.543  20.842  0.00  0.00    +0.000 C 
ENDROOT
BRANCH   1   2
ATOM      2  C   UNL     1       1.531   7.806  20.076  0.00  0.00    +0.000 A 
ATOM      3  C   UNL     1       1.060   9.055  20.401  0.00  0.00    +0.000 A 
ATOM      4  N   UNL     1       1.428   9.859  19.349  0.00  0.00    +0.000 N 
ATOM      5  N   UNL     1       2.068   9.114  18.417  0.00  0.00    +0.000 NA
ATOM      6  N   UNL     1       2.147   7.864  18.859  0.00  0.00    +0.000 NA
BRANCH   4   7
ATOM      7  C   UNL     1       1.212  11.250  19.194  0.00  0.00    +0.000 A 
ATOM      8  C   UNL     1       0.167  11.887  19.867  0.00  0.00    +0.000 A 
ATOM      9  C   UNL     1      -0.026  13.265  19.728  0.00  0.00    +0.000 A 
ATOM     10  C   UNL     1       0.802  14.046  18.912  0.00  0.00    +0.000 A 
ATOM     11  C   UNL     1       1.836  13.383  18.233  0.00  0.00    +0.000 A 
ATOM     12  C   UNL     1       2.052  12.004  18.371  0.00  0.00    +0.000 A 
BRANCH  10  13
ATOM     13  N   UNL     1       0.633  15.409  18.793  0.00  0.00    +0.000 N 
ATOM     14  C   UNL     1       1.744  16.336  18.532  0.00  0.00    +0.000 C 
ATOM     15  C   UNL     1       1.932  17.307  19.706  0.00  0.00    +0.000 C 
ATOM     16  O   UNL     1       0.707  17.979  20.042  0.00  0.00    +0.000 OA
ATOM     17  C   UNL     1      -0.302  17.020  20.402  0.00  0.00    +0.000 C 
ATOM     18  C   UNL     1      -0.610  16.056  19.244  0.00  0.00    +0.000 C 
ENDBRANCH  10  13
ENDBRANCH   4   7
ENDBRANCH   1   2
BRANCH   1  19
ATOM     19  C   UNL     1       2.307   5.438  20.249  0.00  0.00    +0.000 C 
BRANCH  19  20
ATOM     20  C   UNL     1       2.616   4.372  21.299  0.00  0.00    +0.000 C 
BRANCH  20  21
ATOM     21  C   UNL     1       1.611   3.222  21.249  0.00  0.00    +0.000 C 
BRANCH  21  22
ATOM     22  C   UNL     1       0.694   3.356  20.034  0.00  0.00    +0.000 C 
BRANCH  22  23
ATOM     23  C   UNL     1       1.042   2.334  18.956  0.00  0.00    +0.000 C 
BRANCH  23  24
ATOM     24  C   UNL     1       1.563   3.011  17.687  0.00  0.00    +0.000 C 
BRANCH  24  26
ATOM     25  O   UNL     1       3.661   1.844  17.821  0.00  0.00    +0.000 OA
ATOM     26  C   UNL     1       3.071   2.890  17.569  0.00  0.00    +0.000 C 
ATOM     27  N   UNL     1       3.667   4.079  17.167  0.00  0.00    +0.000 N 
ATOM     28  H   UNL     1       3.085   4.906  17.167  0.00  0.00    +0.000 HD
BRANCH  27  29
ATOM     29  C   UNL     1       5.042   4.269  16.905  0.00  0.00    +0.000 A 
ATOM     30  C   UNL     1       5.595   4.191  15.630  0.00  0.00    +0.000 A 
ATOM     31  C   UNL     1       6.963   4.361  15.488  0.00  0.00    +0.000 A 
ATOM     32  N   UNL     1       7.801   4.608  16.515  0.00  0.00    +0.000 NA
ATOM     33  C   UNL     1       7.240   4.703  17.738  0.00  0.00    +0.000 A 
ATOM     34  C   UNL     1       5.883   4.556  17.980  0.00  0.00    +0.000 A 
ENDBRANCH  27  29
ENDBRANCH  24  26
ENDBRANCH  23  24
ENDBRANCH  22  23
ENDBRANCH  21  22
ENDBRANCH  20  21
ENDBRANCH  19  20
ENDBRANCH   1  19
TORSDOF 11
ENDMDL
MODEL 9
REMARK VINA RESULT:      -7.1      1.124      1.268
REMARK  Name = 
REMARK  11 active torsions:
REMARK  status: ('A' for Active; 'I' for Inactive)
REMARK    1  A    between atoms: C_2  and  C_3
REMARK    2  A    between atoms: C_3  and  C_4
REMARK    3  A    between atoms: C_4  and  C_5
REMARK    4  A    between atoms: C_5  and  C_6
REMARK    5  A    between atoms: C_6  and  C_7
REMARK    6  A    between atoms: C_7  and  C_8
REMARK    7  A    between atoms: C_8  and  C_9
REMARK    8  A    between atoms: C_9  and  C_10
REMARK    9  A    between atoms: N_12  and  C_13
REMARK   10  A    between atoms: C_16  and  N_17
REMARK   11  A    between atoms: N_27  and  C_28
REMARK                            x       y       z     vdW  Elec       q    Type
REMARK                         _______ _______ _______ _____ _____    ______ ____
ROOT
ATOM      1  C   UNL     1       2.569   6.638  18.267  0.00  0.00    +0.000 C 
ENDROOT
BRANCH   1   2
ATOM      2  C   UNL     1       2.147   8.055  18.339  0.00  0.00    +0.000 A 
ATOM      3  C   UNL     1       1.365   8.678  19.280  0.00  0.00    +0.000 A 
ATOM      4  N   UNL     1       1.293   9.989  18.872  0.00  0.00    +0.000 N 
ATOM      5  N   UNL     1       1.982  10.137  17.716  0.00  0.00    +0.000 NA
ATOM      6  N   UNL     1       2.517   8.966  17.391  0.00  0.00    +0.000 NA
BRANCH   4   7
ATOM      7  C   UNL     1       0.631  11.068  19.507  0.00  0.00    +0.000 A 
ATOM      8  C   UNL     1      -0.609  11.514  19.041  0.00  0.00    +0.000 A 
ATOM      9  C   UNL     1      -1.269  12.564  19.687  0.00  0.00    +0.000 A 
ATOM     10  C   UNL     1      -0.716  13.207  20.801  0.00  0.00    +0.000 A 
ATOM     11  C   UNL     1       0.537  12.753  21.243  0.00  0.00    +0.000 A 
ATOM     12  C   UNL     1       1.207  11.693  20.615  0.00  0.00    +0.000 A 
BRANCH  10  13
ATOM     13  N   UNL     1      -1.374  14.225  21.458  0.00  0.00    +0.000 N 
ATOM     14  C   UNL     1      -2.197  15.228  20.767  0.00  0.00    +0.000 C 
ATOM     15  C   UNL     1      -1.605  16.633  20.937  0.00  0.00    +0.000 C 
ATOM     16  O   UNL     1      -1.378  16.950  22.321  0.00  0.00    +0.000 OA
ATOM     17  C   UNL     1      -0.470  16.000  22.905  0.00  0.00    +0.000 C 
ATOM     18  C   UNL     1      -1.031  14.568  22.848  0.00  0.00    +0.000 C 
ENDBRANCH  10  13
ENDBRANCH   4   7
ENDBRANCH   1   2
BRANCH   1  19
ATOM     19  C   UNL     1       3.038   6.105  19.621  0.00  0.00    +0.000 C 
BRANCH  19  20
ATOM     20  C   UNL     1       1.844   5.759  20.509  0.00  0.00    +0.000 C 
BRANCH  20  21
ATOM     21  C   UNL     1       1.167   4.463  20.064  0.00  0.00    +0.000 C 
BRANCH  21  22
ATOM     22  C   UNL     1       2.071   3.260  20.330  0.00  0.00    +0.000 C 
BRANCH  22  23
ATOM     23  C   UNL     1       1.869   2.168  19.283  0.00  0.00    +0.000 C 
BRANCH  23  24
ATOM     24  C   UNL     1       3.188   1.785  18.610  0.00  0.00    +0.000 C 
BRANCH  24  26
ATOM     25  O   UNL     1       3.048   3.480  16.909  0.00  0.00    +0.000 OA
ATOM     26  C   UNL     1       3.731   2.920  17.762  0.00  0.00    +0.000 C 
ATOM     27  N   UNL     1       5.056   3.216  18.060  0.00  0.00    +0.000 N 
ATOM     28  H   UNL     1       5.549   2.563  18.654  0.00  0.00    +0.000 HD
BRANCH  27  29
ATOM     29  C   UNL     1       5.820   4.259  17.491  0.00  0.00    +0.000 A 
ATOM     30  C   UNL     1       6.195   5.402  18.192  0.00  0.00    +0.000 A 
ATOM     31  C   UNL     1       6.917   6.381  17.529  0.00  0.00    +0.000 A 
ATOM     32  N   UNL     1       7.290   6.294  16.236  0.00  0.00    +0.000 NA
ATOM     33  C   UNL     1       6.936   5.168  15.583  0.00  0.00    +0.000 A 
ATOM     34  C   UNL     1       6.221   4.131  16.161  0.00  0.00    +0.000 A 
ENDBRANCH  27  29
ENDBRANCH  24  26
ENDBRANCH  23  24
ENDBRANCH  22  23
ENDBRANCH  21  22
ENDBRANCH  20  21
ENDBRANCH  19  20
ENDBRANCH   1  19
TORSDOF 11
ENDMDL
