MODEL 1
REMARK VINA RESULT:      -7.5      0.000      0.000
REMARK  Name = 
REMARK  19 active torsions:
REMARK  status: ('A' for Active; 'I' for Inactive)
REMARK    1  A    between atoms: C_1  and  C_2
REMARK    2  A    between atoms: C_2  and  C_3
REMARK    3  A    between atoms: C_2  and  C_4
REMARK    4  A    between atoms: C_2  and  C_5
REMARK    5  A    between atoms: C_5  and  O_7
REMARK    6  A    between atoms: O_7  and  C_8
REMARK    7  A    between atoms: C_8  and  O_9
REMARK    8  A    between atoms: O_9  and  C_10
REMARK    9  A    between atoms: C_10  and  N_12
REMARK   10  A    between atoms: N_14  and  C_15
REMARK   11  A    between atoms: C_15  and  C_16
REMARK   12  A    between atoms: C_23  and  O_25
REMARK   13  A    between atoms: O_25  and  C_26
REMARK   14  A    between atoms: C_26  and  O_27
REMARK   15  A    between atoms: O_27  and  C_28
REMARK   16  A    between atoms: C_28  and  C_30
REMARK   17  A    between atoms: C_30  and  C_31
REMARK   18  A    between atoms: C_30  and  C_32
REMARK   19  A    between atoms: C_30  and  C_33
REMARK                            x       y       z     vdW  Elec       q    Type
REMARK                         _______ _______ _______ _____ _____    ______ ____
ROOT
ATOM      1  N   UNL     1       4.742   6.202  18.772  0.00  0.00    +0.000 NA
ATOM      2  C   UNL     1       3.634   5.742  18.253  0.00  0.00    +0.000 C 
ATOM      3  N   UNL     1       2.543   6.562  18.124  0.00  0.00    +0.000 N 
ATOM      4  N   UNL     1       3.474   4.418  17.854  0.00  0.00    +0.000 N 
ATOM      5  C   UNL     1       2.353   3.852  17.276  0.00  0.00    +0.000 C 
ATOM      6  O   UNL     1       1.295   4.448  17.077  0.00  0.00    +0.000 OA
ATOM      7  H   UNL     1       1.668   6.109  17.867  0.00  0.00    +0.000 HD
ATOM      8  H   UNL     1       4.283   3.813  17.915  0.00  0.00    +0.000 HD
ENDROOT
BRANCH   1   9
ATOM      9  C   UNL     1       5.837   5.416  18.960  0.00  0.00    +0.000 C 
ATOM     10  O   UNL     1       5.946   4.539  19.820  0.00  0.00    +0.000 OA
BRANCH   9  11
ATOM     11  O   UNL     1       6.806   5.727  18.058  0.00  0.00    +0.000 OA
BRANCH  11  12
ATOM     12  C   UNL     1       7.714   4.669  17.729  0.00  0.00    +0.000 C 
BRANCH  12  13
ATOM     13  O   UNL     1       7.740   4.362  16.321  0.00  0.00    +0.000 OA
BRANCH  13  14
ATOM     14  C   UNL     1       6.535   4.015  15.791  0.00  0.00    +0.000 C 
ATOM     15  O   UNL     1       5.802   3.154  16.265  0.00  0.00    +0.000 OA
BRANCH  14  17
ATOM     16  C   UNL     1       5.350   6.050  14.902  0.00  0.00    +0.000 C 
ATOM     17  C   UNL     1       6.193   4.816  14.522  0.00  0.00    +0.000 C 
ATOM     18  C   UNL     1       5.370   3.960  13.549  0.00  0.00    +0.000 C 
ATOM     19  C   UNL     1       7.474   5.306  13.836  0.00  0.00    +0.000 C 
ENDBRANCH  14  17
ENDBRANCH  13  14
ENDBRANCH  12  13
ENDBRANCH  11  12
ENDBRANCH   9  11
ENDBRANCH   1   9
BRANCH   3  20
ATOM     20  C   UNL     1       2.576   7.990  17.871  0.00  0.00    +0.000 C 
BRANCH  20  21
ATOM     21  C   UNL     1       1.615   8.768  18.756  0.00  0.00    +0.000 A 
ATOM     22  C   UNL     1       1.450   8.477  20.122  0.00  0.00    +0.000 A 
ATOM     23  C   UNL     1       0.540   9.199  20.907  0.00  0.00    +0.000 A 
ATOM     24  C   UNL     1      -0.196  10.241  20.345  0.00  0.00    +0.000 A 
ATOM     25  C   UNL     1      -0.008  10.577  19.008  0.00  0.00    +0.000 A 
ATOM     26  C   UNL     1       0.891   9.849  18.223  0.00  0.00    +0.000 A 
ENDBRANCH  20  21
ENDBRANCH   3  20
BRANCH   5  27
ATOM     27  O   UNL     1       2.549   2.540  16.978  0.00  0.00    +0.000 OA
BRANCH  27  28
ATOM     28  C   UNL     1       3.182   1.780  18.021  0.00  0.00    +0.000 C 
BRANCH  28  29
ATOM     29  O   UNL     1       2.366   1.658  19.199  0.00  0.00    +0.000 OA
BRANCH  29  30
ATOM     30  C   UNL     1       2.834   2.326  20.285  0.00  0.00    +0.000 C 
ATOM     31  O   UNL     1       3.991   2.269  20.678  0.00  0.00    +0.000 OA
BRANCH  30  32
ATOM     32  C   UNL     1       1.746   3.173  20.971  0.00  0.00    +0.000 C 
ATOM     33  C   UNL     1       0.508   3.282  20.071  0.00  0.00    +0.000 C 
ATOM     34  C   UNL     1       1.348   2.505  22.301  0.00  0.00    +0.000 C 
ATOM     35  C   UNL     1       2.272   4.580  21.279  0.00  0.00    +0.000 C 
ENDBRANCH  30  32
ENDBRANCH  29  30
ENDBRANCH  28  29
ENDBRANCH  27  28
ENDBRANCH   5  27
TORSDOF 13
ENDMDL
MODEL 2
REMARK VINA RESULT:      -7.1      1.132      1.830
REMARK  Name = 
REMARK  19 active torsions:
REMARK  status: ('A' for Active; 'I' for Inactive)
REMARK    1  A    between atoms: C_1  and  C_2
REMARK    2  A    between atoms: C_2  and  C_3
REMARK    3  A    between atoms: C_2  and  C_4
REMARK    4  A    between atoms: C_2  and  C_5
REMARK    5  A    between atoms: C_5  and  O_7
REMARK    6  A    between atoms: O_7  and  C_8
REMARK    7  A    between atoms: C_8  and  O_9
REMARK    8  A    between atoms: O_9  and  C_10
REMARK    9  A    between atoms: C_10  and  N_12
REMARK   10  A    between atoms: N_14  and  C_15
REMARK   11  A    between atoms: C_15  and  C_16
REMARK   12  A    between atoms: C_23  and  O_25
REMARK   13  A    between atoms: O_25  and  C_26
REMARK   14  A    between atoms: C_26  and  O_27
REMARK   15  A    between atoms: O_27  and  C_28
REMARK   16  A    between atoms: C_28  and  C_30
REMARK   17  A    between atoms: C_30  and  C_31
REMARK   18  A    between atoms: C_30  and  C_32
REMARK   19  A    between atoms: C_30  and  C_33
REMARK                            x       y       z     vdW  Elec       q    Type
REMARK                         _______ _______ _______ _____ _____    ______ ____
ROOT
ATOM      1  N   UNL     1       5.127   6.753  17.693  0.00  0.00    +0.000 NA
ATOM      2  C   UNL     1       3.946   6.194  17.651  0.00  0.00    +0.000 C 
ATOM      3  N   UNL     1       2.832   6.914  17.997  0.00  0.00    +0.000 N 
ATOM      4  N   UNL     1       3.749   4.859  17.310  0.00  0.00    +0.000 N 
ATOM      5  C   UNL     1       2.541   4.193  17.216  0.00  0.00    +0.000 C 
ATOM      6  O   UNL     1       1.447   4.692  17.478  0.00  0.00    +0.000 OA
ATOM      7  H   UNL     1       1.969   6.384  18.102  0.00  0.00    +0.000 HD
ATOM      8  H   UNL     1       4.561   4.328  17.021  0.00  0.00    +0.000 HD
ENDROOT
BRANCH   1   9
ATOM      9  C   UNL     1       6.265   6.068  17.400  0.00  0.00    +0.000 C 
ATOM     10  O   UNL     1       6.960   5.457  18.215  0.00  0.00    +0.000 OA
BRANCH   9  11
ATOM     11  O   UNL     1       6.537   6.146  16.070  0.00  0.00    +0.000 OA
BRANCH  11  12
ATOM     12  C   UNL     1       7.285   5.052  15.523  0.00  0.00    +0.000 C 
BRANCH  12  13
ATOM     13  O   UNL     1       7.045   4.851  14.116  0.00  0.00    +0.000 OA
BRANCH  13  14
ATOM     14  C   UNL     1       6.172   3.847  13.825  0.00  0.00    +0.000 C 
ATOM     15  O   UNL     1       5.522   3.241  14.669  0.00  0.00    +0.000 OA
BRANCH  14  17
ATOM     16  C   UNL     1       6.495   2.079  12.063  0.00  0.00    +0.000 C 
ATOM     17  C   UNL     1       6.095   3.547  12.317  0.00  0.00    +0.000 C 
ATOM     18  C   UNL     1       7.066   4.445  11.538  0.00  0.00    +0.000 C 
ATOM     19  C   UNL     1       4.665   3.747  11.803  0.00  0.00    +0.000 C 
ENDBRANCH  14  17
ENDBRANCH  13  14
ENDBRANCH  12  13
ENDBRANCH  11  12
ENDBRANCH   9  11
ENDBRANCH   1   9
BRANCH   3  20
ATOM     20  C   UNL     1       2.641   8.338  17.796  0.00  0.00    +0.000 C 
BRANCH  20  21
ATOM     21  C   UNL     1       1.602   8.932  18.734  0.00  0.00    +0.000 A 
ATOM     22  C   UNL     1       0.631   9.849  18.296  0.00  0.00    +0.000 A 
ATOM     23  C   UNL     1      -0.300  10.395  19.191  0.00  0.00    +0.000 A 
ATOM     24  C   UNL     1      -0.294  10.008  20.529  0.00  0.00    +0.000 A 
ATOM     25  C   UNL     1       0.625   9.061  20.971  0.00  0.00    +0.000 A 
ATOM     26  C   UNL     1       1.562   8.527  20.080  0.00  0.00    +0.000 A 
ENDBRANCH  20  21
ENDBRANCH   3  20
BRANCH   5  27
ATOM     27  O   UNL     1       2.708   2.902  16.824  0.00  0.00    +0.000 OA
BRANCH  27  28
ATOM     28  C   UNL     1       3.426   2.082  17.762  0.00  0.00    +0.000 C 
BRANCH  28  29
ATOM     29  O   UNL     1       2.654   1.765  18.934  0.00  0.00    +0.000 OA
BRANCH  29  30
ATOM     30  C   UNL     1       3.067   2.383  20.070  0.00  0.00    +0.000 C 
ATOM     31  O   UNL     1       4.212   2.340  20.497  0.00  0.00    +0.000 OA
BRANCH  30  32
ATOM     32  C   UNL     1       1.930   3.155  20.768  0.00  0.00    +0.000 C 
ATOM     33  C   UNL     1       0.618   2.993  19.989  0.00  0.00    +0.000 C 
ATOM     34  C   UNL     1       1.744   2.602  22.194  0.00  0.00    +0.000 C 
ATOM     35  C   UNL     1       2.275   4.645  20.871  0.00  0.00    +0.000 C 
ENDBRANCH  30  32
ENDBRANCH  29  30
ENDBRANCH  28  29
ENDBRANCH  27  28
ENDBRANCH   5  27
TORSDOF 13
ENDMDL
MODEL 3
REMARK VINA RESULT:      -7.0      1.175      1.722
REMARK  Name = 
REMARK  19 active torsions:
REMARK  status: ('A' for Active; 'I' for Inactive)
REMARK    1  A    between atoms: C_1  and  C_2
REMARK    2  A    between atoms: C_2  and  C_3
REMARK    3  A    between atoms: C_2  and  C_4
REMARK    4  A    between atoms: C_2  and  C_5
REMARK    5  A    between atoms: C_5  and  O_7
REMARK    6  A    between atoms: O_7  and  C_8
REMARK    7  A    between atoms: C_8  and  O_9
REMARK    8  A    between atoms: O_9  and  C_10
REMARK    9  A    between atoms: C_10  and  N_12
REMARK   10  A    between atoms: N_14  and  C_15
REMARK   11  A    between atoms: C_15  and  C_16
REMARK   12  A    between atoms: C_23  and  O_25
REMARK   13  A    between atoms: O_25  and  C_26
REMARK   14  A    between atoms: C_26  and  O_27
REMARK   15  A    between atoms: O_27  and  C_28
REMARK   16  A    between atoms: C_28  and  C_30
REMARK   17  A    between atoms: C_30  and  C_31
REMARK   18  A    between atoms: C_30  and  C_32
REMARK   19  A    between atoms: C_30  and  C_33
REMARK                            x       y       z     vdW  Elec       q    Type
REMARK                         _______ _______ _______ _____ _____    ______ ____
ROOT
ATOM      1  N   UNL     1       5.118   6.773  17.637  0.00  0.00    +0.000 NA
ATOM      2  C   UNL     1       3.933   6.222  17.637  0.00  0.00    +0.000 C 
ATOM      3  N   UNL     1       2.837   6.949  18.025  0.00  0.00    +0.000 N 
ATOM      4  N   UNL     1       3.715   4.889  17.303  0.00  0.00    +0.000 N 
ATOM      5  C   UNL     1       2.500   4.231  17.252  0.00  0.00    +0.000 C 
ATOM      6  O   UNL     1       1.420   4.737  17.554  0.00  0.00    +0.000 OA
ATOM      7  H   UNL     1       1.975   6.424  18.160  0.00  0.00    +0.000 HD
ATOM      8  H   UNL     1       4.512   4.353  16.984  0.00  0.00    +0.000 HD
ENDROOT
BRANCH   1   9
ATOM      9  C   UNL     1       6.241   6.081  17.301  0.00  0.00    +0.000 C 
ATOM     10  O   UNL     1       7.009   5.539  18.099  0.00  0.00    +0.000 OA
BRANCH   9  11
ATOM     11  O   UNL     1       6.403   6.064  15.952  0.00  0.00    +0.000 OA
BRANCH  11  12
ATOM     12  C   UNL     1       7.223   5.008  15.436  0.00  0.00    +0.000 C 
BRANCH  12  13
ATOM     13  O   UNL     1       7.026   4.774  14.028  0.00  0.00    +0.000 OA
BRANCH  13  14
ATOM     14  C   UNL     1       6.142   3.779  13.734  0.00  0.00    +0.000 C 
ATOM     15  O   UNL     1       5.488   3.176  14.577  0.00  0.00    +0.000 OA
BRANCH  14  17
ATOM     16  C   UNL     1       7.038   4.408  11.467  0.00  0.00    +0.000 C 
ATOM     17  C   UNL     1       6.061   3.485  12.226  0.00  0.00    +0.000 C 
ATOM     18  C   UNL     1       4.645   3.757  11.699  0.00  0.00    +0.000 C 
ATOM     19  C   UNL     1       6.459   2.033  11.941  0.00  0.00    +0.000 C 
ENDBRANCH  14  17
ENDBRANCH  13  14
ENDBRANCH  12  13
ENDBRANCH  11  12
ENDBRANCH   9  11
ENDBRANCH   1   9
BRANCH   3  20
ATOM     20  C   UNL     1       2.648   8.374  17.833  0.00  0.00    +0.000 C 
BRANCH  20  21
ATOM     21  C   UNL     1       1.563   8.951  18.728  0.00  0.00    +0.000 A 
ATOM     22  C   UNL     1       1.446   8.604  20.085  0.00  0.00    +0.000 A 
ATOM     23  C   UNL     1       0.421   9.138  20.879  0.00  0.00    +0.000 A 
ATOM     24  C   UNL     1      -0.483  10.048  20.335  0.00  0.00    +0.000 A 
ATOM     25  C   UNL     1      -0.352  10.444  19.008  0.00  0.00    +0.000 A 
ATOM     26  C   UNL     1       0.664   9.902  18.213  0.00  0.00    +0.000 A 
ENDBRANCH  20  21
ENDBRANCH   3  20
BRANCH   5  27
ATOM     27  O   UNL     1       2.644   2.939  16.853  0.00  0.00    +0.000 OA
BRANCH  27  28
ATOM     28  C   UNL     1       3.417   2.121  17.748  0.00  0.00    +0.000 C 
BRANCH  28  29
ATOM     29  O   UNL     1       2.697   1.759  18.939  0.00  0.00    +0.000 OA
BRANCH  29  30
ATOM     30  C   UNL     1       3.107   2.396  20.066  0.00  0.00    +0.000 C 
ATOM     31  O   UNL     1       4.262   2.404  20.467  0.00  0.00    +0.000 OA
BRANCH  30  32
ATOM     32  C   UNL     1       1.954   3.118  20.788  0.00  0.00    +0.000 C 
ATOM     33  C   UNL     1       2.251   4.618  20.904  0.00  0.00    +0.000 C 
ATOM     34  C   UNL     1       0.653   2.920  19.988  0.00  0.00    +0.000 C 
ATOM     35  C   UNL     1       1.748   2.534  22.192  0.00  0.00    +0.000 C 
ENDBRANCH  30  32
ENDBRANCH  29  30
ENDBRANCH  28  29
ENDBRANCH  27  28
ENDBRANCH   5  27
TORSDOF 13
ENDMDL
MODEL 4
REMARK VINA RESULT:      -6.9      4.152      7.057
REMARK  Name = 
REMARK  19 active torsions:
REMARK  status: ('A' for Active; 'I' for Inactive)
REMARK    1  A    between atoms: C_1  and  C_2
REMARK    2  A    between atoms: C_2  and  C_3
REMARK    3  A    between atoms: C_2  and  C_4
REMARK    4  A    between atoms: C_2  and  C_5
REMARK    5  A    between atoms: C_5  and  O_7
REMARK    6  A    between atoms: O_7  and  C_8
REMARK    7  A    between atoms: C_8  and  O_9
REMARK    8  A    between atoms: O_9  and  C_10
REMARK    9  A    between atoms: C_10  and  N_12
REMARK   10  A    between atoms: N_14  and  C_15
REMARK   11  A    between atoms: C_15  and  C_16
REMARK   12  A    between atoms: C_23  and  O_25
REMARK   13  A    between atoms: O_25  and  C_26
REMARK   14  A    between atoms: C_26  and  O_27
REMARK   15  A    between atoms: O_27  and  C_28
REMARK   16  A    between atoms: C_28  and  C_30
REMARK   17  A    between atoms: C_30  and  C_31
REMARK   18  A    between atoms: C_30  and  C_32
REMARK   19  A    between atoms: C_30  and  C_33
REMARK                            x       y       z     vdW  Elec       q    Type
REMARK                         _______ _______ _______ _____ _____    ______ ____
ROOT
ATOM      1  N   UNL     1       7.632   6.839  16.485  0.00  0.00    +0.000 NA
ATOM      2  C   UNL     1       6.550   6.107  16.442  0.00  0.00    +0.000 C 
ATOM      3  N   UNL     1       6.235   5.412  15.303  0.00  0.00    +0.000 N 
ATOM      4  N   UNL     1       5.647   6.023  17.497  0.00  0.00    +0.000 N 
ATOM      5  C   UNL     1       4.496   5.259  17.551  0.00  0.00    +0.000 C 
ATOM      6  O   UNL     1       4.074   4.569  16.623  0.00  0.00    +0.000 OA
ATOM      7  H   UNL     1       5.306   4.995  15.273  0.00  0.00    +0.000 HD
ATOM      8  H   UNL     1       5.887   6.506  18.355  0.00  0.00    +0.000 HD
ENDROOT
BRANCH   1   9
ATOM      9  C   UNL     1       7.965   7.579  17.577  0.00  0.00    +0.000 C 
ATOM     10  O   UNL     1       8.226   7.126  18.693  0.00  0.00    +0.000 OA
BRANCH   9  11
ATOM     11  O   UNL     1       7.975   8.903  17.268  0.00  0.00    +0.000 OA
BRANCH  11  12
ATOM     12  C   UNL     1       8.255   9.794  18.355  0.00  0.00    +0.000 C 
BRANCH  12  13
ATOM     13  O   UNL     1       9.523  10.465  18.225  0.00  0.00    +0.000 OA
BRANCH  13  14
ATOM     14  C   UNL     1       9.963  11.077  19.359  0.00  0.00    +0.000 C 
ATOM     15  O   UNL     1       9.566  10.797  20.485  0.00  0.00    +0.000 OA
BRANCH  14  17
ATOM     16  C   UNL     1      12.333  11.811  19.781  0.00  0.00    +0.000 C 
ATOM     17  C   UNL     1      11.009  12.170  19.076  0.00  0.00    +0.000 C 
ATOM     18  C   UNL     1      10.534  13.525  19.618  0.00  0.00    +0.000 C 
ATOM     19  C   UNL     1      11.283  12.271  17.571  0.00  0.00    +0.000 C 
ENDBRANCH  14  17
ENDBRANCH  13  14
ENDBRANCH  12  13
ENDBRANCH  11  12
ENDBRANCH   9  11
ENDBRANCH   1   9
BRANCH   3  20
ATOM     20  C   UNL     1       7.181   4.835  14.366  0.00  0.00    +0.000 C 
BRANCH  20  21
ATOM     21  C   UNL     1       6.508   4.013  13.279  0.00  0.00    +0.000 A 
ATOM     22  C   UNL     1       7.235   3.190  12.401  0.00  0.00    +0.000 A 
ATOM     23  C   UNL     1       6.586   2.461  11.395  0.00  0.00    +0.000 A 
ATOM     24  C   UNL     1       5.199   2.520  11.271  0.00  0.00    +0.000 A 
ATOM     25  C   UNL     1       4.458   3.288  12.164  0.00  0.00    +0.000 A 
ATOM     26  C   UNL     1       5.107   4.025  13.159  0.00  0.00    +0.000 A 
ENDBRANCH  20  21
ENDBRANCH   3  20
BRANCH   5  27
ATOM     27  O   UNL     1       3.863   5.385  18.747  0.00  0.00    +0.000 OA
BRANCH  27  28
ATOM     28  C   UNL     1       2.548   5.961  18.669  0.00  0.00    +0.000 C 
BRANCH  28  29
ATOM     29  O   UNL     1       1.536   5.128  19.260  0.00  0.00    +0.000 OA
BRANCH  29  30
ATOM     30  C   UNL     1       1.900   4.533  20.426  0.00  0.00    +0.000 C 
ATOM     31  O   UNL     1       2.234   5.143  21.431  0.00  0.00    +0.000 OA
BRANCH  30  32
ATOM     32  C   UNL     1       1.842   2.995  20.346  0.00  0.00    +0.000 C 
ATOM     33  C   UNL     1       1.395   2.406  21.689  0.00  0.00    +0.000 C 
ATOM     34  C   UNL     1       0.839   2.583  19.252  0.00  0.00    +0.000 C 
ATOM     35  C   UNL     1       3.217   2.424  19.976  0.00  0.00    +0.000 C 
ENDBRANCH  30  32
ENDBRANCH  29  30
ENDBRANCH  28  29
ENDBRANCH  27  28
ENDBRANCH   5  27
TORSDOF 13
ENDMDL
MODEL 5
REMARK VINA RESULT:      -6.8      4.098      8.579
REMARK  Name = 
REMARK  19 active torsions:
REMARK  status: ('A' for Active; 'I' for Inactive)
REMARK    1  A    between atoms: C_1  and  C_2
REMARK    2  A    between atoms: C_2  and  C_3
REMARK    3  A    between atoms: C_2  and  C_4
REMARK    4  A    between atoms: C_2  and  C_5
REMARK    5  A    between atoms: C_5  and  O_7
REMARK    6  A    between atoms: O_7  and  C_8
REMARK    7  A    between atoms: C_8  and  O_9
REMARK    8  A    between atoms: O_9  and  C_10
REMARK    9  A    between atoms: C_10  and  N_12
REMARK   10  A    between atoms: N_14  and  C_15
REMARK   11  A    between atoms: C_15  and  C_16
REMARK   12  A    between atoms: C_23  and  O_25
REMARK   13  A    between atoms: O_25  and  C_26
REMARK   14  A    between atoms: C_26  and  O_27
REMARK   15  A    between atoms: O_27  and  C_28
REMARK   16  A    between atoms: C_28  and  C_30
REMARK   17  A    between atoms: C_30  and  C_31
REMARK   18  A    between atoms: C_30  and  C_32
REMARK   19  A    between atoms: C_30  and  C_33
REMARK                            x       y       z     vdW  Elec       q    Type
REMARK                         _______ _______ _______ _____ _____    ______ ____
ROOT
ATOM      1  N   UNL     1       4.192   5.960  17.493  0.00  0.00    +0.000 NA
ATOM      2  C   UNL     1       5.446   6.249  17.267  0.00  0.00    +0.000 C 
ATOM      3  N   UNL     1       6.311   5.274  16.840  0.00  0.00    +0.000 N 
ATOM      4  N   UNL     1       5.985   7.514  17.483  0.00  0.00    +0.000 N 
ATOM      5  C   UNL     1       7.288   7.916  17.249  0.00  0.00    +0.000 C 
ATOM      6  O   UNL     1       8.186   7.173  16.855  0.00  0.00    +0.000 OA
ATOM      7  H   UNL     1       7.299   5.519  16.838  0.00  0.00    +0.000 HD
ATOM      8  H   UNL     1       5.349   8.249  17.767  0.00  0.00    +0.000 HD
ENDROOT
BRANCH   1   9
ATOM      9  C   UNL     1       3.306   6.883  17.958  0.00  0.00    +0.000 C 
ATOM     10  O   UNL     1       3.204   8.042  17.550  0.00  0.00    +0.000 OA
BRANCH   9  11
ATOM     11  O   UNL     1       2.537   6.349  18.943  0.00  0.00    +0.000 OA
BRANCH  11  12
ATOM     12  C   UNL     1       3.247   5.693  20.001  0.00  0.00    +0.000 C 
BRANCH  12  13
ATOM     13  O   UNL     1       2.865   4.314  20.169  0.00  0.00    +0.000 OA
BRANCH  13  14
ATOM     14  C   UNL     1       3.666   3.418  19.528  0.00  0.00    +0.000 C 
ATOM     15  O   UNL     1       4.888   3.406  19.621  0.00  0.00    +0.000 OA
BRANCH  14  17
ATOM     16  C   UNL     1       2.492   3.097  17.324  0.00  0.00    +0.000 C 
ATOM     17  C   UNL     1       2.870   2.426  18.661  0.00  0.00    +0.000 C 
ATOM     18  C   UNL     1       1.572   2.012  19.368  0.00  0.00    +0.000 C 
ATOM     19  C   UNL     1       3.718   1.187  18.350  0.00  0.00    +0.000 C 
ENDBRANCH  14  17
ENDBRANCH  13  14
ENDBRANCH  12  13
ENDBRANCH  11  12
ENDBRANCH   9  11
ENDBRANCH   1   9
BRANCH   3  20
ATOM     20  C   UNL     1       5.971   4.144  15.996  0.00  0.00    +0.000 C 
BRANCH  20  21
ATOM     21  C   UNL     1       6.466   4.306  14.567  0.00  0.00    +0.000 A 
ATOM     22  C   UNL     1       7.528   5.164  14.233  0.00  0.00    +0.000 A 
ATOM     23  C   UNL     1       7.947   5.308  12.903  0.00  0.00    +0.000 A 
ATOM     24  C   UNL     1       7.330   4.573  11.892  0.00  0.00    +0.000 A 
ATOM     25  C   UNL     1       6.312   3.679  12.210  0.00  0.00    +0.000 A 
ATOM     26  C   UNL     1       5.887   3.546  13.536  0.00  0.00    +0.000 A 
ENDBRANCH  20  21
ENDBRANCH   3  20
BRANCH   5  27
ATOM     27  O   UNL     1       7.467   9.232  17.538  0.00  0.00    +0.000 OA
BRANCH  27  28
ATOM     28  C   UNL     1       8.549   9.502  18.445  0.00  0.00    +0.000 C 
BRANCH  28  29
ATOM     29  O   UNL     1       9.575  10.327  17.865  0.00  0.00    +0.000 OA
BRANCH  29  30
ATOM     30  C   UNL     1       9.328  11.661  17.919  0.00  0.00    +0.000 C 
ATOM     31  O   UNL     1       8.230  12.163  17.727  0.00  0.00    +0.000 OA
BRANCH  30  32
ATOM     32  C   UNL     1      10.589  12.481  18.254  0.00  0.00    +0.000 C 
ATOM     33  C   UNL     1      10.290  13.487  19.373  0.00  0.00    +0.000 C 
ATOM     34  C   UNL     1      11.705  11.525  18.716  0.00  0.00    +0.000 C 
ATOM     35  C   UNL     1      11.085  13.236  17.015  0.00  0.00    +0.000 C 
ENDBRANCH  30  32
ENDBRANCH  29  30
ENDBRANCH  28  29
ENDBRANCH  27  28
ENDBRANCH   5  27
TORSDOF 13
ENDMDL
MODEL 6
REMARK VINA RESULT:      -6.8      4.159      7.071
REMARK  Name = 
REMARK  19 active torsions:
REMARK  status: ('A' for Active; 'I' for Inactive)
REMARK    1  A    between atoms: C_1  and  C_2
REMARK    2  A    between atoms: C_2  and  C_3
REMARK    3  A    between atoms: C_2  and  C_4
REMARK    4  A    between atoms: C_2  and  C_5
REMARK    5  A    between atoms: C_5  and  O_7
REMARK    6  A    between atoms: O_7  and  C_8
REMARK    7  A    between atoms: C_8  and  O_9
REMARK    8  A    between atoms: O_9  and  C_10
REMARK    9  A    between atoms: C_10  and  N_12
REMARK   10  A    between atoms: N_14  and  C_15
REMARK   11  A    between atoms: C_15  and  C_16
REMARK   12  A    between atoms: C_23  and  O_25
REMARK   13  A    between atoms: O_25  and  C_26
REMARK   14  A    between atoms: C_26  and  O_27
REMARK   15  A    between atoms: O_27  and  C_28
REMARK   16  A    between atoms: C_28  and  C_30
REMARK   17  A    between atoms: C_30  and  C_31
REMARK   18  A    between atoms: C_30  and  C_32
REMARK   19  A    between atoms: C_30  and  C_33
REMARK                            x       y       z     vdW  Elec       q    Type
REMARK                         _______ _______ _______ _____ _____    ______ ____
ROOT
ATOM      1  N   UNL     1       7.494   6.702  16.461  0.00  0.00    +0.000 NA
ATOM      2  C   UNL     1       6.653   5.702  16.454  0.00  0.00    +0.000 C 
ATOM      3  N   UNL     1       6.271   5.134  15.266  0.00  0.00    +0.000 N 
ATOM      4  N   UNL     1       6.068   5.193  17.610  0.00  0.00    +0.000 N 
ATOM      5  C   UNL     1       5.191   4.127  17.700  0.00  0.00    +0.000 C 
ATOM      6  O   UNL     1       4.757   3.499  16.735  0.00  0.00    +0.000 OA
ATOM      7  H   UNL     1       5.497   4.474  15.312  0.00  0.00    +0.000 HD
ATOM      8  H   UNL     1       6.368   5.583  18.494  0.00  0.00    +0.000 HD
ENDROOT
BRANCH   1   9
ATOM      9  C   UNL     1       7.871   7.326  17.611  0.00  0.00    +0.000 C 
ATOM     10  O   UNL     1       8.075   6.768  18.691  0.00  0.00    +0.000 OA
BRANCH   9  11
ATOM     11  O   UNL     1       7.996   8.664  17.406  0.00  0.00    +0.000 OA
BRANCH  11  12
ATOM     12  C   UNL     1       8.604   9.403  18.472  0.00  0.00    +0.000 C 
BRANCH  12  13
ATOM     13  O   UNL     1       8.949  10.752  18.102  0.00  0.00    +0.000 OA
BRANCH  13  14
ATOM     14  C   UNL     1       9.455  11.510  19.114  0.00  0.00    +0.000 C 
ATOM     15  O   UNL     1       9.150  11.366  20.293  0.00  0.00    +0.000 OA
BRANCH  14  17
ATOM     16  C   UNL     1       9.681  13.672  17.846  0.00  0.00    +0.000 C 
ATOM     17  C   UNL     1      10.446  12.578  18.618  0.00  0.00    +0.000 C 
ATOM     18  C   UNL     1      11.476  11.957  17.666  0.00  0.00    +0.000 C 
ATOM     19  C   UNL     1      11.157  13.240  19.804  0.00  0.00    +0.000 C 
ENDBRANCH  14  17
ENDBRANCH  13  14
ENDBRANCH  12  13
ENDBRANCH  11  12
ENDBRANCH   9  11
ENDBRANCH   1   9
BRANCH   3  20
ATOM     20  C   UNL     1       7.091   5.014  14.076  0.00  0.00    +0.000 C 
BRANCH  20  21
ATOM     21  C   UNL     1       6.508   4.053  13.052  0.00  0.00    +0.000 A 
ATOM     22  C   UNL     1       7.314   3.199  12.279  0.00  0.00    +0.000 A 
ATOM     23  C   UNL     1       6.747   2.340  11.328  0.00  0.00    +0.000 A 
ATOM     24  C   UNL     1       5.364   2.298  11.158  0.00  0.00    +0.000 A 
ATOM     25  C   UNL     1       4.547   3.097  11.952  0.00  0.00    +0.000 A 
ATOM     26  C   UNL     1       5.114   3.964  12.891  0.00  0.00    +0.000 A 
ENDBRANCH  20  21
ENDBRANCH   3  20
BRANCH   5  27
ATOM     27  O   UNL     1       4.840   3.873  18.988  0.00  0.00    +0.000 OA
BRANCH  27  28
ATOM     28  C   UNL     1       4.437   5.033  19.737  0.00  0.00    +0.000 C 
BRANCH  28  29
ATOM     29  O   UNL     1       3.101   4.926  20.260  0.00  0.00    +0.000 OA
BRANCH  29  30
ATOM     30  C   UNL     1       2.189   4.423  19.388  0.00  0.00    +0.000 C 
ATOM     31  O   UNL     1       1.841   4.985  18.360  0.00  0.00    +0.000 OA
BRANCH  30  32
ATOM     32  C   UNL     1       1.639   3.055  19.835  0.00  0.00    +0.000 C 
ATOM     33  C   UNL     1       2.427   1.919  19.170  0.00  0.00    +0.000 C 
ATOM     34  C   UNL     1       1.769   2.933  21.365  0.00  0.00    +0.000 C 
ATOM     35  C   UNL     1       0.156   2.925  19.467  0.00  0.00    +0.000 C 
ENDBRANCH  30  32
ENDBRANCH  29  30
ENDBRANCH  28  29
ENDBRANCH  27  28
ENDBRANCH   5  27
TORSDOF 13
ENDMDL
MODEL 7
REMARK VINA RESULT:      -6.8      4.152      7.071
REMARK  Name = 
REMARK  19 active torsions:
REMARK  status: ('A' for Active; 'I' for Inactive)
REMARK    1  A    between atoms: C_1  and  C_2
REMARK    2  A    between atoms: C_2  and  C_3
REMARK    3  A    between atoms: C_2  and  C_4
REMARK    4  A    between atoms: C_2  and  C_5
REMARK    5  A    between atoms: C_5  and  O_7
REMARK    6  A    between atoms: O_7  and  C_8
REMARK    7  A    between atoms: C_8  and  O_9
REMARK    8  A    between atoms: O_9  and  C_10
REMARK    9  A    between atoms: C_10  and  N_12
REMARK   10  A    between atoms: N_14  and  C_15
REMARK   11  A    between atoms: C_15  and  C_16
REMARK   12  A    between atoms: C_23  and  O_25
REMARK   13  A    between atoms: O_25  and  C_26
REMARK   14  A    between atoms: C_26  and  O_27
REMARK   15  A    between atoms: O_27  and  C_28
REMARK   16  A    between atoms: C_28  and  C_30
REMARK   17  A    between atoms: C_30  and  C_31
REMARK   18  A    between atoms: C_30  and  C_32
REMARK   19  A    between atoms: C_30  and  C_33
REMARK                            x       y       z     vdW  Elec       q    Type
REMARK                         _______ _______ _______ _____ _____    ______ ____
ROOT
ATOM      1  N   UNL     1       7.642   7.144  16.797  0.00  0.00    +0.000 NA
ATOM      2  C   UNL     1       6.871   6.090  16.842  0.00  0.00    +0.000 C 
ATOM      3  N   UNL     1       6.474   5.478  15.682  0.00  0.00    +0.000 N 
ATOM      4  N   UNL     1       6.375   5.563  18.031  0.00  0.00    +0.000 N 
ATOM      5  C   UNL     1       5.577   4.443  18.177  0.00  0.00    +0.000 C 
ATOM      6  O   UNL     1       5.142   3.770  17.242  0.00  0.00    +0.000 OA
ATOM      7  H   UNL     1       5.749   4.769  15.773  0.00  0.00    +0.000 HD
ATOM      8  H   UNL     1       6.688   5.987  18.895  0.00  0.00    +0.000 HD
ENDROOT
BRANCH   1   9
ATOM      9  C   UNL     1       8.028   7.811  17.918  0.00  0.00    +0.000 C 
ATOM     10  O   UNL     1       8.460   7.286  18.947  0.00  0.00    +0.000 OA
BRANCH   9  11
ATOM     11  O   UNL     1       7.873   9.152  17.751  0.00  0.00    +0.000 OA
BRANCH  11  12
ATOM     12  C   UNL     1       9.033   9.950  18.019  0.00  0.00    +0.000 C 
BRANCH  12  13
ATOM     13  O   UNL     1       8.732  11.162  18.737  0.00  0.00    +0.000 OA
BRANCH  13  14
ATOM     14  C   UNL     1       9.463  11.350  19.871  0.00  0.00    +0.000 C 
ATOM     15  O   UNL     1       9.308  10.699  20.899  0.00  0.00    +0.000 OA
BRANCH  14  17
ATOM     16  C   UNL     1      10.303  13.191  18.375  0.00  0.00    +0.000 C 
ATOM     17  C   UNL     1      10.502  12.476  19.727  0.00  0.00    +0.000 C 
ATOM     18  C   UNL     1      11.926  11.904  19.757  0.00  0.00    +0.000 C 
ATOM     19  C   UNL     1      10.327  13.511  20.844  0.00  0.00    +0.000 C 
ENDBRANCH  14  17
ENDBRANCH  13  14
ENDBRANCH  12  13
ENDBRANCH  11  12
ENDBRANCH   9  11
ENDBRANCH   1   9
BRANCH   3  20
ATOM     20  C   UNL     1       7.245   5.393  14.456  0.00  0.00    +0.000 C 
BRANCH  20  21
ATOM     21  C   UNL     1       6.634   4.441  13.440  0.00  0.00    +0.000 A 
ATOM     22  C   UNL     1       7.410   3.771  12.478  0.00  0.00    +0.000 A 
ATOM     23  C   UNL     1       6.813   2.916  11.540  0.00  0.00    +0.000 A 
ATOM     24  C   UNL     1       5.438   2.695  11.571  0.00  0.00    +0.000 A 
ATOM     25  C   UNL     1       4.661   3.308  12.549  0.00  0.00    +0.000 A 
ATOM     26  C   UNL     1       5.255   4.171  13.475  0.00  0.00    +0.000 A 
ENDBRANCH  20  21
ENDBRANCH   3  20
BRANCH   5  27
ATOM     27  O   UNL     1       5.303   4.187  19.483  0.00  0.00    +0.000 OA
BRANCH  27  28
ATOM     28  C   UNL     1       4.992   2.813  19.770  0.00  0.00    +0.000 C 
BRANCH  28  29
ATOM     29  O   UNL     1       3.627   2.622  20.184  0.00  0.00    +0.000 OA
BRANCH  29  30
ATOM     30  C   UNL     1       2.770   2.296  19.183  0.00  0.00    +0.000 C 
ATOM     31  O   UNL     1       2.958   1.382  18.391  0.00  0.00    +0.000 OA
BRANCH  30  32
ATOM     32  C   UNL     1       1.525   3.202  19.152  0.00  0.00    +0.000 C 
ATOM     33  C   UNL     1       1.705   4.323  18.121  0.00  0.00    +0.000 C 
ATOM     34  C   UNL     1       0.294   2.358  18.773  0.00  0.00    +0.000 C 
ATOM     35  C   UNL     1       1.276   3.821  20.533  0.00  0.00    +0.000 C 
ENDBRANCH  30  32
ENDBRANCH  29  30
ENDBRANCH  28  29
ENDBRANCH  27  28
ENDBRANCH   5  27
TORSDOF 13
ENDMDL
MODEL 8
REMARK VINA RESULT:      -6.8      4.069      7.061
REMARK  Name = 
REMARK  19 active torsions:
REMARK  status: ('A' for Active; 'I' for Inactive)
REMARK    1  A    between atoms: C_1  and  C_2
REMARK    2  A    between atoms: C_2  and  C_3
REMARK    3  A    between atoms: C_2  and  C_4
REMARK    4  A    between atoms: C_2  and  C_5
REMARK    5  A    between atoms: C_5  and  O_7
REMARK    6  A    between atoms: O_7  and  C_8
REMARK    7  A    between atoms: C_8  and  O_9
REMARK    8  A    between atoms: O_9  and  C_10
REMARK    9  A    between atoms: C_10  and  N_12
REMARK   10  A    between atoms: N_14  and  C_15
REMARK   11  A    between atoms: C_15  and  C_16
REMARK   12  A    between atoms: C_23  and  O_25
REMARK   13  A    between atoms: O_25  and  C_26
REMARK   14  A    between atoms: C_26  and  O_27
REMARK   15  A    between atoms: O_27  and  C_28
REMARK   16  A    between atoms: C_28  and  C_30
REMARK   17  A    between atoms: C_30  and  C_31
REMARK   18  A    between atoms: C_30  and  C_32
REMARK   19  A    between atoms: C_30  and  C_33
REMARK                            x       y       z     vdW  Elec       q    Type
REMARK                         _______ _______ _______ _____ _____    ______ ____
ROOT
ATOM      1  N   UNL     1       7.461   6.670  16.355  0.00  0.00    +0.000 NA
ATOM      2  C   UNL     1       6.636   5.657  16.400  0.00  0.00    +0.000 C 
ATOM      3  N   UNL     1       6.267   5.018  15.244  0.00  0.00    +0.000 N 
ATOM      4  N   UNL     1       6.055   5.202  17.580  0.00  0.00    +0.000 N 
ATOM      5  C   UNL     1       5.196   4.129  17.726  0.00  0.00    +0.000 C 
ATOM      6  O   UNL     1       4.775   3.441  16.796  0.00  0.00    +0.000 OA
ATOM      7  H   UNL     1       5.504   4.349  15.324  0.00  0.00    +0.000 HD
ATOM      8  H   UNL     1       6.345   5.646  18.443  0.00  0.00    +0.000 HD
ENDROOT
BRANCH   1   9
ATOM      9  C   UNL     1       7.822   7.362  17.469  0.00  0.00    +0.000 C 
ATOM     10  O   UNL     1       7.987   6.874  18.589  0.00  0.00    +0.000 OA
BRANCH   9  11
ATOM     11  O   UNL     1       7.983   8.681  17.179  0.00  0.00    +0.000 OA
BRANCH  11  12
ATOM     12  C   UNL     1       8.204   9.543  18.302  0.00  0.00    +0.000 C 
BRANCH  12  13
ATOM     13  O   UNL     1       9.525  10.117  18.323  0.00  0.00    +0.000 OA
BRANCH  13  14
ATOM     14  C   UNL     1       9.753  10.985  19.348  0.00  0.00    +0.000 C 
ATOM     15  O   UNL     1       9.397  10.786  20.504  0.00  0.00    +0.000 OA
BRANCH  14  17
ATOM     16  C   UNL     1      11.168  12.920  20.115  0.00  0.00    +0.000 C 
ATOM     17  C   UNL     1      10.499  12.253  18.895  0.00  0.00    +0.000 C 
ATOM     18  C   UNL     1       9.522  13.263  18.278  0.00  0.00    +0.000 C 
ATOM     19  C   UNL     1      11.596  11.897  17.885  0.00  0.00    +0.000 C 
ENDBRANCH  14  17
ENDBRANCH  13  14
ENDBRANCH  12  13
ENDBRANCH  11  12
ENDBRANCH   9  11
ENDBRANCH   1   9
BRANCH   3  20
ATOM     20  C   UNL     1       7.094   4.848  14.064  0.00  0.00    +0.000 C 
BRANCH  20  21
ATOM     21  C   UNL     1       6.462   3.930  13.029  0.00  0.00    +0.000 A 
ATOM     22  C   UNL     1       5.083   3.945  12.755  0.00  0.00    +0.000 A 
ATOM     23  C   UNL     1       4.528   3.071  11.810  0.00  0.00    +0.000 A 
ATOM     24  C   UNL     1       5.346   2.192  11.104  0.00  0.00    +0.000 A 
ATOM     25  C   UNL     1       6.720   2.200  11.323  0.00  0.00    +0.000 A 
ATOM     26  C   UNL     1       7.272   3.063  12.275  0.00  0.00    +0.000 A 
ENDBRANCH  20  21
ENDBRANCH   3  20
BRANCH   5  27
ATOM     27  O   UNL     1       4.843   3.940  19.025  0.00  0.00    +0.000 OA
BRANCH  27  28
ATOM     28  C   UNL     1       4.397   5.127  19.701  0.00  0.00    +0.000 C 
BRANCH  28  29
ATOM     29  O   UNL     1       3.080   4.991  20.262  0.00  0.00    +0.000 OA
BRANCH  29  30
ATOM     30  C   UNL     1       2.167   4.420  19.435  0.00  0.00    +0.000 C 
ATOM     31  O   UNL     1       1.785   4.920  18.386  0.00  0.00    +0.000 OA
BRANCH  30  32
ATOM     32  C   UNL     1       1.663   3.063  19.960  0.00  0.00    +0.000 C 
ATOM     33  C   UNL     1       0.135   2.979  19.845  0.00  0.00    +0.000 C 
ATOM     34  C   UNL     1       2.296   1.931  19.128  0.00  0.00    +0.000 C 
ATOM     35  C   UNL     1       2.070   2.867  21.425  0.00  0.00    +0.000 C 
ENDBRANCH  30  32
ENDBRANCH  29  30
ENDBRANCH  28  29
ENDBRANCH  27  28
ENDBRANCH   5  27
TORSDOF 13
ENDMDL
MODEL 9
REMARK VINA RESULT:      -6.7      3.325      4.263
REMARK  Name = 
REMARK  19 active torsions:
REMARK  status: ('A' for Active; 'I' for Inactive)
REMARK    1  A    between atoms: C_1  and  C_2
REMARK    2  A    between atoms: C_2  and  C_3
REMARK    3  A    between atoms: C_2  and  C_4
REMARK    4  A    between atoms: C_2  and  C_5
REMARK    5  A    between atoms: C_5  and  O_7
REMARK    6  A    between atoms: O_7  and  C_8
REMARK    7  A    between atoms: C_8  and  O_9
REMARK    8  A    between atoms: O_9  and  C_10
REMARK    9  A    between atoms: C_10  and  N_12
REMARK   10  A    between atoms: N_14  and  C_15
REMARK   11  A    between atoms: C_15  and  C_16
REMARK   12  A    between atoms: C_23  and  O_25
REMARK   13  A    between atoms: O_25  and  C_26
REMARK   14  A    between atoms: C_26  and  O_27
REMARK   15  A    between atoms: O_27  and  C_28
REMARK   16  A    between atoms: C_28  and  C_30
REMARK   17  A    between atoms: C_30  and  C_31
REMARK   18  A    between atoms: C_30  and  C_32
REMARK   19  A    between atoms: C_30  and  C_33
REMARK                            x       y       z     vdW  Elec       q    Type
REMARK                         _______ _______ _______ _____ _____    ______ ____
ROOT
ATOM      1  N   UNL     1       5.230   7.437  17.624  0.00  0.00    +0.000 NA
ATOM      2  C   UNL     1       4.142   6.712  17.629  0.00  0.00    +0.000 C 
ATOM      3  N   UNL     1       2.934   7.288  17.925  0.00  0.00    +0.000 N 
ATOM      4  N   UNL     1       4.142   5.341  17.390  0.00  0.00    +0.000 N 
ATOM      5  C   UNL     1       3.043   4.503  17.352  0.00  0.00    +0.000 C 
ATOM      6  O   UNL     1       1.887   4.857  17.581  0.00  0.00    +0.000 OA
ATOM      7  H   UNL     1       2.156   6.648  18.073  0.00  0.00    +0.000 HD
ATOM      8  H   UNL     1       5.023   4.912  17.138  0.00  0.00    +0.000 HD
ENDROOT
BRANCH   1   9
ATOM      9  C   UNL     1       6.457   6.903  17.377  0.00  0.00    +0.000 C 
ATOM     10  O   UNL     1       6.772   5.725  17.561  0.00  0.00    +0.000 OA
BRANCH   9  11
ATOM     11  O   UNL     1       7.300   7.853  16.892  0.00  0.00    +0.000 OA
BRANCH  11  12
ATOM     12  C   UNL     1       8.177   8.456  17.852  0.00  0.00    +0.000 C 
BRANCH  12  13
ATOM     13  O   UNL     1       8.227   9.892  17.750  0.00  0.00    +0.000 OA
BRANCH  13  14
ATOM     14  C   UNL     1       8.969  10.507  18.712  0.00  0.00    +0.000 C 
ATOM     15  O   UNL     1       9.304   9.971  19.763  0.00  0.00    +0.000 OA
BRANCH  14  17
ATOM     16  C   UNL     1      10.671  11.968  17.570  0.00  0.00    +0.000 C 
ATOM     17  C   UNL     1       9.336  11.955  18.343  0.00  0.00    +0.000 C 
ATOM     18  C   UNL     1       9.512  12.806  19.609  0.00  0.00    +0.000 C 
ATOM     19  C   UNL     1       8.257  12.568  17.443  0.00  0.00    +0.000 C 
ENDBRANCH  14  17
ENDBRANCH  13  14
ENDBRANCH  12  13
ENDBRANCH  11  12
ENDBRANCH   9  11
ENDBRANCH   1   9
BRANCH   3  20
ATOM     20  C   UNL     1       2.541   8.651  17.619  0.00  0.00    +0.000 C 
BRANCH  20  21
ATOM     21  C   UNL     1       1.459   9.175  18.549  0.00  0.00    +0.000 A 
ATOM     22  C   UNL     1       0.452  10.052  18.110  0.00  0.00    +0.000 A 
ATOM     23  C   UNL     1      -0.520  10.535  18.998  0.00  0.00    +0.000 A 
ATOM     24  C   UNL     1      -0.517  10.124  20.330  0.00  0.00    +0.000 A 
ATOM     25  C   UNL     1       0.441   9.216  20.771  0.00  0.00    +0.000 A 
ATOM     26  C   UNL     1       1.417   8.745  19.887  0.00  0.00    +0.000 A 
ENDBRANCH  20  21
ENDBRANCH   3  20
BRANCH   5  27
ATOM     27  O   UNL     1       3.396   3.223  17.057  0.00  0.00    +0.000 OA
BRANCH  27  28
ATOM     28  C   UNL     1       3.786   2.436  18.195  0.00  0.00    +0.000 C 
BRANCH  28  29
ATOM     29  O   UNL     1       3.951   3.220  19.390  0.00  0.00    +0.000 OA
BRANCH  29  30
ATOM     30  C   UNL     1       3.468   2.642  20.520  0.00  0.00    +0.000 C 
ATOM     31  O   UNL     1       4.107   1.870  21.221  0.00  0.00    +0.000 OA
BRANCH  30  32
ATOM     32  C   UNL     1       2.020   3.069  20.828  0.00  0.00    +0.000 C 
ATOM     33  C   UNL     1       1.573   2.503  22.182  0.00  0.00    +0.000 C 
ATOM     34  C   UNL     1       1.945   4.607  20.871  0.00  0.00    +0.000 C 
ATOM     35  C   UNL     1       1.068   2.572  19.733  0.00  0.00    +0.000 C 
ENDBRANCH  30  32
ENDBRANCH  29  30
ENDBRANCH  28  29
ENDBRANCH  27  28
ENDBRANCH   5  27
TORSDOF 13
ENDMDL
