MODEL 1
REMARK VINA RESULT:      -8.0      0.000      0.000
REMARK  Name = 
REMARK  6 active torsions:
REMARK  status: ('A' for Active; 'I' for Inactive)
REMARK    1  A    between atoms: C_6  and  O_7
REMARK    2  A    between atoms: O_7  and  C_8
REMARK    3  A    between atoms: N_15  and  C_16
REMARK    4  A    between atoms: C_16  and  C_17
REMARK    5  A    between atoms: C_17  and  N_18
REMARK    6  A    between atoms: C_20  and  C_21
REMARK                            x       y       z     vdW  Elec       q    Type
REMARK                         _______ _______ _______ _____ _____    ______ ____
ROOT
ATOM      1  N   UNL     1       7.649   5.650  15.087  0.00  0.00    +0.000 NA
ATOM      2  C   UNL     1       6.756   5.255  15.923  0.00  0.00    +0.000 A 
ATOM      3  S   UNL     1       5.583   4.041  15.408  0.00  0.00    +0.000 S 
ATOM      4  C   UNL     1       4.863   4.055  17.033  0.00  0.00    +0.000 A 
ATOM      5  C   UNL     1       3.808   3.265  17.470  0.00  0.00    +0.000 A 
ATOM      6  C   UNL     1       3.386   3.378  18.795  0.00  0.00    +0.000 A 
ATOM      7  C   UNL     1       3.991   4.325  19.629  0.00  0.00    +0.000 A 
ATOM      8  C   UNL     1       5.062   5.117  19.174  0.00  0.00    +0.000 A 
ATOM      9  C   UNL     1       5.518   4.984  17.868  0.00  0.00    +0.000 A 
ATOM     10  N   UNL     1       6.556   5.666  17.226  0.00  0.00    +0.000 N 
ATOM     11  H   UNL     1       7.487   5.129  14.216  0.00  0.00    +0.000 HD
ENDROOT
BRANCH   6  12
ATOM     12  O   UNL     1       2.347   2.562  19.122  0.00  0.00    +0.000 OA
BRANCH  12  13
ATOM     13  C   UNL     1       1.012   3.049  19.062  0.00  0.00    +0.000 C 
ATOM     14  F   UNL     1       0.112   2.141  18.632  0.00  0.00    +0.000 F 
ATOM     15  F   UNL     1       0.643   3.484  20.285  0.00  0.00    +0.000 F 
ATOM     16  F   UNL     1       0.979   4.100  18.212  0.00  0.00    +0.000 F 
ENDBRANCH  12  13
ENDBRANCH   6  12
BRANCH  10  17
ATOM     17  C   UNL     1       7.445   6.634  17.872  0.00  0.00    +0.000 C 
BRANCH  17  18
ATOM     18  C   UNL     1       7.126   8.062  17.419  0.00  0.00    +0.000 C 
BRANCH  18  19
ATOM     19  N   UNL     1       8.048   9.044  17.946  0.00  0.00    +0.000 N 
ATOM     20  C   UNL     1       8.199  10.337  17.545  0.00  0.00    +0.000 A 
ATOM     21  C   UNL     1       9.124  10.850  18.423  0.00  0.00    +0.000 A 
ATOM     22  N   UNL     1       9.498   9.871  19.306  0.00  0.00    +0.000 NA
ATOM     23  N   UNL     1       8.826   8.764  19.007  0.00  0.00    +0.000 NA
BRANCH  21  24
ATOM     24  C   UNL     1       9.674  12.204  18.485  0.00  0.00    +0.000 A 
ATOM     25  C   UNL     1       8.884  13.355  18.790  0.00  0.00    +0.000 A 
ATOM     26  C   UNL     1       9.632  14.513  18.803  0.00  0.00    +0.000 A 
ATOM     27  S   UNL     1      11.277  14.220  18.433  0.00  0.00    +0.000 S 
ATOM     28  C   UNL     1      10.993  12.540  18.263  0.00  0.00    +0.000 A 
ENDBRANCH  21  24
ENDBRANCH  18  19
ENDBRANCH  17  18
ENDBRANCH  10  17
TORSDOF 6
ENDMDL
MODEL 2
REMARK VINA RESULT:      -7.7      6.174      7.569
REMARK  Name = 
REMARK  6 active torsions:
REMARK  status: ('A' for Active; 'I' for Inactive)
REMARK    1  A    between atoms: C_6  and  O_7
REMARK    2  A    between atoms: O_7  and  C_8
REMARK    3  A    between atoms: N_15  and  C_16
REMARK    4  A    between atoms: C_16  and  C_17
REMARK    5  A    between atoms: C_17  and  N_18
REMARK    6  A    between atoms: C_20  and  C_21
REMARK                            x       y       z     vdW  Elec       q    Type
REMARK                         _______ _______ _______ _____ _____    ______ ____
ROOT
ATOM      1  N   UNL     1       3.214   5.389  20.127  0.00  0.00    +0.000 NA
ATOM      2  C   UNL     1       3.804   5.225  18.997  0.00  0.00    +0.000 A 
ATOM      3  S   UNL     1       4.324   3.603  18.534  0.00  0.00    +0.000 S 
ATOM      4  C   UNL     1       4.914   4.241  16.983  0.00  0.00    +0.000 A 
ATOM      5  C   UNL     1       5.485   3.501  15.956  0.00  0.00    +0.000 A 
ATOM      6  C   UNL     1       5.864   4.158  14.784  0.00  0.00    +0.000 A 
ATOM      7  C   UNL     1       5.719   5.547  14.698  0.00  0.00    +0.000 A 
ATOM      8  C   UNL     1       5.135   6.284  15.747  0.00  0.00    +0.000 A 
ATOM      9  C   UNL     1       4.716   5.634  16.902  0.00  0.00    +0.000 A 
ATOM     10  N   UNL     1       4.119   6.174  18.046  0.00  0.00    +0.000 N 
ATOM     11  H   UNL     1       3.157   4.461  20.566  0.00  0.00    +0.000 HD
ENDROOT
BRANCH   6  12
ATOM     12  O   UNL     1       6.413   3.345  13.841  0.00  0.00    +0.000 OA
BRANCH  12  13
ATOM     13  C   UNL     1       5.993   3.442  12.486  0.00  0.00    +0.000 C 
ATOM     14  F   UNL     1       6.642   4.385  11.772  0.00  0.00    +0.000 F 
ATOM     15  F   UNL     1       6.161   2.246  11.883  0.00  0.00    +0.000 F 
ATOM     16  F   UNL     1       4.676   3.743  12.467  0.00  0.00    +0.000 F 
ENDBRANCH  12  13
ENDBRANCH   6  12
BRANCH  10  17
ATOM     17  C   UNL     1       3.736   7.579  18.205  0.00  0.00    +0.000 C 
BRANCH  17  18
ATOM     18  C   UNL     1       2.216   7.748  18.122  0.00  0.00    +0.000 C 
BRANCH  18  19
ATOM     19  N   UNL     1       1.655   8.415  19.275  0.00  0.00    +0.000 N 
ATOM     20  C   UNL     1       0.905   9.553  19.291  0.00  0.00    +0.000 A 
ATOM     21  C   UNL     1       0.552   9.698  20.611  0.00  0.00    +0.000 A 
ATOM     22  N   UNL     1       1.092   8.668  21.338  0.00  0.00    +0.000 NA
ATOM     23  N   UNL     1       1.764   7.881  20.505  0.00  0.00    +0.000 NA
BRANCH  21  24
ATOM     24  C   UNL     1      -0.263  10.743  21.231  0.00  0.00    +0.000 A 
ATOM     25  C   UNL     1      -0.679  11.922  20.540  0.00  0.00    +0.000 A 
ATOM     26  C   UNL     1      -1.449  12.747  21.332  0.00  0.00    +0.000 A 
ATOM     27  S   UNL     1      -1.660  12.113  22.907  0.00  0.00    +0.000 S 
ATOM     28  C   UNL     1      -0.725  10.728  22.531  0.00  0.00    +0.000 A 
ENDBRANCH  21  24
ENDBRANCH  18  19
ENDBRANCH  17  18
ENDBRANCH  10  17
TORSDOF 6
ENDMDL
MODEL 3
REMARK VINA RESULT:      -7.6      5.991      7.551
REMARK  Name = 
REMARK  6 active torsions:
REMARK  status: ('A' for Active; 'I' for Inactive)
REMARK    1  A    between atoms: C_6  and  O_7
REMARK    2  A    between atoms: O_7  and  C_8
REMARK    3  A    between atoms: N_15  and  C_16
REMARK    4  A    between atoms: C_16  and  C_17
REMARK    5  A    between atoms: C_17  and  N_18
REMARK    6  A    between atoms: C_20  and  C_21
REMARK                            x       y       z     vdW  Elec       q    Type
REMARK                         _______ _______ _______ _____ _____    ______ ____
ROOT
ATOM      1  N   UNL     1       2.650   4.684  19.757  0.00  0.00    +0.000 NA
ATOM      2  C   UNL     1       3.399   4.641  18.713  0.00  0.00    +0.000 A 
ATOM      3  S   UNL     1       3.754   3.074  17.982  0.00  0.00    +0.000 S 
ATOM      4  C   UNL     1       4.692   3.887  16.710  0.00  0.00    +0.000 A 
ATOM      5  C   UNL     1       5.322   3.272  15.636  0.00  0.00    +0.000 A 
ATOM      6  C   UNL     1       5.992   4.066  14.705  0.00  0.00    +0.000 A 
ATOM      7  C   UNL     1       6.065   5.448  14.907  0.00  0.00    +0.000 A 
ATOM      8  C   UNL     1       5.418   6.059  15.998  0.00  0.00    +0.000 A 
ATOM      9  C   UNL     1       4.714   5.282  16.911  0.00  0.00    +0.000 A 
ATOM     10  N   UNL     1       4.009   5.686  18.049  0.00  0.00    +0.000 N 
ATOM     11  H   UNL     1       2.383   3.714  19.968  0.00  0.00    +0.000 HD
ENDROOT
BRANCH   6  12
ATOM     12  O   UNL     1       6.576   3.367  13.692  0.00  0.00    +0.000 OA
BRANCH  12  13
ATOM     13  C   UNL     1       6.007   3.393  12.389  0.00  0.00    +0.000 C 
ATOM     14  F   UNL     1       4.712   3.767  12.358  0.00  0.00    +0.000 F 
ATOM     15  F   UNL     1       6.722   4.232  11.610  0.00  0.00    +0.000 F 
ATOM     16  F   UNL     1       6.093   2.152  11.861  0.00  0.00    +0.000 F 
ENDBRANCH  12  13
ENDBRANCH   6  12
BRANCH  10  17
ATOM     17  C   UNL     1       3.810   7.078  18.458  0.00  0.00    +0.000 C 
BRANCH  17  18
ATOM     18  C   UNL     1       2.836   7.794  17.518  0.00  0.00    +0.000 C 
BRANCH  18  19
ATOM     19  N   UNL     1       1.861   8.601  18.217  0.00  0.00    +0.000 N 
ATOM     20  C   UNL     1       1.616   8.627  19.557  0.00  0.00    +0.000 A 
ATOM     21  C   UNL     1       0.675   9.620  19.702  0.00  0.00    +0.000 A 
ATOM     22  N   UNL     1       0.384  10.148  18.470  0.00  0.00    +0.000 NA
ATOM     23  N   UNL     1       1.124   9.517  17.564  0.00  0.00    +0.000 NA
BRANCH  21  24
ATOM     24  C   UNL     1       0.037  10.104  20.925  0.00  0.00    +0.000 A 
ATOM     25  C   UNL     1      -0.148   9.290  22.085  0.00  0.00    +0.000 A 
ATOM     26  C   UNL     1      -0.760   9.976  23.112  0.00  0.00    +0.000 A 
ATOM     27  S   UNL     1      -1.127  11.591  22.679  0.00  0.00    +0.000 S 
ATOM     28  C   UNL     1      -0.459  11.377  21.116  0.00  0.00    +0.000 A 
ENDBRANCH  21  24
ENDBRANCH  18  19
ENDBRANCH  17  18
ENDBRANCH  10  17
TORSDOF 6
ENDMDL
MODEL 4
REMARK VINA RESULT:      -7.4      6.345      7.760
REMARK  Name = 
REMARK  6 active torsions:
REMARK  status: ('A' for Active; 'I' for Inactive)
REMARK    1  A    between atoms: C_6  and  O_7
REMARK    2  A    between atoms: O_7  and  C_8
REMARK    3  A    between atoms: N_15  and  C_16
REMARK    4  A    between atoms: C_16  and  C_17
REMARK    5  A    between atoms: C_17  and  N_18
REMARK    6  A    between atoms: C_20  and  C_21
REMARK                            x       y       z     vdW  Elec       q    Type
REMARK                         _______ _______ _______ _____ _____    ______ ____
ROOT
ATOM      1  N   UNL     1       1.153   4.715  20.380  0.00  0.00    +0.000 NA
ATOM      2  C   UNL     1       2.113   4.715  19.525  0.00  0.00    +0.000 A 
ATOM      3  S   UNL     1       2.573   3.193  18.760  0.00  0.00    +0.000 S 
ATOM      4  C   UNL     1       3.795   4.053  17.796  0.00  0.00    +0.000 A 
ATOM      5  C   UNL     1       4.628   3.492  16.837  0.00  0.00    +0.000 A 
ATOM      6  C   UNL     1       5.511   4.321  16.145  0.00  0.00    +0.000 A 
ATOM      7  C   UNL     1       5.579   5.680  16.475  0.00  0.00    +0.000 A 
ATOM      8  C   UNL     1       4.725   6.236  17.446  0.00  0.00    +0.000 A 
ATOM      9  C   UNL     1       3.814   5.427  18.114  0.00  0.00    +0.000 A 
ATOM     10  N   UNL     1       2.887   5.777  19.101  0.00  0.00    +0.000 N 
ATOM     11  H   UNL     1       0.817   3.746  20.445  0.00  0.00    +0.000 HD
ENDROOT
BRANCH   6  12
ATOM     12  O   UNL     1       6.283   3.675  15.229  0.00  0.00    +0.000 OA
BRANCH  12  13
ATOM     13  C   UNL     1       6.215   4.039  13.856  0.00  0.00    +0.000 C 
ATOM     14  F   UNL     1       7.036   5.053  13.512  0.00  0.00    +0.000 F 
ATOM     15  F   UNL     1       6.509   2.963  13.096  0.00  0.00    +0.000 F 
ATOM     16  F   UNL     1       4.948   4.419  13.577  0.00  0.00    +0.000 F 
ENDBRANCH  12  13
ENDBRANCH   6  12
BRANCH  10  17
ATOM     17  C   UNL     1       2.644   7.142  19.573  0.00  0.00    +0.000 C 
BRANCH  17  18
ATOM     18  C   UNL     1       2.167   8.043  18.430  0.00  0.00    +0.000 C 
BRANCH  18  19
ATOM     19  N   UNL     1       1.187   9.020  18.849  0.00  0.00    +0.000 N 
ATOM     20  C   UNL     1       0.841   9.353  20.124  0.00  0.00    +0.000 A 
ATOM     21  C   UNL     1      -0.050  10.387  19.966  0.00  0.00    +0.000 A 
ATOM     22  N   UNL     1      -0.215  10.640  18.629  0.00  0.00    +0.000 NA
ATOM     23  N   UNL     1       0.555   9.796  17.950  0.00  0.00    +0.000 NA
BRANCH  21  24
ATOM     24  C   UNL     1      -0.753  11.154  20.994  0.00  0.00    +0.000 A 
ATOM     25  C   UNL     1      -0.749  10.795  22.377  0.00  0.00    +0.000 A 
ATOM     26  C   UNL     1      -1.471  11.680  23.149  0.00  0.00    +0.000 A 
ATOM     27  S   UNL     1      -2.165  12.933  22.212  0.00  0.00    +0.000 S 
ATOM     28  C   UNL     1      -1.494  12.296  20.770  0.00  0.00    +0.000 A 
ENDBRANCH  21  24
ENDBRANCH  18  19
ENDBRANCH  17  18
ENDBRANCH  10  17
TORSDOF 6
ENDMDL
MODEL 5
REMARK VINA RESULT:      -7.4      6.330      7.775
REMARK  Name = 
REMARK  6 active torsions:
REMARK  status: ('A' for Active; 'I' for Inactive)
REMARK    1  A    between atoms: C_6  and  O_7
REMARK    2  A    between atoms: O_7  and  C_8
REMARK    3  A    between atoms: N_15  and  C_16
REMARK    4  A    between atoms: C_16  and  C_17
REMARK    5  A    between atoms: C_17  and  N_18
REMARK    6  A    between atoms: C_20  and  C_21
REMARK                            x       y       z     vdW  Elec       q    Type
REMARK                         _______ _______ _______ _____ _____    ______ ____
ROOT
ATOM      1  N   UNL     1       0.495   3.618  20.451  0.00  0.00    +0.000 NA
ATOM      2  C   UNL     1       1.574   3.800  19.776  0.00  0.00    +0.000 A 
ATOM      3  S   UNL     1       2.048   2.588  18.584  0.00  0.00    +0.000 S 
ATOM      4  C   UNL     1       3.456   3.579  18.144  0.00  0.00    +0.000 A 
ATOM      5  C   UNL     1       4.390   3.287  17.159  0.00  0.00    +0.000 A 
ATOM      6  C   UNL     1       5.421   4.195  16.918  0.00  0.00    +0.000 A 
ATOM      7  C   UNL     1       5.525   5.343  17.713  0.00  0.00    +0.000 A 
ATOM      8  C   UNL     1       4.569   5.629  18.706  0.00  0.00    +0.000 A 
ATOM      9  C   UNL     1       3.514   4.750  18.927  0.00  0.00    +0.000 A 
ATOM     10  N   UNL     1       2.470   4.847  19.853  0.00  0.00    +0.000 N 
ATOM     11  H   UNL     1       0.092   2.730  20.127  0.00  0.00    +0.000 HD
ENDROOT
BRANCH   6  12
ATOM     12  O   UNL     1       6.282   3.816  15.934  0.00  0.00    +0.000 OA
BRANCH  12  13
ATOM     13  C   UNL     1       6.186   4.397  14.640  0.00  0.00    +0.000 C 
ATOM     14  F   UNL     1       6.421   3.536  13.629  0.00  0.00    +0.000 F 
ATOM     15  F   UNL     1       4.955   4.929  14.483  0.00  0.00    +0.000 F 
ATOM     16  F   UNL     1       7.092   5.396  14.553  0.00  0.00    +0.000 F 
ENDBRANCH  12  13
ENDBRANCH   6  12
BRANCH  10  17
ATOM     17  C   UNL     1       2.246   5.987  20.743  0.00  0.00    +0.000 C 
BRANCH  17  18
ATOM     18  C   UNL     1       1.965   7.263  19.944  0.00  0.00    +0.000 C 
BRANCH  18  19
ATOM     19  N   UNL     1       1.416   8.330  20.751  0.00  0.00    +0.000 N 
ATOM     20  C   UNL     1       0.419   9.196  20.413  0.00  0.00    +0.000 A 
ATOM     21  C   UNL     1       0.220   9.933  21.556  0.00  0.00    +0.000 A 
ATOM     22  N   UNL     1       1.086   9.502  22.527  0.00  0.00    +0.000 NA
ATOM     23  N   UNL     1       1.814   8.511  22.022  0.00  0.00    +0.000 NA
BRANCH  21  24
ATOM     24  C   UNL     1      -0.737  11.014  21.792  0.00  0.00    +0.000 A 
ATOM     25  C   UNL     1      -1.406  11.206  23.040  0.00  0.00    +0.000 A 
ATOM     26  C   UNL     1      -2.245  12.300  23.019  0.00  0.00    +0.000 A 
ATOM     27  S   UNL     1      -2.241  13.084  21.498  0.00  0.00    +0.000 S 
ATOM     28  C   UNL     1      -1.109  11.966  20.866  0.00  0.00    +0.000 A 
ENDBRANCH  21  24
ENDBRANCH  18  19
ENDBRANCH  17  18
ENDBRANCH  10  17
TORSDOF 6
ENDMDL
MODEL 6
REMARK VINA RESULT:      -7.3      6.027      7.260
REMARK  Name = 
REMARK  6 active torsions:
REMARK  status: ('A' for Active; 'I' for Inactive)
REMARK    1  A    between atoms: C_6  and  O_7
REMARK    2  A    between atoms: O_7  and  C_8
REMARK    3  A    between atoms: N_15  and  C_16
REMARK    4  A    between atoms: C_16  and  C_17
REMARK    5  A    between atoms: C_17  and  N_18
REMARK    6  A    between atoms: C_20  and  C_21
REMARK                            x       y       z     vdW  Elec       q    Type
REMARK                         _______ _______ _______ _____ _____    ______ ____
ROOT
ATOM      1  N   UNL     1       2.671   3.933  19.968  0.00  0.00    +0.000 NA
ATOM      2  C   UNL     1       3.402   4.077  18.920  0.00  0.00    +0.000 A 
ATOM      3  S   UNL     1       3.896   2.641  18.021  0.00  0.00    +0.000 S 
ATOM      4  C   UNL     1       4.728   3.675  16.838  0.00  0.00    +0.000 A 
ATOM      5  C   UNL     1       5.396   3.245  15.699  0.00  0.00    +0.000 A 
ATOM      6  C   UNL     1       5.968   4.197  14.855  0.00  0.00    +0.000 A 
ATOM      7  C   UNL     1       5.910   5.550  15.207  0.00  0.00    +0.000 A 
ATOM      8  C   UNL     1       5.225   5.972  16.362  0.00  0.00    +0.000 A 
ATOM      9  C   UNL     1       4.617   5.035  17.189  0.00  0.00    +0.000 A 
ATOM     10  N   UNL     1       3.896   5.243  18.370  0.00  0.00    +0.000 N 
ATOM     11  H   UNL     1       2.504   2.925  20.073  0.00  0.00    +0.000 HD
ENDROOT
BRANCH   6  12
ATOM     12  O   UNL     1       6.599   3.673  13.768  0.00  0.00    +0.000 OA
BRANCH  12  13
ATOM     13  C   UNL     1       5.901   3.533  12.538  0.00  0.00    +0.000 C 
ATOM     14  F   UNL     1       4.607   3.911  12.591  0.00  0.00    +0.000 F 
ATOM     15  F   UNL     1       6.528   4.257  11.587  0.00  0.00    +0.000 F 
ATOM     16  F   UNL     1       5.939   2.233  12.171  0.00  0.00    +0.000 F 
ENDBRANCH  12  13
ENDBRANCH   6  12
BRANCH  10  17
ATOM     17  C   UNL     1       3.569   6.556  18.929  0.00  0.00    +0.000 C 
BRANCH  17  18
ATOM     18  C   UNL     1       2.441   7.226  18.138  0.00  0.00    +0.000 C 
BRANCH  18  19
ATOM     19  N   UNL     1       1.822   8.322  18.850  0.00  0.00    +0.000 N 
ATOM     20  C   UNL     1       1.288   9.458  18.318  0.00  0.00    +0.000 A 
ATOM     21  C   UNL     1       0.753  10.111  19.404  0.00  0.00    +0.000 A 
ATOM     22  N   UNL     1       0.980   9.368  20.534  0.00  0.00    +0.000 NA
ATOM     23  N   UNL     1       1.634   8.266  20.180  0.00  0.00    +0.000 NA
BRANCH  21  24
ATOM     24  C   UNL     1       0.041  11.388  19.444  0.00  0.00    +0.000 A 
ATOM     25  C   UNL     1       0.463  12.541  18.714  0.00  0.00    +0.000 A 
ATOM     26  C   UNL     1      -0.379  13.616  18.904  0.00  0.00    +0.000 A 
ATOM     27  S   UNL     1      -1.667  13.244  19.968  0.00  0.00    +0.000 S 
ATOM     28  C   UNL     1      -1.103  11.640  20.172  0.00  0.00    +0.000 A 
ENDBRANCH  21  24
ENDBRANCH  18  19
ENDBRANCH  17  18
ENDBRANCH  10  17
TORSDOF 6
ENDMDL
MODEL 7
REMARK VINA RESULT:      -7.3      1.160      1.357
REMARK  Name = 
REMARK  6 active torsions:
REMARK  status: ('A' for Active; 'I' for Inactive)
REMARK    1  A    between atoms: C_6  and  O_7
REMARK    2  A    between atoms: O_7  and  C_8
REMARK    3  A    between atoms: N_15  and  C_16
REMARK    4  A    between atoms: C_16  and  C_17
REMARK    5  A    between atoms: C_17  and  N_18
REMARK    6  A    between atoms: C_20  and  C_21
REMARK                            x       y       z     vdW  Elec       q    Type
REMARK                         _______ _______ _______ _____ _____    ______ ____
ROOT
ATOM      1  N   UNL     1       7.629   5.491  15.177  0.00  0.00    +0.000 NA
ATOM      2  C   UNL     1       6.506   5.424  15.799  0.00  0.00    +0.000 A 
ATOM      3  S   UNL     1       5.540   3.953  15.658  0.00  0.00    +0.000 S 
ATOM      4  C   UNL     1       4.333   4.646  16.764  0.00  0.00    +0.000 A 
ATOM      5  C   UNL     1       3.179   4.020  17.216  0.00  0.00    +0.000 A 
ATOM      6  C   UNL     1       2.353   4.698  18.113  0.00  0.00    +0.000 A 
ATOM      7  C   UNL     1       2.673   6.008  18.485  0.00  0.00    +0.000 A 
ATOM      8  C   UNL     1       3.849   6.629  18.022  0.00  0.00    +0.000 A 
ATOM      9  C   UNL     1       4.700   5.948  17.160  0.00  0.00    +0.000 A 
ATOM     10  N   UNL     1       5.903   6.380  16.591  0.00  0.00    +0.000 N 
ATOM     11  H   UNL     1       7.747   4.596  14.686  0.00  0.00    +0.000 HD
ENDROOT
BRANCH   6  12
ATOM     12  O   UNL     1       1.249   3.998  18.494  0.00  0.00    +0.000 OA
BRANCH  12  13
ATOM     13  C   UNL     1       1.263   3.247  19.701  0.00  0.00    +0.000 C 
ATOM     14  F   UNL     1       0.625   3.840  20.730  0.00  0.00    +0.000 F 
ATOM     15  F   UNL     1       0.703   2.039  19.477  0.00  0.00    +0.000 F 
ATOM     16  F   UNL     1       2.550   3.052  20.068  0.00  0.00    +0.000 F 
ENDBRANCH  12  13
ENDBRANCH   6  12
BRANCH  10  17
ATOM     17  C   UNL     1       6.553   7.659  16.882  0.00  0.00    +0.000 C 
BRANCH  17  18
ATOM     18  C   UNL     1       7.706   7.478  17.874  0.00  0.00    +0.000 C 
BRANCH  18  19
ATOM     19  N   UNL     1       8.357   8.721  18.221  0.00  0.00    +0.000 N 
ATOM     20  C   UNL     1       8.360   9.883  17.508  0.00  0.00    +0.000 A 
ATOM     21  C   UNL     1       9.032  10.767  18.318  0.00  0.00    +0.000 A 
ATOM     22  N   UNL     1       9.411  10.125  19.469  0.00  0.00    +0.000 NA
ATOM     23  N   UNL     1       8.985   8.868  19.401  0.00  0.00    +0.000 NA
BRANCH  21  24
ATOM     24  C   UNL     1       9.338  12.177  18.078  0.00  0.00    +0.000 A 
ATOM     25  C   UNL     1       8.354  13.211  18.138  0.00  0.00    +0.000 A 
ATOM     26  C   UNL     1       8.889  14.456  17.889  0.00  0.00    +0.000 A 
ATOM     27  S   UNL     1      10.568  14.382  17.569  0.00  0.00    +0.000 S 
ATOM     28  C   UNL     1      10.584  12.682  17.770  0.00  0.00    +0.000 A 
ENDBRANCH  21  24
ENDBRANCH  18  19
ENDBRANCH  17  18
ENDBRANCH  10  17
TORSDOF 6
ENDMDL
MODEL 8
REMARK VINA RESULT:      -7.3      6.294      7.526
REMARK  Name = 
REMARK  6 active torsions:
REMARK  status: ('A' for Active; 'I' for Inactive)
REMARK    1  A    between atoms: C_6  and  O_7
REMARK    2  A    between atoms: O_7  and  C_8
REMARK    3  A    between atoms: N_15  and  C_16
REMARK    4  A    between atoms: C_16  and  C_17
REMARK    5  A    between atoms: C_17  and  N_18
REMARK    6  A    between atoms: C_20  and  C_21
REMARK                            x       y       z     vdW  Elec       q    Type
REMARK                         _______ _______ _______ _____ _____    ______ ____
ROOT
ATOM      1  N   UNL     1       0.480   3.711  20.403  0.00  0.00    +0.000 NA
ATOM      2  C   UNL     1       1.542   3.855  19.693  0.00  0.00    +0.000 A 
ATOM      3  S   UNL     1       2.008   2.562  18.586  0.00  0.00    +0.000 S 
ATOM      4  C   UNL     1       3.393   3.535  18.042  0.00  0.00    +0.000 A 
ATOM      5  C   UNL     1       4.310   3.180  17.062  0.00  0.00    +0.000 A 
ATOM      6  C   UNL     1       5.323   4.081  16.731  0.00  0.00    +0.000 A 
ATOM      7  C   UNL     1       5.427   5.286  17.435  0.00  0.00    +0.000 A 
ATOM      8  C   UNL     1       4.488   5.635  18.424  0.00  0.00    +0.000 A 
ATOM      9  C   UNL     1       3.451   4.762  18.733  0.00  0.00    +0.000 A 
ATOM     10  N   UNL     1       2.425   4.916  19.672  0.00  0.00    +0.000 N 
ATOM     11  H   UNL     1       0.082   2.796  20.156  0.00  0.00    +0.000 HD
ENDROOT
BRANCH   6  12
ATOM     12  O   UNL     1       6.169   3.639  15.760  0.00  0.00    +0.000 OA
BRANCH  12  13
ATOM     13  C   UNL     1       6.275   4.346  14.532  0.00  0.00    +0.000 C 
ATOM     14  F   UNL     1       7.221   5.308  14.527  0.00  0.00    +0.000 F 
ATOM     15  F   UNL     1       6.537   3.472  13.537  0.00  0.00    +0.000 F 
ATOM     16  F   UNL     1       5.085   4.934  14.273  0.00  0.00    +0.000 F 
ENDBRANCH  12  13
ENDBRANCH   6  12
BRANCH  10  17
ATOM     17  C   UNL     1       2.203   6.117  20.479  0.00  0.00    +0.000 C 
BRANCH  17  18
ATOM     18  C   UNL     1       2.048   7.355  19.590  0.00  0.00    +0.000 C 
BRANCH  18  19
ATOM     19  N   UNL     1       1.432   8.471  20.274  0.00  0.00    +0.000 N 
ATOM     20  C   UNL     1       0.879   9.583  19.713  0.00  0.00    +0.000 A 
ATOM     21  C   UNL     1       0.358  10.270  20.784  0.00  0.00    +0.000 A 
ATOM     22  N   UNL     1       0.611   9.568  21.935  0.00  0.00    +0.000 NA
ATOM     23  N   UNL     1       1.268   8.460  21.609  0.00  0.00    +0.000 NA
BRANCH  21  24
ATOM     24  C   UNL     1      -0.365  11.541  20.793  0.00  0.00    +0.000 A 
ATOM     25  C   UNL     1      -1.500  11.799  19.964  0.00  0.00    +0.000 A 
ATOM     26  C   UNL     1      -2.015  13.063  20.164  0.00  0.00    +0.000 A 
ATOM     27  S   UNL     1      -1.127  13.942  21.332  0.00  0.00    +0.000 S 
ATOM     28  C   UNL     1      -0.055  12.630  21.580  0.00  0.00    +0.000 A 
ENDBRANCH  21  24
ENDBRANCH  18  19
ENDBRANCH  17  18
ENDBRANCH  10  17
TORSDOF 6
ENDMDL
MODEL 9
REMARK VINA RESULT:      -7.2      3.624      4.334
REMARK  Name = 
REMARK  6 active torsions:
REMARK  status: ('A' for Active; 'I' for Inactive)
REMARK    1  A    between atoms: C_6  and  O_7
REMARK    2  A    between atoms: O_7  and  C_8
REMARK    3  A    between atoms: N_15  and  C_16
REMARK    4  A    between atoms: C_16  and  C_17
REMARK    5  A    between atoms: C_17  and  N_18
REMARK    6  A    between atoms: C_20  and  C_21
REMARK                            x       y       z     vdW  Elec       q    Type
REMARK                         _______ _______ _______ _____ _____    ______ ____
ROOT
ATOM      1  N   UNL     1       5.394   3.151  19.250  0.00  0.00    +0.000 NA
ATOM      2  C   UNL     1       4.676   4.200  19.057  0.00  0.00    +0.000 A 
ATOM      3  S   UNL     1       3.215   4.422  20.022  0.00  0.00    +0.000 S 
ATOM      4  C   UNL     1       2.928   5.981  19.218  0.00  0.00    +0.000 A 
ATOM      5  C   UNL     1       1.887   6.862  19.483  0.00  0.00    +0.000 A 
ATOM      6  C   UNL     1       1.829   8.065  18.779  0.00  0.00    +0.000 A 
ATOM      7  C   UNL     1       2.778   8.326  17.785  0.00  0.00    +0.000 A 
ATOM      8  C   UNL     1       3.830   7.426  17.530  0.00  0.00    +0.000 A 
ATOM      9  C   UNL     1       3.922   6.243  18.253  0.00  0.00    +0.000 A 
ATOM     10  N   UNL     1       4.877   5.226  18.156  0.00  0.00    +0.000 N 
ATOM     11  H   UNL     1       4.934   2.613  19.994  0.00  0.00    +0.000 HD
ENDROOT
BRANCH   6  12
ATOM     12  O   UNL     1       0.772   8.856  19.112  0.00  0.00    +0.000 OA
BRANCH  12  13
ATOM     13  C   UNL     1       0.962   9.975  19.968  0.00  0.00    +0.000 C 
ATOM     14  F   UNL     1       1.757  10.936  19.454  0.00  0.00    +0.000 F 
ATOM     15  F   UNL     1      -0.239  10.515  20.266  0.00  0.00    +0.000 F 
ATOM     16  F   UNL     1       1.526   9.543  21.118  0.00  0.00    +0.000 F 
ENDBRANCH  12  13
ENDBRANCH   6  12
BRANCH  10  17
ATOM     17  C   UNL     1       6.056   5.267  17.288  0.00  0.00    +0.000 C 
BRANCH  17  18
ATOM     18  C   UNL     1       7.314   5.622  18.085  0.00  0.00    +0.000 C 
BRANCH  18  19
ATOM     19  N   UNL     1       7.641   7.030  18.034  0.00  0.00    +0.000 N 
ATOM     20  C   UNL     1       8.418   7.732  18.905  0.00  0.00    +0.000 A 
ATOM     21  C   UNL     1       8.483   8.989  18.351  0.00  0.00    +0.000 A 
ATOM     22  N   UNL     1       7.754   9.008  17.190  0.00  0.00    +0.000 NA
ATOM     23  N   UNL     1       7.244   7.795  17.001  0.00  0.00    +0.000 NA
BRANCH  21  24
ATOM     24  C   UNL     1       9.189  10.171  18.844  0.00  0.00    +0.000 A 
ATOM     25  C   UNL     1       9.730  11.174  17.982  0.00  0.00    +0.000 A 
ATOM     26  C   UNL     1      10.336  12.194  18.684  0.00  0.00    +0.000 A 
ATOM     27  S   UNL     1      10.268  11.940  20.375  0.00  0.00    +0.000 S 
ATOM     28  C   UNL     1       9.420  10.466  20.172  0.00  0.00    +0.000 A 
ENDBRANCH  21  24
ENDBRANCH  18  19
ENDBRANCH  17  18
ENDBRANCH  10  17
TORSDOF 6
ENDMDL
