MODEL 1
REMARK VINA RESULT:      -8.2      0.000      0.000
REMARK  Name = 
REMARK  7 active torsions:
REMARK  status: ('A' for Active; 'I' for Inactive)
REMARK    1  A    between atoms: C_1  and  C_2
REMARK    2  A    between atoms: C_2  and  C_3
REMARK    3  A    between atoms: C_2  and  N_4
REMARK    4  A    between atoms: N_4  and  C_5
REMARK    5  A    between atoms: C_5  and  C_6
REMARK    6  A    between atoms: C_12  and  C_14
REMARK    7  A    between atoms: C_18  and  C_19
REMARK                            x       y       z     vdW  Elec       q    Type
REMARK                         _______ _______ _______ _____ _____    ______ ____
ROOT
ATOM      1  N   UNL     1       2.655   3.890  18.689  0.00  0.00    +0.000 N 
ATOM      2  C   UNL     1       3.920   3.294  18.473  0.00  0.00    +0.000 C 
ATOM      3  O   UNL     1       4.167   2.152  18.879  0.00  0.00    +0.000 OA
ENDROOT
BRANCH   2   4
ATOM      4  C   UNL     1       5.042   3.927  17.745  0.00  0.00    +0.000 A 
ATOM      5  C   UNL     1       5.970   4.638  18.525  0.00  0.00    +0.000 A 
ATOM      6  C   UNL     1       7.045   5.294  17.934  0.00  0.00    +0.000 A 
ATOM      7  C   UNL     1       7.218   5.218  16.555  0.00  0.00    +0.000 A 
ATOM      8  C   UNL     1       6.293   4.531  15.755  0.00  0.00    +0.000 A 
ATOM      9  C   UNL     1       5.168   3.941  16.356  0.00  0.00    +0.000 A 
BRANCH   8  10
ATOM     10  C   UNL     1       6.506   4.391  14.325  0.00  0.00    +0.000 A 
ATOM     11  C   UNL     1       5.852   3.590  13.360  0.00  0.00    +0.000 A 
ATOM     12  N   UNL     1       6.394   3.700  12.144  0.00  0.00    +0.000 NA
ATOM     13  N   UNL     1       7.396   4.574  12.323  0.00  0.00    +0.000 N 
ATOM     14  C   UNL     1       7.515   5.005  13.613  0.00  0.00    +0.000 A 
ATOM     15  H   UNL     1       7.966   4.824  11.523  0.00  0.00    +0.000 HD
ENDBRANCH   8  10
ENDBRANCH   2   4
BRANCH   1  17
ATOM     16  C   UNL     1       1.237   3.775  20.847  0.00  0.00    +0.000 C 
ATOM     17  C   UNL     1       1.797   3.076  19.606  0.00  0.00    +0.000 C 
ATOM     18  C   UNL     1       0.665   2.386  18.835  0.00  0.00    +0.000 C 
ENDBRANCH   1  17
BRANCH   1  19
ATOM     19  C   UNL     1       2.205   5.260  18.312  0.00  0.00    +0.000 C 
BRANCH  19  20
ATOM     20  C   UNL     1       2.982   6.512  18.808  0.00  0.00    +0.000 C 
ATOM     21  C   UNL     1       3.196   7.605  17.764  0.00  0.00    +0.000 C 
ATOM     22  C   UNL     1       2.007   8.549  17.936  0.00  0.00    +0.000 C 
ATOM     23  C   UNL     1       1.715   8.427  19.410  0.00  0.00    +0.000 C 
ATOM     24  O   UNL     1       1.086   9.207  20.101  0.00  0.00    +0.000 OA
ATOM     25  N   UNL     1       2.247   7.225  19.838  0.00  0.00    +0.000 N 
ATOM     26  H   UNL     1       2.213   6.986  20.824  0.00  0.00    +0.000 HD
ENDBRANCH  19  20
ENDBRANCH   1  19
TORSDOF 5
ENDMDL
MODEL 2
REMARK VINA RESULT:      -8.1      2.286      3.144
REMARK  Name = 
REMARK  7 active torsions:
REMARK  status: ('A' for Active; 'I' for Inactive)
REMARK    1  A    between atoms: C_1  and  C_2
REMARK    2  A    between atoms: C_2  and  C_3
REMARK    3  A    between atoms: C_2  and  N_4
REMARK    4  A    between atoms: N_4  and  C_5
REMARK    5  A    between atoms: C_5  and  C_6
REMARK    6  A    between atoms: C_12  and  C_14
REMARK    7  A    between atoms: C_18  and  C_19
REMARK                            x       y       z     vdW  Elec       q    Type
REMARK                         _______ _______ _______ _____ _____    ______ ____
ROOT
ATOM      1  N   UNL     1       2.539   3.785  18.692  0.00  0.00    +0.000 N 
ATOM      2  C   UNL     1       3.783   3.260  18.268  0.00  0.00    +0.000 C 
ATOM      3  O   UNL     1       4.096   2.087  18.505  0.00  0.00    +0.000 OA
ENDROOT
BRANCH   2   4
ATOM      4  C   UNL     1       4.801   4.009  17.499  0.00  0.00    +0.000 A 
ATOM      5  C   UNL     1       4.963   3.640  16.153  0.00  0.00    +0.000 A 
ATOM      6  C   UNL     1       5.915   4.263  15.351  0.00  0.00    +0.000 A 
ATOM      7  C   UNL     1       6.693   5.286  15.885  0.00  0.00    +0.000 A 
ATOM      8  C   UNL     1       6.562   5.657  17.231  0.00  0.00    +0.000 A 
ATOM      9  C   UNL     1       5.654   4.966  18.050  0.00  0.00    +0.000 A 
BRANCH   8  10
ATOM     10  C   UNL     1       7.323   6.769  17.773  0.00  0.00    +0.000 A 
ATOM     11  C   UNL     1       7.481   8.099  17.318  0.00  0.00    +0.000 A 
ATOM     12  N   UNL     1       8.328   8.806  18.072  0.00  0.00    +0.000 NA
ATOM     13  N   UNL     1       8.715   7.934  19.015  0.00  0.00    +0.000 N 
ATOM     14  C   UNL     1       8.155   6.697  18.871  0.00  0.00    +0.000 A 
ATOM     15  H   UNL     1       9.372   8.247  19.720  0.00  0.00    +0.000 HD
ENDBRANCH   8  10
ENDBRANCH   2   4
BRANCH   1  17
ATOM     16  C   UNL     1       1.392   3.371  20.971  0.00  0.00    +0.000 C 
ATOM     17  C   UNL     1       1.808   2.843  19.596  0.00  0.00    +0.000 C 
ATOM     18  C   UNL     1       0.600   2.221  18.884  0.00  0.00    +0.000 C 
ENDBRANCH   1  17
BRANCH   1  19
ATOM     19  C   UNL     1       2.023   5.174  18.532  0.00  0.00    +0.000 C 
BRANCH  19  20
ATOM     20  C   UNL     1       2.844   6.388  19.052  0.00  0.00    +0.000 C 
ATOM     21  C   UNL     1       3.045   7.519  18.048  0.00  0.00    +0.000 C 
ATOM     22  C   UNL     1       1.884   8.479  18.300  0.00  0.00    +0.000 C 
ATOM     23  C   UNL     1       1.640   8.301  19.777  0.00  0.00    +0.000 C 
ATOM     24  O   UNL     1       1.053   9.064  20.521  0.00  0.00    +0.000 OA
ATOM     25  N   UNL     1       2.160   7.071  20.136  0.00  0.00    +0.000 N 
ATOM     26  H   UNL     1       2.154   6.791  21.111  0.00  0.00    +0.000 HD
ENDBRANCH  19  20
ENDBRANCH   1  19
TORSDOF 5
ENDMDL
MODEL 3
REMARK VINA RESULT:      -7.9      2.936      7.577
REMARK  Name = 
REMARK  7 active torsions:
REMARK  status: ('A' for Active; 'I' for Inactive)
REMARK    1  A    between atoms: C_1  and  C_2
REMARK    2  A    between atoms: C_2  and  C_3
REMARK    3  A    between atoms: C_2  and  N_4
REMARK    4  A    between atoms: N_4  and  C_5
REMARK    5  A    between atoms: C_5  and  C_6
REMARK    6  A    between atoms: C_12  and  C_14
REMARK    7  A    between atoms: C_18  and  C_19
REMARK                            x       y       z     vdW  Elec       q    Type
REMARK                         _______ _______ _______ _____ _____    ______ ____
ROOT
ATOM      1  N   UNL     1       3.323   4.432  19.735  0.00  0.00    +0.000 N 
ATOM      2  C   UNL     1       2.061   5.067  19.815  0.00  0.00    +0.000 C 
ATOM      3  O   UNL     1       1.031   4.417  20.034  0.00  0.00    +0.000 OA
ENDROOT
BRANCH   2   4
ATOM      4  C   UNL     1       1.835   6.523  19.680  0.00  0.00    +0.000 A 
ATOM      5  C   UNL     1       2.220   7.103  18.459  0.00  0.00    +0.000 A 
ATOM      6  C   UNL     1       2.076   8.470  18.241  0.00  0.00    +0.000 A 
ATOM      7  C   UNL     1       1.515   9.265  19.237  0.00  0.00    +0.000 A 
ATOM      8  C   UNL     1       1.142   8.710  20.470  0.00  0.00    +0.000 A 
ATOM      9  C   UNL     1       1.367   7.343  20.706  0.00  0.00    +0.000 A 
BRANCH   8  10
ATOM     10  C   UNL     1       0.493   9.522  21.484  0.00  0.00    +0.000 A 
ATOM     11  C   UNL     1       0.452   9.396  22.892  0.00  0.00    +0.000 A 
ATOM     12  N   UNL     1      -0.316  10.322  23.473  0.00  0.00    +0.000 NA
ATOM     13  N   UNL     1      -0.769  11.048  22.439  0.00  0.00    +0.000 N 
ATOM     14  C   UNL     1      -0.327  10.601  21.228  0.00  0.00    +0.000 A 
ATOM     15  H   UNL     1      -1.385  11.830  22.633  0.00  0.00    +0.000 HD
ENDBRANCH   8  10
ENDBRANCH   2   4
BRANCH   1  17
ATOM     16  C   UNL     1       2.997   2.252  18.384  0.00  0.00    +0.000 C 
ATOM     17  C   UNL     1       3.206   2.940  19.735  0.00  0.00    +0.000 C 
ATOM     18  C   UNL     1       4.381   2.294  20.478  0.00  0.00    +0.000 C 
ENDBRANCH   1  17
BRANCH   1  19
ATOM     19  C   UNL     1       4.647   5.048  19.437  0.00  0.00    +0.000 C 
BRANCH  19  20
ATOM     20  C   UNL     1       5.265   4.947  18.014  0.00  0.00    +0.000 C 
ATOM     21  C   UNL     1       5.911   6.226  17.488  0.00  0.00    +0.000 C 
ATOM     22  C   UNL     1       7.380   6.117  17.892  0.00  0.00    +0.000 C 
ATOM     23  C   UNL     1       7.611   4.628  17.851  0.00  0.00    +0.000 C 
ATOM     24  O   UNL     1       8.681   4.053  17.772  0.00  0.00    +0.000 OA
ATOM     25  N   UNL     1       6.378   4.015  17.978  0.00  0.00    +0.000 N 
ATOM     26  H   UNL     1       6.312   3.005  17.907  0.00  0.00    +0.000 HD
ENDBRANCH  19  20
ENDBRANCH   1  19
TORSDOF 5
ENDMDL
MODEL 4
REMARK VINA RESULT:      -7.9      2.734      7.198
REMARK  Name = 
REMARK  7 active torsions:
REMARK  status: ('A' for Active; 'I' for Inactive)
REMARK    1  A    between atoms: C_1  and  C_2
REMARK    2  A    between atoms: C_2  and  C_3
REMARK    3  A    between atoms: C_2  and  N_4
REMARK    4  A    between atoms: N_4  and  C_5
REMARK    5  A    between atoms: C_5  and  C_6
REMARK    6  A    between atoms: C_12  and  C_14
REMARK    7  A    between atoms: C_18  and  C_19
REMARK                            x       y       z     vdW  Elec       q    Type
REMARK                         _______ _______ _______ _____ _____    ______ ____
ROOT
ATOM      1  N   UNL     1       3.551   4.186  19.527  0.00  0.00    +0.000 N 
ATOM      2  C   UNL     1       2.288   4.819  19.602  0.00  0.00    +0.000 C 
ATOM      3  O   UNL     1       1.261   4.171  19.838  0.00  0.00    +0.000 OA
ENDROOT
BRANCH   2   4
ATOM      4  C   UNL     1       2.057   6.272  19.441  0.00  0.00    +0.000 A 
ATOM      5  C   UNL     1       2.373   6.819  18.186  0.00  0.00    +0.000 A 
ATOM      6  C   UNL     1       2.220   8.180  17.942  0.00  0.00    +0.000 A 
ATOM      7  C   UNL     1       1.717   9.002  18.946  0.00  0.00    +0.000 A 
ATOM      8  C   UNL     1       1.413   8.481  20.212  0.00  0.00    +0.000 A 
ATOM      9  C   UNL     1       1.649   7.120  20.471  0.00  0.00    +0.000 A 
BRANCH   8  10
ATOM     10  C   UNL     1       0.825   9.321  21.240  0.00  0.00    +0.000 A 
ATOM     11  C   UNL     1       0.810   9.197  22.649  0.00  0.00    +0.000 A 
ATOM     12  N   UNL     1       0.097  10.156  23.245  0.00  0.00    +0.000 NA
ATOM     13  N   UNL     1      -0.347  10.902  22.222  0.00  0.00    +0.000 N 
ATOM     14  C   UNL     1       0.047  10.435  21.001  0.00  0.00    +0.000 A 
ATOM     15  H   UNL     1      -0.924  11.710  22.429  0.00  0.00    +0.000 HD
ENDBRANCH   8  10
ENDBRANCH   2   4
BRANCH   1  17
ATOM     16  C   UNL     1       3.251   1.980  18.214  0.00  0.00    +0.000 C 
ATOM     17  C   UNL     1       3.438   2.694  19.555  0.00  0.00    +0.000 C 
ATOM     18  C   UNL     1       4.604   2.066  20.328  0.00  0.00    +0.000 C 
ENDBRANCH   1  17
BRANCH   1  19
ATOM     19  C   UNL     1       4.872   4.801  19.211  0.00  0.00    +0.000 C 
BRANCH  19  20
ATOM     20  C   UNL     1       5.613   4.448  17.891  0.00  0.00    +0.000 C 
ATOM     21  C   UNL     1       4.885   4.836  16.607  0.00  0.00    +0.000 C 
ATOM     22  C   UNL     1       5.406   6.231  16.267  0.00  0.00    +0.000 C 
ATOM     23  C   UNL     1       6.814   6.183  16.804  0.00  0.00    +0.000 C 
ATOM     24  O   UNL     1       7.740   6.911  16.500  0.00  0.00    +0.000 OA
ATOM     25  N   UNL     1       6.857   5.186  17.761  0.00  0.00    +0.000 N 
ATOM     26  H   UNL     1       7.742   4.951  18.198  0.00  0.00    +0.000 HD
ENDBRANCH  19  20
ENDBRANCH   1  19
TORSDOF 5
ENDMDL
MODEL 5
REMARK VINA RESULT:      -7.5      2.588      7.337
REMARK  Name = 
REMARK  7 active torsions:
REMARK  status: ('A' for Active; 'I' for Inactive)
REMARK    1  A    between atoms: C_1  and  C_2
REMARK    2  A    between atoms: C_2  and  C_3
REMARK    3  A    between atoms: C_2  and  N_4
REMARK    4  A    between atoms: N_4  and  C_5
REMARK    5  A    between atoms: C_5  and  C_6
REMARK    6  A    between atoms: C_12  and  C_14
REMARK    7  A    between atoms: C_18  and  C_19
REMARK                            x       y       z     vdW  Elec       q    Type
REMARK                         _______ _______ _______ _____ _____    ______ ____
ROOT
ATOM      1  N   UNL     1       3.627   4.291  19.404  0.00  0.00    +0.000 N 
ATOM      2  C   UNL     1       2.355   4.888  19.241  0.00  0.00    +0.000 C 
ATOM      3  O   UNL     1       1.334   4.198  19.132  0.00  0.00    +0.000 OA
ENDROOT
BRANCH   2   4
ATOM      4  C   UNL     1       2.099   6.345  19.212  0.00  0.00    +0.000 A 
ATOM      5  C   UNL     1       2.404   7.008  18.010  0.00  0.00    +0.000 A 
ATOM      6  C   UNL     1       2.227   8.382  17.889  0.00  0.00    +0.000 A 
ATOM      7  C   UNL     1       1.714   9.103  18.963  0.00  0.00    +0.000 A 
ATOM      8  C   UNL     1       1.422   8.466  20.178  0.00  0.00    +0.000 A 
ATOM      9  C   UNL     1       1.680   7.091  20.314  0.00  0.00    +0.000 A 
BRANCH   8  10
ATOM     10  C   UNL     1       0.823   9.201  21.278  0.00  0.00    +0.000 A 
ATOM     11  C   UNL     1       1.094   9.186  22.666  0.00  0.00    +0.000 A 
ATOM     12  N   UNL     1       0.268   9.970  23.363  0.00  0.00    +0.000 NA
ATOM     13  N   UNL     1      -0.536  10.494  22.425  0.00  0.00    +0.000 N 
ATOM     14  C   UNL     1      -0.256  10.054  21.164  0.00  0.00    +0.000 A 
ATOM     15  H   UNL     1      -1.262  11.138  22.718  0.00  0.00    +0.000 HD
ENDBRANCH   8  10
ENDBRANCH   2   4
BRANCH   1  17
ATOM     16  C   UNL     1       3.692   2.278  17.784  0.00  0.00    +0.000 C 
ATOM     17  C   UNL     1       3.583   2.807  19.216  0.00  0.00    +0.000 C 
ATOM     18  C   UNL     1       4.608   2.106  20.115  0.00  0.00    +0.000 C 
ENDBRANCH   1  17
BRANCH   1  19
ATOM     19  C   UNL     1       4.954   4.963  19.506  0.00  0.00    +0.000 C 
BRANCH  19  20
ATOM     20  C   UNL     1       5.553   5.720  18.287  0.00  0.00    +0.000 C 
ATOM     21  C   UNL     1       7.076   5.807  18.256  0.00  0.00    +0.000 C 
ATOM     22  C   UNL     1       7.521   4.594  17.441  0.00  0.00    +0.000 C 
ATOM     23  C   UNL     1       6.374   4.418  16.479  0.00  0.00    +0.000 C 
ATOM     24  O   UNL     1       6.385   3.810  15.426  0.00  0.00    +0.000 OA
ATOM     25  N   UNL     1       5.269   5.033  17.039  0.00  0.00    +0.000 N 
ATOM     26  H   UNL     1       4.404   5.083  16.511  0.00  0.00    +0.000 HD
ENDBRANCH  19  20
ENDBRANCH   1  19
TORSDOF 5
ENDMDL
MODEL 6
REMARK VINA RESULT:      -7.5      2.884      7.084
REMARK  Name = 
REMARK  7 active torsions:
REMARK  status: ('A' for Active; 'I' for Inactive)
REMARK    1  A    between atoms: C_1  and  C_2
REMARK    2  A    between atoms: C_2  and  C_3
REMARK    3  A    between atoms: C_2  and  N_4
REMARK    4  A    between atoms: N_4  and  C_5
REMARK    5  A    between atoms: C_5  and  C_6
REMARK    6  A    between atoms: C_12  and  C_14
REMARK    7  A    between atoms: C_18  and  C_19
REMARK                            x       y       z     vdW  Elec       q    Type
REMARK                         _______ _______ _______ _____ _____    ______ ____
ROOT
ATOM      1  N   UNL     1       3.359   3.883  18.884  0.00  0.00    +0.000 N 
ATOM      2  C   UNL     1       2.615   4.697  19.770  0.00  0.00    +0.000 C 
ATOM      3  O   UNL     1       2.188   4.251  20.842  0.00  0.00    +0.000 OA
ENDROOT
BRANCH   2   4
ATOM      4  C   UNL     1       2.297   6.124  19.545  0.00  0.00    +0.000 A 
ATOM      5  C   UNL     1       2.610   6.640  18.275  0.00  0.00    +0.000 A 
ATOM      6  C   UNL     1       2.377   7.977  17.971  0.00  0.00    +0.000 A 
ATOM      7  C   UNL     1       1.798   8.805  18.929  0.00  0.00    +0.000 A 
ATOM      8  C   UNL     1       1.495   8.316  20.208  0.00  0.00    +0.000 A 
ATOM      9  C   UNL     1       1.809   6.985  20.528  0.00  0.00    +0.000 A 
BRANCH   8  10
ATOM     10  C   UNL     1       0.828   9.157  21.187  0.00  0.00    +0.000 A 
ATOM     11  C   UNL     1       1.014   9.289  22.583  0.00  0.00    +0.000 A 
ATOM     12  N   UNL     1       0.145  10.135  23.142  0.00  0.00    +0.000 NA
ATOM     13  N   UNL     1      -0.600  10.552  22.108  0.00  0.00    +0.000 N 
ATOM     14  C   UNL     1      -0.243   9.985  20.919  0.00  0.00    +0.000 A 
ATOM     15  H   UNL     1      -1.344  11.217  22.287  0.00  0.00    +0.000 HD
ENDBRANCH   8  10
ENDBRANCH   2   4
BRANCH   1  17
ATOM     16  C   UNL     1       3.433   1.391  18.199  0.00  0.00    +0.000 C 
ATOM     17  C   UNL     1       3.362   2.447  19.305  0.00  0.00    +0.000 C 
ATOM     18  C   UNL     1       4.448   2.181  20.355  0.00  0.00    +0.000 C 
ENDBRANCH   1  17
BRANCH   1  19
ATOM     19  C   UNL     1       3.907   4.240  17.545  0.00  0.00    +0.000 C 
BRANCH  19  20
ATOM     20  C   UNL     1       5.443   4.317  17.314  0.00  0.00    +0.000 C 
ATOM     21  C   UNL     1       5.957   5.649  16.775  0.00  0.00    +0.000 C 
ATOM     22  C   UNL     1       6.327   6.457  18.016  0.00  0.00    +0.000 C 
ATOM     23  C   UNL     1       6.756   5.381  18.981  0.00  0.00    +0.000 C 
ATOM     24  O   UNL     1       7.440   5.519  19.977  0.00  0.00    +0.000 OA
ATOM     25  N   UNL     1       6.179   4.197  18.560  0.00  0.00    +0.000 N 
ATOM     26  H   UNL     1       6.401   3.333  19.044  0.00  0.00    +0.000 HD
ENDBRANCH  19  20
ENDBRANCH   1  19
TORSDOF 5
ENDMDL
MODEL 7
REMARK VINA RESULT:      -7.5      3.382      7.289
REMARK  Name = 
REMARK  7 active torsions:
REMARK  status: ('A' for Active; 'I' for Inactive)
REMARK    1  A    between atoms: C_1  and  C_2
REMARK    2  A    between atoms: C_2  and  C_3
REMARK    3  A    between atoms: C_2  and  N_4
REMARK    4  A    between atoms: N_4  and  C_5
REMARK    5  A    between atoms: C_5  and  C_6
REMARK    6  A    between atoms: C_12  and  C_14
REMARK    7  A    between atoms: C_18  and  C_19
REMARK                            x       y       z     vdW  Elec       q    Type
REMARK                         _______ _______ _______ _____ _____    ______ ____
ROOT
ATOM      1  N   UNL     1       3.106   4.734  18.080  0.00  0.00    +0.000 N 
ATOM      2  C   UNL     1       3.552   6.002  18.519  0.00  0.00    +0.000 C 
ATOM      3  O   UNL     1       4.753   6.224  18.718  0.00  0.00    +0.000 OA
ENDROOT
BRANCH   2   4
ATOM      4  C   UNL     1       2.679   7.173  18.756  0.00  0.00    +0.000 A 
ATOM      5  C   UNL     1       2.390   7.972  17.636  0.00  0.00    +0.000 A 
ATOM      6  C   UNL     1       1.602   9.112  17.758  0.00  0.00    +0.000 A 
ATOM      7  C   UNL     1       1.069   9.445  19.000  0.00  0.00    +0.000 A 
ATOM      8  C   UNL     1       1.360   8.673  20.134  0.00  0.00    +0.000 A 
ATOM      9  C   UNL     1       2.223   7.570  20.012  0.00  0.00    +0.000 A 
BRANCH   8  10
ATOM     10  C   UNL     1       0.751   8.978  21.417  0.00  0.00    +0.000 A 
ATOM     11  C   UNL     1       1.314   9.445  22.627  0.00  0.00    +0.000 A 
ATOM     12  N   UNL     1       0.417   9.540  23.612  0.00  0.00    +0.000 NA
ATOM     13  N   UNL     1      -0.726   9.136  23.037  0.00  0.00    +0.000 N 
ATOM     14  C   UNL     1      -0.576   8.773  21.730  0.00  0.00    +0.000 A 
ATOM     15  H   UNL     1      -1.570   9.122  23.599  0.00  0.00    +0.000 HD
ENDBRANCH   8  10
ENDBRANCH   2   4
BRANCH   1  17
ATOM     16  C   UNL     1       4.781   3.337  19.468  0.00  0.00    +0.000 C 
ATOM     17  C   UNL     1       4.199   3.711  18.103  0.00  0.00    +0.000 C 
ATOM     18  C   UNL     1       3.786   2.445  17.343  0.00  0.00    +0.000 C 
ENDBRANCH   1  17
BRANCH   1  19
ATOM     19  C   UNL     1       1.706   4.283  17.835  0.00  0.00    +0.000 C 
BRANCH  19  20
ATOM     20  C   UNL     1       0.780   3.899  19.023  0.00  0.00    +0.000 C 
ATOM     21  C   UNL     1       0.569   2.402  19.230  0.00  0.00    +0.000 C 
ATOM     22  C   UNL     1       1.649   1.989  20.228  0.00  0.00    +0.000 C 
ATOM     23  C   UNL     1       1.812   3.238  21.055  0.00  0.00    +0.000 C 
ATOM     24  O   UNL     1       2.303   3.325  22.165  0.00  0.00    +0.000 OA
ATOM     25  N   UNL     1       1.350   4.299  20.297  0.00  0.00    +0.000 N 
ATOM     26  H   UNL     1       1.314   5.227  20.706  0.00  0.00    +0.000 HD
ENDBRANCH  19  20
ENDBRANCH   1  19
TORSDOF 5
ENDMDL
MODEL 8
REMARK VINA RESULT:      -7.4      2.939      7.556
REMARK  Name = 
REMARK  7 active torsions:
REMARK  status: ('A' for Active; 'I' for Inactive)
REMARK    1  A    between atoms: C_1  and  C_2
REMARK    2  A    between atoms: C_2  and  C_3
REMARK    3  A    between atoms: C_2  and  N_4
REMARK    4  A    between atoms: N_4  and  C_5
REMARK    5  A    between atoms: C_5  and  C_6
REMARK    6  A    between atoms: C_12  and  C_14
REMARK    7  A    between atoms: C_18  and  C_19
REMARK                            x       y       z     vdW  Elec       q    Type
REMARK                         _______ _______ _______ _____ _____    ______ ____
ROOT
ATOM      1  N   UNL     1       3.326   4.644  20.016  0.00  0.00    +0.000 N 
ATOM      2  C   UNL     1       2.067   5.283  20.103  0.00  0.00    +0.000 C 
ATOM      3  O   UNL     1       1.060   4.665  20.467  0.00  0.00    +0.000 OA
ENDROOT
BRANCH   2   4
ATOM      4  C   UNL     1       1.820   6.712  19.808  0.00  0.00    +0.000 A 
ATOM      5  C   UNL     1       2.208   7.162  18.534  0.00  0.00    +0.000 A 
ATOM      6  C   UNL     1       2.046   8.495  18.168  0.00  0.00    +0.000 A 
ATOM      7  C   UNL     1       1.463   9.384  19.067  0.00  0.00    +0.000 A 
ATOM      8  C   UNL     1       1.087   8.961  20.350  0.00  0.00    +0.000 A 
ATOM      9  C   UNL     1       1.330   7.632  20.735  0.00  0.00    +0.000 A 
BRANCH   8  10
ATOM     10  C   UNL     1       0.417   9.868  21.265  0.00  0.00    +0.000 A 
ATOM     11  C   UNL     1       0.371  11.281  21.309  0.00  0.00    +0.000 A 
ATOM     12  N   UNL     1      -0.311  11.744  22.360  0.00  0.00    +0.000 NA
ATOM     13  N   UNL     1      -0.708  10.630  22.993  0.00  0.00    +0.000 N 
ATOM     14  C   UNL     1      -0.285   9.482  22.388  0.00  0.00    +0.000 A 
ATOM     15  H   UNL     1      -1.257  10.727  23.841  0.00  0.00    +0.000 HD
ENDBRANCH   8  10
ENDBRANCH   2   4
BRANCH   1  17
ATOM     16  C   UNL     1       2.578   2.664  21.500  0.00  0.00    +0.000 C 
ATOM     17  C   UNL     1       3.221   3.163  20.204  0.00  0.00    +0.000 C 
ATOM     18  C   UNL     1       2.551   2.498  18.995  0.00  0.00    +0.000 C 
ENDBRANCH   1  17
BRANCH   1  19
ATOM     19  C   UNL     1       4.623   5.219  19.558  0.00  0.00    +0.000 C 
BRANCH  19  20
ATOM     20  C   UNL     1       5.136   4.961  18.113  0.00  0.00    +0.000 C 
ATOM     21  C   UNL     1       5.723   6.177  17.401  0.00  0.00    +0.000 C 
ATOM     22  C   UNL     1       7.219   6.125  17.704  0.00  0.00    +0.000 C 
ATOM     23  C   UNL     1       7.470   4.643  17.815  0.00  0.00    +0.000 C 
ATOM     24  O   UNL     1       8.539   4.071  17.722  0.00  0.00    +0.000 OA
ATOM     25  N   UNL     1       6.259   4.040  18.101  0.00  0.00    +0.000 N 
ATOM     26  H   UNL     1       6.204   3.028  18.149  0.00  0.00    +0.000 HD
ENDBRANCH  19  20
ENDBRANCH   1  19
TORSDOF 5
ENDMDL
MODEL 9
REMARK VINA RESULT:      -7.3      2.984      7.324
REMARK  Name = 
REMARK  7 active torsions:
REMARK  status: ('A' for Active; 'I' for Inactive)
REMARK    1  A    between atoms: C_1  and  C_2
REMARK    2  A    between atoms: C_2  and  C_3
REMARK    3  A    between atoms: C_2  and  N_4
REMARK    4  A    between atoms: N_4  and  C_5
REMARK    5  A    between atoms: C_5  and  C_6
REMARK    6  A    between atoms: C_12  and  C_14
REMARK    7  A    between atoms: C_18  and  C_19
REMARK                            x       y       z     vdW  Elec       q    Type
REMARK                         _______ _______ _______ _____ _____    ______ ____
ROOT
ATOM      1  N   UNL     1       3.334   4.214  19.279  0.00  0.00    +0.000 N 
ATOM      2  C   UNL     1       2.242   4.929  19.824  0.00  0.00    +0.000 C 
ATOM      3  O   UNL     1       1.421   4.376  20.566  0.00  0.00    +0.000 OA
ENDROOT
BRANCH   2   4
ATOM      4  C   UNL     1       1.977   6.368  19.605  0.00  0.00    +0.000 A 
ATOM      5  C   UNL     1       2.249   6.864  18.318  0.00  0.00    +0.000 A 
ATOM      6  C   UNL     1       2.062   8.209  18.017  0.00  0.00    +0.000 A 
ATOM      7  C   UNL     1       1.569   9.067  18.997  0.00  0.00    +0.000 A 
ATOM      8  C   UNL     1       1.310   8.598  20.294  0.00  0.00    +0.000 A 
ATOM      9  C   UNL     1       1.580   7.255  20.606  0.00  0.00    +0.000 A 
BRANCH   8  10
ATOM     10  C   UNL     1       0.732   9.472  21.299  0.00  0.00    +0.000 A 
ATOM     11  C   UNL     1       0.490   9.274  22.678  0.00  0.00    +0.000 A 
ATOM     12  N   UNL     1      -0.125  10.313  23.250  0.00  0.00    +0.000 NA
ATOM     13  N   UNL     1      -0.279  11.183  22.240  0.00  0.00    +0.000 N 
ATOM     14  C   UNL     1       0.202  10.721  21.049  0.00  0.00    +0.000 A 
ATOM     15  H   UNL     1      -0.731  12.070  22.433  0.00  0.00    +0.000 HD
ENDBRANCH   8  10
ENDBRANCH   2   4
BRANCH   1  17
ATOM     16  C   UNL     1       2.921   1.841  18.339  0.00  0.00    +0.000 C 
ATOM     17  C   UNL     1       3.231   2.743  19.536  0.00  0.00    +0.000 C 
ATOM     18  C   UNL     1       4.468   2.225  20.280  0.00  0.00    +0.000 C 
ENDBRANCH   1  17
BRANCH   1  19
ATOM     19  C   UNL     1       4.382   4.707  18.341  0.00  0.00    +0.000 C 
BRANCH  19  20
ATOM     20  C   UNL     1       5.427   5.761  18.806  0.00  0.00    +0.000 C 
ATOM     21  C   UNL     1       6.738   5.190  19.339  0.00  0.00    +0.000 C 
ATOM     22  C   UNL     1       7.664   5.134  18.125  0.00  0.00    +0.000 C 
ATOM     23  C   UNL     1       7.185   6.305  17.306  0.00  0.00    +0.000 C 
ATOM     24  O   UNL     1       7.792   6.880  16.422  0.00  0.00    +0.000 OA
ATOM     25  N   UNL     1       5.888   6.581  17.700  0.00  0.00    +0.000 N 
ATOM     26  H   UNL     1       5.408   7.385  17.309  0.00  0.00    +0.000 HD
ENDBRANCH  19  20
ENDBRANCH   1  19
TORSDOF 5
ENDMDL
