MODEL 1
REMARK VINA RESULT:      -8.3      0.000      0.000
REMARK  Name = 
REMARK  6 active torsions:
REMARK  status: ('A' for Active; 'I' for Inactive)
REMARK    1  A    between atoms: C_2  and  C_3
REMARK    2  A    between atoms: C_7  and  C_8
REMARK    3  A    between atoms: C_11  and  S_12
REMARK    4  A    between atoms: S_12  and  C_15
REMARK    5  A    between atoms: C_18  and  N_19
REMARK    6  A    between atoms: C_23  and  C_24
REMARK                            x       y       z     vdW  Elec       q    Type
REMARK                         _______ _______ _______ _____ _____    ______ ____
ROOT
ATOM      1  C   UNL     1       0.688   9.863  19.674  0.00  0.00    +0.000 C 
ATOM      2  C   UNL     1       1.446   9.591  18.367  0.00  0.00    +0.000 C 
ATOM      3  C   UNL     1       1.605   8.095  18.103  0.00  0.00    +0.000 C 
ATOM      4  C   UNL     1       2.360   7.459  19.270  0.00  0.00    +0.000 C 
ATOM      5  C   UNL     1       1.500   7.570  20.529  0.00  0.00    +0.000 C 
ATOM      6  C   UNL     1       1.270   9.055  20.857  0.00  0.00    +0.000 C 
ENDROOT
BRANCH   4   7
ATOM      7  N   UNL     1       2.748   6.096  18.972  0.00  0.00    +0.000 N 
ATOM      8  C   UNL     1       3.649   5.773  17.975  0.00  0.00    +0.000 A 
ATOM      9  C   UNL     1       4.401   6.727  17.293  0.00  0.00    +0.000 A 
ATOM     10  C   UNL     1       5.324   6.341  16.325  0.00  0.00    +0.000 A 
ATOM     11  C   UNL     1       5.505   4.992  16.051  0.00  0.00    +0.000 A 
ATOM     12  C   UNL     1       4.719   4.099  16.766  0.00  0.00    +0.000 A 
ATOM     13  N   UNL     1       3.802   4.462  17.704  0.00  0.00    +0.000 NA
ATOM     14  H   UNL     1       2.190   5.310  19.282  0.00  0.00    +0.000 HD
BRANCH  11  15
ATOM     15  C   UNL     1       6.493   4.515  15.036  0.00  0.00    +0.000 C 
ATOM     16  F   UNL     1       6.607   5.349  13.962  0.00  0.00    +0.000 F 
ATOM     17  F   UNL     1       7.750   4.391  15.541  0.00  0.00    +0.000 F 
ATOM     18  F   UNL     1       6.172   3.296  14.522  0.00  0.00    +0.000 F 
ENDBRANCH  11  15
ENDBRANCH   4   7
BRANCH   1  19
ATOM     19  S   UNL     1       0.682  11.624  20.085  0.00  0.00    +0.000 S 
ATOM     20  O   UNL     1       1.151  12.363  18.928  0.00  0.00    +0.000 OA
ATOM     21  O   UNL     1       1.327  11.787  21.376  0.00  0.00    +0.000 OA
BRANCH  19  25
ATOM     22  C   UNL     1      -3.755  12.747  20.669  0.00  0.00    +0.000 A 
ATOM     23  C   UNL     1      -3.286  12.222  19.449  0.00  0.00    +0.000 A 
ATOM     24  C   UNL     1      -1.941  11.864  19.270  0.00  0.00    +0.000 A 
ATOM     25  C   UNL     1      -1.036  12.042  20.315  0.00  0.00    +0.000 A 
ATOM     26  C   UNL     1      -1.480  12.497  21.555  0.00  0.00    +0.000 A 
ATOM     27  C   UNL     1      -2.823  12.854  21.720  0.00  0.00    +0.000 A 
BRANCH  22  32
ATOM     28  C   UNL     1      -6.852  14.643  21.861  0.00  0.00    +0.000 A 
ATOM     29  C   UNL     1      -7.879  13.890  21.292  0.00  0.00    +0.000 A 
ATOM     30  C   UNL     1      -7.568  12.788  20.498  0.00  0.00    +0.000 A 
ATOM     31  C   UNL     1      -6.234  12.426  20.288  0.00  0.00    +0.000 A 
ATOM     32  C   UNL     1      -5.173  13.154  20.858  0.00  0.00    +0.000 A 
ATOM     33  C   UNL     1      -5.514  14.281  21.633  0.00  0.00    +0.000 A 
BRANCH  28  35
ATOM     34  N   UNL     1      -7.411  16.686  23.358  0.00  0.00    +0.000 NA
ATOM     35  C   UNL     1      -7.160  15.776  22.687  0.00  0.00    +0.000 C 
ENDBRANCH  28  35
ENDBRANCH  22  32
ENDBRANCH  19  25
ENDBRANCH   1  19
TORSDOF 6
ENDMDL
MODEL 2
REMARK VINA RESULT:      -8.3      6.436     10.146
REMARK  Name = 
REMARK  6 active torsions:
REMARK  status: ('A' for Active; 'I' for Inactive)
REMARK    1  A    between atoms: C_2  and  C_3
REMARK    2  A    between atoms: C_7  and  C_8
REMARK    3  A    between atoms: C_11  and  S_12
REMARK    4  A    between atoms: S_12  and  C_15
REMARK    5  A    between atoms: C_18  and  N_19
REMARK    6  A    between atoms: C_23  and  C_24
REMARK                            x       y       z     vdW  Elec       q    Type
REMARK                         _______ _______ _______ _____ _____    ______ ____
ROOT
ATOM      1  C   UNL     1       2.191  13.132  19.247  0.00  0.00    +0.000 C 
ATOM      2  C   UNL     1       2.030  14.166  18.124  0.00  0.00    +0.000 C 
ATOM      3  C   UNL     1       3.264  15.056  17.990  0.00  0.00    +0.000 C 
ATOM      4  C   UNL     1       3.505  15.778  19.316  0.00  0.00    +0.000 C 
ATOM      5  C   UNL     1       3.855  14.740  20.383  0.00  0.00    +0.000 C 
ATOM      6  C   UNL     1       2.666  13.782  20.566  0.00  0.00    +0.000 C 
ENDROOT
BRANCH   4   7
ATOM      7  N   UNL     1       4.513  16.809  19.183  0.00  0.00    +0.000 N 
ATOM      8  C   UNL     1       5.818  16.540  18.818  0.00  0.00    +0.000 A 
ATOM      9  C   UNL     1       6.239  15.290  18.369  0.00  0.00    +0.000 A 
ATOM     10  C   UNL     1       7.559  15.086  17.976  0.00  0.00    +0.000 A 
ATOM     11  C   UNL     1       8.457  16.144  18.018  0.00  0.00    +0.000 A 
ATOM     12  C   UNL     1       7.969  17.358  18.479  0.00  0.00    +0.000 A 
ATOM     13  N   UNL     1       6.686  17.569  18.881  0.00  0.00    +0.000 NA
ATOM     14  H   UNL     1       4.392  17.722  19.604  0.00  0.00    +0.000 HD
BRANCH  11  15
ATOM     15  C   UNL     1       9.882  15.992  17.593  0.00  0.00    +0.000 C 
ATOM     16  F   UNL     1      10.159  16.609  16.408  0.00  0.00    +0.000 F 
ATOM     17  F   UNL     1      10.760  16.512  18.493  0.00  0.00    +0.000 F 
ATOM     18  F   UNL     1      10.244  14.691  17.422  0.00  0.00    +0.000 F 
ENDBRANCH  11  15
ENDBRANCH   4   7
BRANCH   1  19
ATOM     19  S   UNL     1       0.656  12.220  19.537  0.00  0.00    +0.000 S 
ATOM     20  O   UNL     1      -0.236  12.463  18.418  0.00  0.00    +0.000 OA
ATOM     21  O   UNL     1       0.223  12.488  20.896  0.00  0.00    +0.000 OA
BRANCH  19  25
ATOM     22  C   UNL     1       1.896   7.778  19.391  0.00  0.00    +0.000 A 
ATOM     23  C   UNL     1       1.371   8.355  20.565  0.00  0.00    +0.000 A 
ATOM     24  C   UNL     1       0.978   9.701  20.611  0.00  0.00    +0.000 A 
ATOM     25  C   UNL     1       1.119  10.499  19.477  0.00  0.00    +0.000 A 
ATOM     26  C   UNL     1       1.573   9.943  18.282  0.00  0.00    +0.000 A 
ATOM     27  C   UNL     1       1.965   8.601  18.249  0.00  0.00    +0.000 A 
BRANCH  22  32
ATOM     28  C   UNL     1       2.408   4.108  20.324  0.00  0.00    +0.000 A 
ATOM     29  C   UNL     1       3.248   3.672  19.301  0.00  0.00    +0.000 A 
ATOM     30  C   UNL     1       3.624   4.556  18.292  0.00  0.00    +0.000 A 
ATOM     31  C   UNL     1       3.177   5.882  18.316  0.00  0.00    +0.000 A 
ATOM     32  C   UNL     1       2.340   6.360  19.342  0.00  0.00    +0.000 A 
ATOM     33  C   UNL     1       1.951   5.436  20.333  0.00  0.00    +0.000 A 
BRANCH  28  35
ATOM     34  N   UNL     1       1.703   2.485  22.222  0.00  0.00    +0.000 NA
ATOM     35  C   UNL     1       2.020   3.207  21.373  0.00  0.00    +0.000 C 
ENDBRANCH  28  35
ENDBRANCH  22  32
ENDBRANCH  19  25
ENDBRANCH   1  19
TORSDOF 6
ENDMDL
MODEL 3
REMARK VINA RESULT:      -8.3      1.265      1.470
REMARK  Name = 
REMARK  6 active torsions:
REMARK  status: ('A' for Active; 'I' for Inactive)
REMARK    1  A    between atoms: C_2  and  C_3
REMARK    2  A    between atoms: C_7  and  C_8
REMARK    3  A    between atoms: C_11  and  S_12
REMARK    4  A    between atoms: S_12  and  C_15
REMARK    5  A    between atoms: C_18  and  N_19
REMARK    6  A    between atoms: C_23  and  C_24
REMARK                            x       y       z     vdW  Elec       q    Type
REMARK                         _______ _______ _______ _____ _____    ______ ____
ROOT
ATOM      1  C   UNL     1       0.698  10.358  19.704  0.00  0.00    +0.000 C 
ATOM      2  C   UNL     1       1.406  10.043  18.378  0.00  0.00    +0.000 C 
ATOM      3  C   UNL     1       1.420   8.545  18.084  0.00  0.00    +0.000 C 
ATOM      4  C   UNL     1       2.133   7.818  19.225  0.00  0.00    +0.000 C 
ATOM      5  C   UNL     1       1.307   7.984  20.502  0.00  0.00    +0.000 C 
ATOM      6  C   UNL     1       1.222   9.477  20.860  0.00  0.00    +0.000 C 
ENDROOT
BRANCH   4   7
ATOM      7  N   UNL     1       2.387   6.431  18.895  0.00  0.00    +0.000 N 
ATOM      8  C   UNL     1       3.364   6.040  18.000  0.00  0.00    +0.000 A 
ATOM      9  C   UNL     1       4.309   6.919  17.476  0.00  0.00    +0.000 A 
ATOM     10  C   UNL     1       5.296   6.461  16.607  0.00  0.00    +0.000 A 
ATOM     11  C   UNL     1       5.346   5.113  16.276  0.00  0.00    +0.000 A 
ATOM     12  C   UNL     1       4.371   4.298  16.833  0.00  0.00    +0.000 A 
ATOM     13  N   UNL     1       3.390   4.734  17.671  0.00  0.00    +0.000 NA
ATOM     14  H   UNL     1       1.701   5.710  19.086  0.00  0.00    +0.000 HD
BRANCH  11  15
ATOM     15  C   UNL     1       6.392   4.559  15.364  0.00  0.00    +0.000 C 
ATOM     16  F   UNL     1       7.629   4.503  15.936  0.00  0.00    +0.000 F 
ATOM     17  F   UNL     1       6.118   3.290  14.956  0.00  0.00    +0.000 F 
ATOM     18  F   UNL     1       6.544   5.295  14.230  0.00  0.00    +0.000 F 
ENDBRANCH  11  15
ENDBRANCH   4   7
BRANCH   1  19
ATOM     19  S   UNL     1       0.862  12.104  20.147  0.00  0.00    +0.000 S 
ATOM     20  O   UNL     1       1.005  12.872  18.924  0.00  0.00    +0.000 OA
ATOM     21  O   UNL     1       1.852  12.209  21.203  0.00  0.00    +0.000 OA
BRANCH  19  25
ATOM     22  C   UNL     1      -3.181  13.300  22.022  0.00  0.00    +0.000 A 
ATOM     23  C   UNL     1      -2.966  13.375  20.631  0.00  0.00    +0.000 A 
ATOM     24  C   UNL     1      -1.744  12.998  20.053  0.00  0.00    +0.000 A 
ATOM     25  C   UNL     1      -0.706  12.550  20.868  0.00  0.00    +0.000 A 
ATOM     26  C   UNL     1      -0.907  12.402  22.239  0.00  0.00    +0.000 A 
ATOM     27  C   UNL     1      -2.129  12.784  22.804  0.00  0.00    +0.000 A 
BRANCH  22  32
ATOM     28  C   UNL     1      -5.918  15.483  23.553  0.00  0.00    +0.000 A 
ATOM     29  C   UNL     1      -6.872  14.530  23.908  0.00  0.00    +0.000 A 
ATOM     30  C   UNL     1      -6.644  13.186  23.623  0.00  0.00    +0.000 A 
ATOM     31  C   UNL     1      -5.454  12.790  23.003  0.00  0.00    +0.000 A 
ATOM     32  C   UNL     1      -4.463  13.722  22.644  0.00  0.00    +0.000 A 
ATOM     33  C   UNL     1      -4.732  15.079  22.917  0.00  0.00    +0.000 A 
BRANCH  28  35
ATOM     34  N   UNL     1      -6.310  17.991  24.087  0.00  0.00    +0.000 NA
ATOM     35  C   UNL     1      -6.139  16.871  23.849  0.00  0.00    +0.000 C 
ENDBRANCH  28  35
ENDBRANCH  22  32
ENDBRANCH  19  25
ENDBRANCH   1  19
TORSDOF 6
ENDMDL
MODEL 4
REMARK VINA RESULT:      -8.3      0.940      1.114
REMARK  Name = 
REMARK  6 active torsions:
REMARK  status: ('A' for Active; 'I' for Inactive)
REMARK    1  A    between atoms: C_2  and  C_3
REMARK    2  A    between atoms: C_7  and  C_8
REMARK    3  A    between atoms: C_11  and  S_12
REMARK    4  A    between atoms: S_12  and  C_15
REMARK    5  A    between atoms: C_18  and  N_19
REMARK    6  A    between atoms: C_23  and  C_24
REMARK                            x       y       z     vdW  Elec       q    Type
REMARK                         _______ _______ _______ _____ _____    ______ ____
ROOT
ATOM      1  C   UNL     1       0.822   9.472  19.628  0.00  0.00    +0.000 C 
ATOM      2  C   UNL     1       1.704   9.297  18.383  0.00  0.00    +0.000 C 
ATOM      3  C   UNL     1       1.926   7.824  18.047  0.00  0.00    +0.000 C 
ATOM      4  C   UNL     1       2.587   7.133  19.240  0.00  0.00    +0.000 C 
ATOM      5  C   UNL     1       1.612   7.148  20.418  0.00  0.00    +0.000 C 
ATOM      6  C   UNL     1       1.314   8.605  20.810  0.00  0.00    +0.000 C 
ENDROOT
BRANCH   4   7
ATOM      7  N   UNL     1       3.036   5.799  18.899  0.00  0.00    +0.000 N 
ATOM      8  C   UNL     1       3.813   5.530  17.789  0.00  0.00    +0.000 A 
ATOM      9  C   UNL     1       4.387   6.528  17.003  0.00  0.00    +0.000 A 
ATOM     10  C   UNL     1       5.195   6.198  15.918  0.00  0.00    +0.000 A 
ATOM     11  C   UNL     1       5.442   4.862  15.629  0.00  0.00    +0.000 A 
ATOM     12  C   UNL     1       4.835   3.924  16.452  0.00  0.00    +0.000 A 
ATOM     13  N   UNL     1       4.030   4.231  17.506  0.00  0.00    +0.000 NA
ATOM     14  H   UNL     1       2.590   4.977  19.288  0.00  0.00    +0.000 HD
BRANCH  11  15
ATOM     15  C   UNL     1       6.315   4.446  14.490  0.00  0.00    +0.000 C 
ATOM     16  F   UNL     1       7.513   5.097  14.464  0.00  0.00    +0.000 F 
ATOM     17  F   UNL     1       6.618   3.120  14.514  0.00  0.00    +0.000 F 
ATOM     18  F   UNL     1       5.744   4.680  13.277  0.00  0.00    +0.000 F 
ENDBRANCH  11  15
ENDBRANCH   4   7
BRANCH   1  19
ATOM     19  S   UNL     1       0.732  11.204  20.141  0.00  0.00    +0.000 S 
ATOM     20  O   UNL     1       1.483  12.000  19.188  0.00  0.00    +0.000 OA
ATOM     21  O   UNL     1       1.035  11.270  21.559  0.00  0.00    +0.000 OA
BRANCH  19  25
ATOM     22  C   UNL     1      -3.698  12.403  19.660  0.00  0.00    +0.000 A 
ATOM     23  C   UNL     1      -3.061  11.557  18.729  0.00  0.00    +0.000 A 
ATOM     24  C   UNL     1      -1.719  11.177  18.878  0.00  0.00    +0.000 A 
ATOM     25  C   UNL     1      -0.985  11.653  19.963  0.00  0.00    +0.000 A 
ATOM     26  C   UNL     1      -1.602  12.436  20.936  0.00  0.00    +0.000 A 
ATOM     27  C   UNL     1      -2.940  12.812  20.775  0.00  0.00    +0.000 A 
BRANCH  22  32
ATOM     28  C   UNL     1      -6.989  14.290  20.125  0.00  0.00    +0.000 A 
ATOM     29  C   UNL     1      -7.830  13.606  19.249  0.00  0.00    +0.000 A 
ATOM     30  C   UNL     1      -7.326  12.556  18.484  0.00  0.00    +0.000 A 
ATOM     31  C   UNL     1      -5.987  12.175  18.610  0.00  0.00    +0.000 A 
ATOM     32  C   UNL     1      -5.112  12.832  19.495  0.00  0.00    +0.000 A 
ATOM     33  C   UNL     1      -5.641  13.910  20.234  0.00  0.00    +0.000 A 
BRANCH  28  35
ATOM     34  N   UNL     1      -7.916  16.236  21.567  0.00  0.00    +0.000 NA
ATOM     35  C   UNL     1      -7.499  15.369  20.924  0.00  0.00    +0.000 C 
ENDBRANCH  28  35
ENDBRANCH  22  32
ENDBRANCH  19  25
ENDBRANCH   1  19
TORSDOF 6
ENDMDL
MODEL 5
REMARK VINA RESULT:      -8.2      6.414     10.107
REMARK  Name = 
REMARK  6 active torsions:
REMARK  status: ('A' for Active; 'I' for Inactive)
REMARK    1  A    between atoms: C_2  and  C_3
REMARK    2  A    between atoms: C_7  and  C_8
REMARK    3  A    between atoms: C_11  and  S_12
REMARK    4  A    between atoms: S_12  and  C_15
REMARK    5  A    between atoms: C_18  and  N_19
REMARK    6  A    between atoms: C_23  and  C_24
REMARK                            x       y       z     vdW  Elec       q    Type
REMARK                         _______ _______ _______ _____ _____    ______ ____
ROOT
ATOM      1  C   UNL     1       2.280  13.038  19.531  0.00  0.00    +0.000 C 
ATOM      2  C   UNL     1       2.039  14.013  18.369  0.00  0.00    +0.000 C 
ATOM      3  C   UNL     1       3.249  14.912  18.122  0.00  0.00    +0.000 C 
ATOM      4  C   UNL     1       3.552  15.703  19.395  0.00  0.00    +0.000 C 
ATOM      5  C   UNL     1       3.978  14.724  20.490  0.00  0.00    +0.000 C 
ATOM      6  C   UNL     1       2.817  13.760  20.787  0.00  0.00    +0.000 C 
ENDROOT
BRANCH   4   7
ATOM      7  N   UNL     1       4.534  16.740  19.154  0.00  0.00    +0.000 N 
ATOM      8  C   UNL     1       5.844  16.467  18.811  0.00  0.00    +0.000 A 
ATOM      9  C   UNL     1       6.295  15.189  18.487  0.00  0.00    +0.000 A 
ATOM     10  C   UNL     1       7.618  14.979  18.110  0.00  0.00    +0.000 A 
ATOM     11  C   UNL     1       8.490  16.058  18.042  0.00  0.00    +0.000 A 
ATOM     12  C   UNL     1       7.974  17.300  18.382  0.00  0.00    +0.000 A 
ATOM     13  N   UNL     1       6.686  17.518  18.768  0.00  0.00    +0.000 NA
ATOM     14  H   UNL     1       4.391  17.687  19.483  0.00  0.00    +0.000 HD
BRANCH  11  15
ATOM     15  C   UNL     1       9.918  15.899  17.627  0.00  0.00    +0.000 C 
ATOM     16  F   UNL     1      10.275  14.599  17.418  0.00  0.00    +0.000 F 
ATOM     17  F   UNL     1      10.205  16.551  16.467  0.00  0.00    +0.000 F 
ATOM     18  F   UNL     1      10.791  16.376  18.554  0.00  0.00    +0.000 F 
ENDBRANCH  11  15
ENDBRANCH   4   7
BRANCH   1  19
ATOM     19  S   UNL     1       0.779  12.121  19.951  0.00  0.00    +0.000 S 
ATOM     20  O   UNL     1      -0.234  12.425  18.957  0.00  0.00    +0.000 OA
ATOM     21  O   UNL     1       0.509  12.322  21.363  0.00  0.00    +0.000 OA
BRANCH  19  25
ATOM     22  C   UNL     1       1.858   7.665  19.428  0.00  0.00    +0.000 A 
ATOM     23  C   UNL     1       1.977   8.580  18.362  0.00  0.00    +0.000 A 
ATOM     24  C   UNL     1       1.666   9.938  18.518  0.00  0.00    +0.000 A 
ATOM     25  C   UNL     1       1.213  10.403  19.752  0.00  0.00    +0.000 A 
ATOM     26  C   UNL     1       1.146   9.539  20.844  0.00  0.00    +0.000 A 
ATOM     27  C   UNL     1       1.455   8.185  20.674  0.00  0.00    +0.000 A 
BRANCH  22  32
ATOM     28  C   UNL     1       2.238   3.936  20.171  0.00  0.00    +0.000 A 
ATOM     29  C   UNL     1       2.811   3.471  18.987  0.00  0.00    +0.000 A 
ATOM     30  C   UNL     1       3.045   4.357  17.938  0.00  0.00    +0.000 A 
ATOM     31  C   UNL     1       2.726   5.712  18.077  0.00  0.00    +0.000 A 
ATOM     32  C   UNL     1       2.161   6.219  19.262  0.00  0.00    +0.000 A 
ATOM     33  C   UNL     1       1.907   5.295  20.297  0.00  0.00    +0.000 A 
BRANCH  28  35
ATOM     34  N   UNL     1       1.808   2.310  22.145  0.00  0.00    +0.000 NA
ATOM     35  C   UNL     1       2.000   3.033  21.262  0.00  0.00    +0.000 C 
ENDBRANCH  28  35
ENDBRANCH  22  32
ENDBRANCH  19  25
ENDBRANCH   1  19
TORSDOF 6
ENDMDL
MODEL 6
REMARK VINA RESULT:      -8.2      6.307     10.756
REMARK  Name = 
REMARK  6 active torsions:
REMARK  status: ('A' for Active; 'I' for Inactive)
REMARK    1  A    between atoms: C_2  and  C_3
REMARK    2  A    between atoms: C_7  and  C_8
REMARK    3  A    between atoms: C_11  and  S_12
REMARK    4  A    between atoms: S_12  and  C_15
REMARK    5  A    between atoms: C_18  and  N_19
REMARK    6  A    between atoms: C_23  and  C_24
REMARK                            x       y       z     vdW  Elec       q    Type
REMARK                         _______ _______ _______ _____ _____    ______ ____
ROOT
ATOM      1  C   UNL     1       0.744  12.767  19.313  0.00  0.00    +0.000 C 
ATOM      2  C   UNL     1       0.613  14.085  20.089  0.00  0.00    +0.000 C 
ATOM      3  C   UNL     1       1.349  15.229  19.394  0.00  0.00    +0.000 C 
ATOM      4  C   UNL     1       2.827  14.863  19.259  0.00  0.00    +0.000 C 
ATOM      5  C   UNL     1       2.951  13.659  18.323  0.00  0.00    +0.000 C 
ATOM      6  C   UNL     1       2.212  12.460  18.940  0.00  0.00    +0.000 C 
ENDROOT
BRANCH   4   7
ATOM      7  N   UNL     1       3.618  15.996  18.825  0.00  0.00    +0.000 N 
ATOM      8  C   UNL     1       4.954  16.145  19.143  0.00  0.00    +0.000 A 
ATOM      9  C   UNL     1       5.707  15.140  19.748  0.00  0.00    +0.000 A 
ATOM     10  C   UNL     1       7.061  15.331  20.010  0.00  0.00    +0.000 A 
ATOM     11  C   UNL     1       7.666  16.527  19.649  0.00  0.00    +0.000 A 
ATOM     12  C   UNL     1       6.855  17.482  19.054  0.00  0.00    +0.000 A 
ATOM     13  N   UNL     1       5.526  17.317  18.807  0.00  0.00    +0.000 NA
ATOM     14  H   UNL     1       3.180  16.853  18.508  0.00  0.00    +0.000 HD
BRANCH  11  15
ATOM     15  C   UNL     1       9.120  16.784  19.887  0.00  0.00    +0.000 C 
ATOM     16  F   UNL     1       9.394  17.178  21.164  0.00  0.00    +0.000 F 
ATOM     17  F   UNL     1       9.892  15.685  19.667  0.00  0.00    +0.000 F 
ATOM     18  F   UNL     1       9.619  17.763  19.085  0.00  0.00    +0.000 F 
ENDBRANCH  11  15
ENDBRANCH   4   7
BRANCH   1  19
ATOM     19  S   UNL     1       0.048  11.378  20.238  0.00  0.00    +0.000 S 
ATOM     20  O   UNL     1      -1.356  11.258  19.891  0.00  0.00    +0.000 OA
ATOM     21  O   UNL     1       0.455  11.513  21.625  0.00  0.00    +0.000 OA
BRANCH  19  25
ATOM     22  C   UNL     1       2.225   7.659  18.588  0.00  0.00    +0.000 A 
ATOM     23  C   UNL     1       1.947   7.797  19.963  0.00  0.00    +0.000 A 
ATOM     24  C   UNL     1       1.272   8.918  20.469  0.00  0.00    +0.000 A 
ATOM     25  C   UNL     1       0.874   9.933  19.600  0.00  0.00    +0.000 A 
ATOM     26  C   UNL     1       1.074   9.797  18.228  0.00  0.00    +0.000 A 
ATOM     27  C   UNL     1       1.752   8.676  17.735  0.00  0.00    +0.000 A 
BRANCH  22  32
ATOM     28  C   UNL     1       4.947   5.532  16.955  0.00  0.00    +0.000 A 
ATOM     29  C   UNL     1       4.348   4.273  16.939  0.00  0.00    +0.000 A 
ATOM     30  C   UNL     1       3.077   4.106  17.485  0.00  0.00    +0.000 A 
ATOM     31  C   UNL     1       2.395   5.200  18.028  0.00  0.00    +0.000 A 
ATOM     32  C   UNL     1       2.963   6.488  18.048  0.00  0.00    +0.000 A 
ATOM     33  C   UNL     1       4.262   6.622  17.516  0.00  0.00    +0.000 A 
BRANCH  28  35
ATOM     34  N   UNL     1       7.309   5.869  15.937  0.00  0.00    +0.000 NA
ATOM     35  C   UNL     1       6.253   5.717  16.388  0.00  0.00    +0.000 C 
ENDBRANCH  28  35
ENDBRANCH  22  32
ENDBRANCH  19  25
ENDBRANCH   1  19
TORSDOF 6
ENDMDL
MODEL 7
REMARK VINA RESULT:      -8.1      6.340     10.721
REMARK  Name = 
REMARK  6 active torsions:
REMARK  status: ('A' for Active; 'I' for Inactive)
REMARK    1  A    between atoms: C_2  and  C_3
REMARK    2  A    between atoms: C_7  and  C_8
REMARK    3  A    between atoms: C_11  and  S_12
REMARK    4  A    between atoms: S_12  and  C_15
REMARK    5  A    between atoms: C_18  and  N_19
REMARK    6  A    between atoms: C_23  and  C_24
REMARK                            x       y       z     vdW  Elec       q    Type
REMARK                         _______ _______ _______ _____ _____    ______ ____
ROOT
ATOM      1  C   UNL     1       2.262  12.667  19.589  0.00  0.00    +0.000 C 
ATOM      2  C   UNL     1       2.019  13.528  18.341  0.00  0.00    +0.000 C 
ATOM      3  C   UNL     1       3.119  14.569  18.146  0.00  0.00    +0.000 C 
ATOM      4  C   UNL     1       3.181  15.468  19.381  0.00  0.00    +0.000 C 
ATOM      5  C   UNL     1       3.615  14.624  20.580  0.00  0.00    +0.000 C 
ATOM      6  C   UNL     1       2.566  13.529  20.835  0.00  0.00    +0.000 C 
ENDROOT
BRANCH   4   7
ATOM      7  N   UNL     1       4.038  16.614  19.160  0.00  0.00    +0.000 N 
ATOM      8  C   UNL     1       5.400  16.505  18.952  0.00  0.00    +0.000 A 
ATOM      9  C   UNL     1       6.042  15.284  18.754  0.00  0.00    +0.000 A 
ATOM     10  C   UNL     1       7.411  15.236  18.510  0.00  0.00    +0.000 A 
ATOM     11  C   UNL     1       8.138  16.417  18.448  0.00  0.00    +0.000 A 
ATOM     12  C   UNL     1       7.434  17.594  18.658  0.00  0.00    +0.000 A 
ATOM     13  N   UNL     1       6.098  17.656  18.914  0.00  0.00    +0.000 NA
ATOM     14  H   UNL     1       3.742  17.550  19.412  0.00  0.00    +0.000 HD
BRANCH  11  15
ATOM     15  C   UNL     1       9.607  16.431  18.171  0.00  0.00    +0.000 C 
ATOM     16  F   UNL     1       9.965  15.628  17.128  0.00  0.00    +0.000 F 
ATOM     17  F   UNL     1      10.073  17.671  17.858  0.00  0.00    +0.000 F 
ATOM     18  F   UNL     1      10.346  16.008  19.232  0.00  0.00    +0.000 F 
ENDBRANCH  11  15
ENDBRANCH   4   7
BRANCH   1  19
ATOM     19  S   UNL     1       0.859  11.578  19.930  0.00  0.00    +0.000 S 
ATOM     20  O   UNL     1      -0.245  11.977  19.077  0.00  0.00    +0.000 OA
ATOM     21  O   UNL     1       0.688  11.502  21.369  0.00  0.00    +0.000 OA
BRANCH  19  25
ATOM     22  C   UNL     1       2.256   7.404  18.545  0.00  0.00    +0.000 A 
ATOM     23  C   UNL     1       1.757   7.617  19.846  0.00  0.00    +0.000 A 
ATOM     24  C   UNL     1       1.317   8.880  20.268  0.00  0.00    +0.000 A 
ATOM     25  C   UNL     1       1.383   9.961  19.390  0.00  0.00    +0.000 A 
ATOM     26  C   UNL     1       1.809   9.772  18.077  0.00  0.00    +0.000 A 
ATOM     27  C   UNL     1       2.250   8.508  17.669  0.00  0.00    +0.000 A 
BRANCH  22  32
ATOM     28  C   UNL     1       4.539   4.658  17.184  0.00  0.00    +0.000 A 
ATOM     29  C   UNL     1       3.679   3.561  17.167  0.00  0.00    +0.000 A 
ATOM     30  C   UNL     1       2.371   3.701  17.625  0.00  0.00    +0.000 A 
ATOM     31  C   UNL     1       1.914   4.943  18.081  0.00  0.00    +0.000 A 
ATOM     32  C   UNL     1       2.750   6.075  18.099  0.00  0.00    +0.000 A 
ATOM     33  C   UNL     1       4.078   5.897  17.658  0.00  0.00    +0.000 A 
BRANCH  28  35
ATOM     34  N   UNL     1       6.973   4.424  16.318  0.00  0.00    +0.000 NA
ATOM     35  C   UNL     1       5.887   4.526  16.708  0.00  0.00    +0.000 C 
ENDBRANCH  28  35
ENDBRANCH  22  32
ENDBRANCH  19  25
ENDBRANCH   1  19
TORSDOF 6
ENDMDL
MODEL 8
REMARK VINA RESULT:      -8.1      6.203     10.635
REMARK  Name = 
REMARK  6 active torsions:
REMARK  status: ('A' for Active; 'I' for Inactive)
REMARK    1  A    between atoms: C_2  and  C_3
REMARK    2  A    between atoms: C_7  and  C_8
REMARK    3  A    between atoms: C_11  and  S_12
REMARK    4  A    between atoms: S_12  and  C_15
REMARK    5  A    between atoms: C_18  and  N_19
REMARK    6  A    between atoms: C_23  and  C_24
REMARK                            x       y       z     vdW  Elec       q    Type
REMARK                         _______ _______ _______ _____ _____    ______ ____
ROOT
ATOM      1  C   UNL     1       0.744  12.848  19.296  0.00  0.00    +0.000 C 
ATOM      2  C   UNL     1       0.668  14.130  20.137  0.00  0.00    +0.000 C 
ATOM      3  C   UNL     1       1.400  15.292  19.469  0.00  0.00    +0.000 C 
ATOM      4  C   UNL     1       2.865  14.907  19.260  0.00  0.00    +0.000 C 
ATOM      5  C   UNL     1       2.929  13.747  18.265  0.00  0.00    +0.000 C 
ATOM      6  C   UNL     1       2.191  12.533  18.854  0.00  0.00    +0.000 C 
ENDROOT
BRANCH   4   7
ATOM      7  N   UNL     1       3.660  16.045  18.849  0.00  0.00    +0.000 N 
ATOM      8  C   UNL     1       5.029  16.106  19.024  0.00  0.00    +0.000 A 
ATOM      9  C   UNL     1       5.791  15.015  19.439  0.00  0.00    +0.000 A 
ATOM     10  C   UNL     1       7.173  15.123  19.560  0.00  0.00    +0.000 A 
ATOM     11  C   UNL     1       7.797  16.324  19.249  0.00  0.00    +0.000 A 
ATOM     12  C   UNL     1       6.976  17.367  18.847  0.00  0.00    +0.000 A 
ATOM     13  N   UNL     1       5.621  17.281  18.738  0.00  0.00    +0.000 NA
ATOM     14  H   UNL     1       3.236  16.946  18.668  0.00  0.00    +0.000 HD
BRANCH  11  15
ATOM     15  C   UNL     1       9.279  16.495  19.342  0.00  0.00    +0.000 C 
ATOM     16  F   UNL     1       9.886  16.599  18.126  0.00  0.00    +0.000 F 
ATOM     17  F   UNL     1       9.639  17.613  20.030  0.00  0.00    +0.000 F 
ATOM     18  F   UNL     1       9.890  15.454  19.970  0.00  0.00    +0.000 F 
ENDBRANCH  11  15
ENDBRANCH   4   7
BRANCH   1  19
ATOM     19  S   UNL     1       0.056  11.430  20.182  0.00  0.00    +0.000 S 
ATOM     20  O   UNL     1      -1.333  11.277  19.789  0.00  0.00    +0.000 OA
ATOM     21  O   UNL     1       0.415  11.557  21.583  0.00  0.00    +0.000 OA
BRANCH  19  25
ATOM     22  C   UNL     1       2.304   7.747  18.547  0.00  0.00    +0.000 A 
ATOM     23  C   UNL     1       2.004   8.850  17.722  0.00  0.00    +0.000 A 
ATOM     24  C   UNL     1       1.334   9.979  18.217  0.00  0.00    +0.000 A 
ATOM     25  C   UNL     1       0.940  10.015  19.553  0.00  0.00    +0.000 A 
ATOM     26  C   UNL     1       1.278   8.970  20.411  0.00  0.00    +0.000 A 
ATOM     27  C   UNL     1       1.943   7.848  19.905  0.00  0.00    +0.000 A 
BRANCH  22  32
ATOM     28  C   UNL     1       4.900   5.486  16.888  0.00  0.00    +0.000 A 
ATOM     29  C   UNL     1       4.270   4.244  16.948  0.00  0.00    +0.000 A 
ATOM     30  C   UNL     1       3.020   4.132  17.553  0.00  0.00    +0.000 A 
ATOM     31  C   UNL     1       2.389   5.264  18.079  0.00  0.00    +0.000 A 
ATOM     32  C   UNL     1       2.989   6.536  18.024  0.00  0.00    +0.000 A 
ATOM     33  C   UNL     1       4.267   6.616  17.433  0.00  0.00    +0.000 A 
BRANCH  28  35
ATOM     34  N   UNL     1       7.225   5.717  15.761  0.00  0.00    +0.000 NA
ATOM     35  C   UNL     1       6.186   5.615  16.261  0.00  0.00    +0.000 C 
ENDBRANCH  28  35
ENDBRANCH  22  32
ENDBRANCH  19  25
ENDBRANCH   1  19
TORSDOF 6
ENDMDL
MODEL 9
REMARK VINA RESULT:      -8.0      6.284     10.695
REMARK  Name = 
REMARK  6 active torsions:
REMARK  status: ('A' for Active; 'I' for Inactive)
REMARK    1  A    between atoms: C_2  and  C_3
REMARK    2  A    between atoms: C_7  and  C_8
REMARK    3  A    between atoms: C_11  and  S_12
REMARK    4  A    between atoms: S_12  and  C_15
REMARK    5  A    between atoms: C_18  and  N_19
REMARK    6  A    between atoms: C_23  and  C_24
REMARK                            x       y       z     vdW  Elec       q    Type
REMARK                         _______ _______ _______ _____ _____    ______ ____
ROOT
ATOM      1  C   UNL     1       2.157  12.562  19.473  0.00  0.00    +0.000 C 
ATOM      2  C   UNL     1       2.045  13.382  18.180  0.00  0.00    +0.000 C 
ATOM      3  C   UNL     1       3.143  14.440  18.081  0.00  0.00    +0.000 C 
ATOM      4  C   UNL     1       3.046  15.375  19.287  0.00  0.00    +0.000 C 
ATOM      5  C   UNL     1       3.352  14.574  20.554  0.00  0.00    +0.000 C 
ATOM      6  C   UNL     1       2.299  13.465  20.719  0.00  0.00    +0.000 C 
ENDROOT
BRANCH   4   7
ATOM      7  N   UNL     1       3.903  16.532  19.132  0.00  0.00    +0.000 N 
ATOM      8  C   UNL     1       5.269  16.435  18.953  0.00  0.00    +0.000 A 
ATOM      9  C   UNL     1       5.921  15.225  18.721  0.00  0.00    +0.000 A 
ATOM     10  C   UNL     1       7.296  15.191  18.507  0.00  0.00    +0.000 A 
ATOM     11  C   UNL     1       8.019  16.377  18.510  0.00  0.00    +0.000 A 
ATOM     12  C   UNL     1       7.305  17.542  18.750  0.00  0.00    +0.000 A 
ATOM     13  N   UNL     1       5.963  17.589  18.976  0.00  0.00    +0.000 NA
ATOM     14  H   UNL     1       3.597  17.455  19.414  0.00  0.00    +0.000 HD
BRANCH  11  15
ATOM     15  C   UNL     1       9.494  16.407  18.268  0.00  0.00    +0.000 C 
ATOM     16  F   UNL     1       9.992  17.670  18.138  0.00  0.00    +0.000 F 
ATOM     17  F   UNL     1      10.205  15.832  19.275  0.00  0.00    +0.000 F 
ATOM     18  F   UNL     1       9.853  15.751  17.131  0.00  0.00    +0.000 F 
ENDBRANCH  11  15
ENDBRANCH   4   7
BRANCH   1  19
ATOM     19  S   UNL     1       0.742  11.454  19.682  0.00  0.00    +0.000 S 
ATOM     20  O   UNL     1      -0.269  11.819  18.708  0.00  0.00    +0.000 OA
ATOM     21  O   UNL     1       0.418  11.401  21.097  0.00  0.00    +0.000 OA
BRANCH  19  25
ATOM     22  C   UNL     1       2.264   7.258  18.513  0.00  0.00    +0.000 A 
ATOM     23  C   UNL     1       2.280   8.327  17.594  0.00  0.00    +0.000 A 
ATOM     24  C   UNL     1       1.833   9.609  17.948  0.00  0.00    +0.000 A 
ATOM     25  C   UNL     1       1.347   9.838  19.234  0.00  0.00    +0.000 A 
ATOM     26  C   UNL     1       1.378   8.820  20.186  0.00  0.00    +0.000 A 
ATOM     27  C   UNL     1       1.823   7.545  19.820  0.00  0.00    +0.000 A 
BRANCH  22  32
ATOM     28  C   UNL     1       4.329   4.398  17.044  0.00  0.00    +0.000 A 
ATOM     29  C   UNL     1       3.532   3.293  17.345  0.00  0.00    +0.000 A 
ATOM     30  C   UNL     1       2.344   3.470  18.049  0.00  0.00    +0.000 A 
ATOM     31  C   UNL     1       1.940   4.752  18.436  0.00  0.00    +0.000 A 
ATOM     32  C   UNL     1       2.711   5.891  18.137  0.00  0.00    +0.000 A 
ATOM     33  C   UNL     1       3.923   5.680  17.449  0.00  0.00    +0.000 A 
BRANCH  28  35
ATOM     34  N   UNL     1       6.537   4.096  15.716  0.00  0.00    +0.000 NA
ATOM     35  C   UNL     1       5.552   4.228  16.311  0.00  0.00    +0.000 C 
ENDBRANCH  28  35
ENDBRANCH  22  32
ENDBRANCH  19  25
ENDBRANCH   1  19
TORSDOF 6
ENDMDL
