MODEL 1
REMARK VINA RESULT:      -8.0      0.000      0.000
REMARK  Name = 
REMARK  7 active torsions:
REMARK  status: ('A' for Active; 'I' for Inactive)
REMARK    1  A    between atoms: C_2  and  C_4
REMARK    2  A    between atoms: C_2  and  C_19
REMARK    3  A    between atoms: C_4  and  C_5
REMARK    4  A    between atoms: C_11  and  N_12
REMARK    5  A    between atoms: C_19  and  N_20
REMARK    6  A    between atoms: C_23  and  C_24
REMARK    7  A    between atoms: C_24  and  C_25
REMARK                            x       y       z     vdW  Elec       q    Type
REMARK                         _______ _______ _______ _____ _____    ______ ____
ROOT
ATOM      1  F   UNL     1       3.044   8.596  17.312  0.00  0.00    +0.000 F 
ATOM      2  C   UNL     1       1.930   8.305  18.033  0.00  0.00    +0.000 C 
ATOM      3  F   UNL     1       1.269   7.311  17.379  0.00  0.00    +0.000 F 
ENDROOT
BRANCH   2   4
ATOM      4  C   UNL     1       2.325   7.787  19.415  0.00  0.00    +0.000 C 
BRANCH   4   5
ATOM      5  C   UNL     1       2.323   6.288  19.496  0.00  0.00    +0.000 A 
ATOM      6  C   UNL     1       1.582   5.508  20.361  0.00  0.00    +0.000 A 
ATOM      7  N   UNL     1       1.874   4.193  20.110  0.00  0.00    +0.000 N 
ATOM      8  C   UNL     1       2.795   4.096  19.093  0.00  0.00    +0.000 A 
ATOM      9  C   UNL     1       3.371   2.969  18.498  0.00  0.00    +0.000 A 
ATOM     10  C   UNL     1       4.324   3.177  17.489  0.00  0.00    +0.000 A 
ATOM     11  C   UNL     1       4.700   4.467  17.097  0.00  0.00    +0.000 A 
ATOM     12  C   UNL     1       4.090   5.581  17.702  0.00  0.00    +0.000 A 
ATOM     13  C   UNL     1       3.117   5.394  18.708  0.00  0.00    +0.000 A 
ATOM     14  H   UNL     1       1.484   3.406  20.610  0.00  0.00    +0.000 HD
BRANCH  11  15
ATOM     15  N   UNL     1       5.695   4.666  16.105  0.00  0.00    +0.000 N 
ATOM     16  C   UNL     1       6.832   5.436  16.183  0.00  0.00    +0.000 A 
ATOM     17  N   UNL     1       7.507   5.377  15.057  0.00  0.00    +0.000 NA
ATOM     18  N   UNL     1       6.823   4.549  14.207  0.00  0.00    +0.000 NA
ATOM     19  C   UNL     1       5.754   4.128  14.840  0.00  0.00    +0.000 A 
ENDBRANCH  11  15
ENDBRANCH   4   5
ENDBRANCH   2   4
BRANCH   2  20
ATOM     20  C   UNL     1       1.028   9.564  18.129  0.00  0.00    +0.000 C 
BRANCH  20  21
ATOM     21  N   UNL     1       0.936  10.215  19.464  0.00  0.00    +0.000 NA
ATOM     22  C   UNL     1       1.329  11.632  19.394  0.00  0.00    +0.000 C 
ATOM     23  C   UNL     1       1.216  12.328  20.746  0.00  0.00    +0.000 C 
ATOM     24  C   UNL     1      -0.196  12.224  21.326  0.00  0.00    +0.000 C 
ATOM     25  C   UNL     1      -0.547  10.728  21.403  0.00  0.00    +0.000 C 
ATOM     26  C   UNL     1      -0.403  10.029  20.043  0.00  0.00    +0.000 C 
BRANCH  24  27
ATOM     27  C   UNL     1      -1.271  12.983  20.514  0.00  0.00    +0.000 C 
BRANCH  27  28
ATOM     28  C   UNL     1      -2.691  12.874  21.011  0.00  0.00    +0.000 A 
ATOM     29  C   UNL     1      -2.977  13.082  22.369  0.00  0.00    +0.000 A 
ATOM     30  C   UNL     1      -4.289  13.043  22.837  0.00  0.00    +0.000 A 
ATOM     31  C   UNL     1      -5.334  12.802  21.949  0.00  0.00    +0.000 A 
ATOM     32  C   UNL     1      -5.064  12.593  20.598  0.00  0.00    +0.000 A 
ATOM     33  C   UNL     1      -3.751  12.628  20.129  0.00  0.00    +0.000 A 
ENDBRANCH  27  28
ENDBRANCH  24  27
ENDBRANCH  20  21
ENDBRANCH   2  20
TORSDOF 7
ENDMDL
MODEL 2
REMARK VINA RESULT:      -8.0      1.029      1.201
REMARK  Name = 
REMARK  7 active torsions:
REMARK  status: ('A' for Active; 'I' for Inactive)
REMARK    1  A    between atoms: C_2  and  C_4
REMARK    2  A    between atoms: C_2  and  C_19
REMARK    3  A    between atoms: C_4  and  C_5
REMARK    4  A    between atoms: C_11  and  N_12
REMARK    5  A    between atoms: C_19  and  N_20
REMARK    6  A    between atoms: C_23  and  C_24
REMARK    7  A    between atoms: C_24  and  C_25
REMARK                            x       y       z     vdW  Elec       q    Type
REMARK                         _______ _______ _______ _____ _____    ______ ____
ROOT
ATOM      1  F   UNL     1       2.978   8.727  17.546  0.00  0.00    +0.000 F 
ATOM      2  C   UNL     1       1.911   8.245  18.235  0.00  0.00    +0.000 C 
ATOM      3  F   UNL     1       1.340   7.272  17.473  0.00  0.00    +0.000 F 
ENDROOT
BRANCH   2   4
ATOM      4  C   UNL     1       2.381   7.611  19.544  0.00  0.00    +0.000 C 
BRANCH   4   5
ATOM      5  C   UNL     1       2.338   6.111  19.512  0.00  0.00    +0.000 A 
ATOM      6  C   UNL     1       1.572   5.287  20.312  0.00  0.00    +0.000 A 
ATOM      7  N   UNL     1       1.830   3.988  19.964  0.00  0.00    +0.000 N 
ATOM      8  C   UNL     1       2.754   3.943  18.946  0.00  0.00    +0.000 A 
ATOM      9  C   UNL     1       3.303   2.849  18.270  0.00  0.00    +0.000 A 
ATOM     10  C   UNL     1       4.268   3.107  17.283  0.00  0.00    +0.000 A 
ATOM     11  C   UNL     1       4.680   4.413  16.992  0.00  0.00    +0.000 A 
ATOM     12  C   UNL     1       4.097   5.493  17.676  0.00  0.00    +0.000 A 
ATOM     13  C   UNL     1       3.112   5.257  18.662  0.00  0.00    +0.000 A 
ATOM     14  H   UNL     1       1.416   3.177  20.401  0.00  0.00    +0.000 HD
BRANCH  11  15
ATOM     15  N   UNL     1       5.685   4.659  16.021  0.00  0.00    +0.000 N 
ATOM     16  C   UNL     1       6.849   5.378  16.165  0.00  0.00    +0.000 A 
ATOM     17  N   UNL     1       7.527   5.390  15.040  0.00  0.00    +0.000 NA
ATOM     18  N   UNL     1       6.817   4.662  14.121  0.00  0.00    +0.000 NA
ATOM     19  C   UNL     1       5.731   4.227  14.715  0.00  0.00    +0.000 A 
ENDBRANCH  11  15
ENDBRANCH   4   5
ENDBRANCH   2   4
BRANCH   2  20
ATOM     20  C   UNL     1       0.892   9.386  18.485  0.00  0.00    +0.000 C 
BRANCH  20  21
ATOM     21  N   UNL     1       0.937  10.038  19.822  0.00  0.00    +0.000 NA
ATOM     22  C   UNL     1       0.852  11.503  19.704  0.00  0.00    +0.000 C 
ATOM     23  C   UNL     1       0.869  12.192  21.065  0.00  0.00    +0.000 C 
ATOM     24  C   UNL     1      -0.256  11.692  21.972  0.00  0.00    +0.000 C 
ATOM     25  C   UNL     1      -0.107  10.165  22.083  0.00  0.00    +0.000 C 
ATOM     26  C   UNL     1      -0.097   9.482  20.707  0.00  0.00    +0.000 C 
BRANCH  24  27
ATOM     27  C   UNL     1      -1.676  12.055  21.477  0.00  0.00    +0.000 C 
BRANCH  27  28
ATOM     28  C   UNL     1      -2.524  12.881  22.412  0.00  0.00    +0.000 A 
ATOM     29  C   UNL     1      -3.191  12.266  23.482  0.00  0.00    +0.000 A 
ATOM     30  C   UNL     1      -3.931  13.019  24.391  0.00  0.00    +0.000 A 
ATOM     31  C   UNL     1      -4.010  14.401  24.243  0.00  0.00    +0.000 A 
ATOM     32  C   UNL     1      -3.354  15.026  23.184  0.00  0.00    +0.000 A 
ATOM     33  C   UNL     1      -2.615  14.271  22.272  0.00  0.00    +0.000 A 
ENDBRANCH  27  28
ENDBRANCH  24  27
ENDBRANCH  20  21
ENDBRANCH   2  20
TORSDOF 7
ENDMDL
MODEL 3
REMARK VINA RESULT:      -7.9      6.426     10.759
REMARK  Name = 
REMARK  7 active torsions:
REMARK  status: ('A' for Active; 'I' for Inactive)
REMARK    1  A    between atoms: C_2  and  C_4
REMARK    2  A    between atoms: C_2  and  C_19
REMARK    3  A    between atoms: C_4  and  C_5
REMARK    4  A    between atoms: C_11  and  N_12
REMARK    5  A    between atoms: C_19  and  N_20
REMARK    6  A    between atoms: C_23  and  C_24
REMARK    7  A    between atoms: C_24  and  C_25
REMARK                            x       y       z     vdW  Elec       q    Type
REMARK                         _______ _______ _______ _____ _____    ______ ____
ROOT
ATOM      1  F   UNL     1       7.362   9.995  17.985  0.00  0.00    +0.000 F 
ATOM      2  C   UNL     1       8.596   9.483  18.231  0.00  0.00    +0.000 C 
ATOM      3  F   UNL     1       9.289   9.510  17.060  0.00  0.00    +0.000 F 
ENDROOT
BRANCH   2   4
ATOM      4  C   UNL     1       9.332  10.363  19.241  0.00  0.00    +0.000 C 
BRANCH   4   5
ATOM      5  C   UNL     1      10.258  11.348  18.587  0.00  0.00    +0.000 A 
ATOM      6  C   UNL     1      11.554  11.116  18.173  0.00  0.00    +0.000 A 
ATOM      7  N   UNL     1      12.046  12.274  17.632  0.00  0.00    +0.000 N 
ATOM      8  C   UNL     1      11.094  13.265  17.683  0.00  0.00    +0.000 A 
ATOM      9  C   UNL     1      11.143  14.592  17.243  0.00  0.00    +0.000 A 
ATOM     10  C   UNL     1      10.014  15.396  17.462  0.00  0.00    +0.000 A 
ATOM     11  C   UNL     1       8.880  14.897  18.113  0.00  0.00    +0.000 A 
ATOM     12  C   UNL     1       8.853  13.554  18.529  0.00  0.00    +0.000 A 
ATOM     13  C   UNL     1       9.973  12.722  18.303  0.00  0.00    +0.000 A 
ATOM     14  H   UNL     1      12.980  12.392  17.263  0.00  0.00    +0.000 HD
BRANCH  11  15
ATOM     15  N   UNL     1       7.760  15.731  18.366  0.00  0.00    +0.000 N 
ATOM     16  C   UNL     1       6.433  15.376  18.433  0.00  0.00    +0.000 A 
ATOM     17  N   UNL     1       5.685  16.427  18.681  0.00  0.00    +0.000 NA
ATOM     18  N   UNL     1       6.517  17.509  18.794  0.00  0.00    +0.000 NA
ATOM     19  C   UNL     1       7.745  17.085  18.612  0.00  0.00    +0.000 A 
ENDBRANCH  11  15
ENDBRANCH   4   5
ENDBRANCH   2   4
BRANCH   2  20
ATOM     20  C   UNL     1       8.464   8.022  18.733  0.00  0.00    +0.000 C 
BRANCH  20  21
ATOM     21  N   UNL     1       7.759   7.070  17.831  0.00  0.00    +0.000 NA
ATOM     22  C   UNL     1       7.708   5.721  18.417  0.00  0.00    +0.000 C 
ATOM     23  C   UNL     1       6.965   4.733  17.523  0.00  0.00    +0.000 C 
ATOM     24  C   UNL     1       5.543   5.203  17.210  0.00  0.00    +0.000 C 
ATOM     25  C   UNL     1       5.654   6.602  16.579  0.00  0.00    +0.000 C 
ATOM     26  C   UNL     1       6.428   7.582  17.473  0.00  0.00    +0.000 C 
BRANCH  24  27
ATOM     27  C   UNL     1       4.607   5.246  18.440  0.00  0.00    +0.000 C 
BRANCH  27  28
ATOM     28  C   UNL     1       3.519   4.203  18.495  0.00  0.00    +0.000 A 
ATOM     29  C   UNL     1       2.209   4.534  18.118  0.00  0.00    +0.000 A 
ATOM     30  C   UNL     1       1.203   3.570  18.106  0.00  0.00    +0.000 A 
ATOM     31  C   UNL     1       1.497   2.258  18.467  0.00  0.00    +0.000 A 
ATOM     32  C   UNL     1       2.794   1.915  18.845  0.00  0.00    +0.000 A 
ATOM     33  C   UNL     1       3.801   2.880  18.860  0.00  0.00    +0.000 A 
ENDBRANCH  27  28
ENDBRANCH  24  27
ENDBRANCH  20  21
ENDBRANCH   2  20
TORSDOF 7
ENDMDL
MODEL 4
REMARK VINA RESULT:      -7.8      6.364     10.346
REMARK  Name = 
REMARK  7 active torsions:
REMARK  status: ('A' for Active; 'I' for Inactive)
REMARK    1  A    between atoms: C_2  and  C_4
REMARK    2  A    between atoms: C_2  and  C_19
REMARK    3  A    between atoms: C_4  and  C_5
REMARK    4  A    between atoms: C_11  and  N_12
REMARK    5  A    between atoms: C_19  and  N_20
REMARK    6  A    between atoms: C_23  and  C_24
REMARK    7  A    between atoms: C_24  and  C_25
REMARK                            x       y       z     vdW  Elec       q    Type
REMARK                         _______ _______ _______ _____ _____    ______ ____
ROOT
ATOM      1  F   UNL     1       7.177   9.639  17.832  0.00  0.00    +0.000 F 
ATOM      2  C   UNL     1       8.279   8.856  17.965  0.00  0.00    +0.000 C 
ATOM      3  F   UNL     1       9.047   9.042  16.856  0.00  0.00    +0.000 F 
ENDROOT
BRANCH   2   4
ATOM      4  C   UNL     1       9.087   9.296  19.184  0.00  0.00    +0.000 C 
BRANCH   4   5
ATOM      5  C   UNL     1       9.496  10.740  19.120  0.00  0.00    +0.000 A 
ATOM      6  C   UNL     1      10.093  11.384  18.056  0.00  0.00    +0.000 A 
ATOM      7  N   UNL     1      10.303  12.690  18.407  0.00  0.00    +0.000 N 
ATOM      8  C   UNL     1       9.853  12.918  19.687  0.00  0.00    +0.000 A 
ATOM      9  C   UNL     1       9.849  14.088  20.451  0.00  0.00    +0.000 A 
ATOM     10  C   UNL     1       9.350  14.014  21.761  0.00  0.00    +0.000 A 
ATOM     11  C   UNL     1       8.885  12.806  22.295  0.00  0.00    +0.000 A 
ATOM     12  C   UNL     1       8.886  11.649  21.496  0.00  0.00    +0.000 A 
ATOM     13  C   UNL     1       9.368  11.706  20.170  0.00  0.00    +0.000 A 
ATOM     14  H   UNL     1      10.742  13.387  17.820  0.00  0.00    +0.000 HD
BRANCH  11  15
ATOM     15  N   UNL     1       8.422  12.733  23.634  0.00  0.00    +0.000 N 
ATOM     16  C   UNL     1       8.472  13.705  24.606  0.00  0.00    +0.000 A 
ATOM     17  N   UNL     1       7.949  13.265  25.727  0.00  0.00    +0.000 NA
ATOM     18  N   UNL     1       7.528  11.979  25.511  0.00  0.00    +0.000 NA
ATOM     19  C   UNL     1       7.807  11.676  24.266  0.00  0.00    +0.000 A 
ENDBRANCH  11  15
ENDBRANCH   4   5
ENDBRANCH   2   4
BRANCH   2  20
ATOM     20  C   UNL     1       7.852   7.368  18.066  0.00  0.00    +0.000 C 
BRANCH  20  21
ATOM     21  N   UNL     1       6.810   6.908  17.107  0.00  0.00    +0.000 NA
ATOM     22  C   UNL     1       7.203   5.646  16.460  0.00  0.00    +0.000 C 
ATOM     23  C   UNL     1       6.138   5.140  15.493  0.00  0.00    +0.000 C 
ATOM     24  C   UNL     1       4.783   4.957  16.179  0.00  0.00    +0.000 C 
ATOM     25  C   UNL     1       4.408   6.307  16.815  0.00  0.00    +0.000 C 
ATOM     26  C   UNL     1       5.499   6.822  17.766  0.00  0.00    +0.000 C 
BRANCH  24  27
ATOM     27  C   UNL     1       4.763   3.840  17.248  0.00  0.00    +0.000 C 
BRANCH  27  28
ATOM     28  C   UNL     1       3.531   3.762  18.117  0.00  0.00    +0.000 A 
ATOM     29  C   UNL     1       3.616   4.070  19.483  0.00  0.00    +0.000 A 
ATOM     30  C   UNL     1       2.479   4.061  20.289  0.00  0.00    +0.000 A 
ATOM     31  C   UNL     1       1.240   3.748  19.736  0.00  0.00    +0.000 A 
ATOM     32  C   UNL     1       1.142   3.439  18.381  0.00  0.00    +0.000 A 
ATOM     33  C   UNL     1       2.280   3.444  17.574  0.00  0.00    +0.000 A 
ENDBRANCH  27  28
ENDBRANCH  24  27
ENDBRANCH  20  21
ENDBRANCH   2  20
TORSDOF 7
ENDMDL
MODEL 5
REMARK VINA RESULT:      -7.7      2.249      3.145
REMARK  Name = 
REMARK  7 active torsions:
REMARK  status: ('A' for Active; 'I' for Inactive)
REMARK    1  A    between atoms: C_2  and  C_4
REMARK    2  A    between atoms: C_2  and  C_19
REMARK    3  A    between atoms: C_4  and  C_5
REMARK    4  A    between atoms: C_11  and  N_12
REMARK    5  A    between atoms: C_19  and  N_20
REMARK    6  A    between atoms: C_23  and  C_24
REMARK    7  A    between atoms: C_24  and  C_25
REMARK                            x       y       z     vdW  Elec       q    Type
REMARK                         _______ _______ _______ _____ _____    ______ ____
ROOT
ATOM      1  F   UNL     1       1.065   8.128  19.475  0.00  0.00    +0.000 F 
ATOM      2  C   UNL     1       1.136   7.997  20.825  0.00  0.00    +0.000 C 
ATOM      3  F   UNL     1      -0.109   7.668  21.269  0.00  0.00    +0.000 F 
ENDROOT
BRANCH   2   4
ATOM      4  C   UNL     1       2.088   6.858  21.188  0.00  0.00    +0.000 C 
BRANCH   4   5
ATOM      5  C   UNL     1       1.895   5.643  20.327  0.00  0.00    +0.000 A 
ATOM      6  C   UNL     1       0.905   4.690  20.451  0.00  0.00    +0.000 A 
ATOM      7  N   UNL     1       1.089   3.749  19.473  0.00  0.00    +0.000 N 
ATOM      8  C   UNL     1       2.185   4.068  18.706  0.00  0.00    +0.000 A 
ATOM      9  C   UNL     1       2.739   3.414  17.602  0.00  0.00    +0.000 A 
ATOM     10  C   UNL     1       3.900   3.959  17.032  0.00  0.00    +0.000 A 
ATOM     11  C   UNL     1       4.496   5.112  17.557  0.00  0.00    +0.000 A 
ATOM     12  C   UNL     1       3.906   5.758  18.658  0.00  0.00    +0.000 A 
ATOM     13  C   UNL     1       2.728   5.235  19.236  0.00  0.00    +0.000 A 
ATOM     14  H   UNL     1       0.514   2.928  19.341  0.00  0.00    +0.000 HD
BRANCH  11  15
ATOM     15  N   UNL     1       5.693   5.631  16.998  0.00  0.00    +0.000 N 
ATOM     16  C   UNL     1       6.358   5.209  15.871  0.00  0.00    +0.000 A 
ATOM     17  N   UNL     1       7.437   5.933  15.673  0.00  0.00    +0.000 NA
ATOM     18  N   UNL     1       7.499   6.865  16.675  0.00  0.00    +0.000 NA
ATOM     19  C   UNL     1       6.457   6.682  17.451  0.00  0.00    +0.000 A 
ENDBRANCH  11  15
ENDBRANCH   4   5
ENDBRANCH   2   4
BRANCH   2  20
ATOM     20  C   UNL     1       1.582   9.341  21.457  0.00  0.00    +0.000 C 
BRANCH  20  21
ATOM     21  N   UNL     1       0.883  10.565  20.980  0.00  0.00    +0.000 NA
ATOM     22  C   UNL     1       0.704  10.541  19.519  0.00  0.00    +0.000 C 
ATOM     23  C   UNL     1      -0.035  11.774  19.009  0.00  0.00    +0.000 C 
ATOM     24  C   UNL     1      -1.399  11.941  19.682  0.00  0.00    +0.000 C 
ATOM     25  C   UNL     1      -1.155  11.986  21.201  0.00  0.00    +0.000 C 
ATOM     26  C   UNL     1      -0.385  10.755  21.701  0.00  0.00    +0.000 C 
BRANCH  24  27
ATOM     27  C   UNL     1      -2.414  10.826  19.339  0.00  0.00    +0.000 C 
BRANCH  27  28
ATOM     28  C   UNL     1      -2.825  10.712  17.891  0.00  0.00    +0.000 A 
ATOM     29  C   UNL     1      -3.888  11.485  17.401  0.00  0.00    +0.000 A 
ATOM     30  C   UNL     1      -4.244  11.437  16.054  0.00  0.00    +0.000 A 
ATOM     31  C   UNL     1      -3.536  10.618  15.179  0.00  0.00    +0.000 A 
ATOM     32  C   UNL     1      -2.478   9.845  15.653  0.00  0.00    +0.000 A 
ATOM     33  C   UNL     1      -2.123   9.890  17.002  0.00  0.00    +0.000 A 
ENDBRANCH  27  28
ENDBRANCH  24  27
ENDBRANCH  20  21
ENDBRANCH   2  20
TORSDOF 7
ENDMDL
MODEL 6
REMARK VINA RESULT:      -7.6      3.127     10.597
REMARK  Name = 
REMARK  7 active torsions:
REMARK  status: ('A' for Active; 'I' for Inactive)
REMARK    1  A    between atoms: C_2  and  C_4
REMARK    2  A    between atoms: C_2  and  C_19
REMARK    3  A    between atoms: C_4  and  C_5
REMARK    4  A    between atoms: C_11  and  N_12
REMARK    5  A    between atoms: C_19  and  N_20
REMARK    6  A    between atoms: C_23  and  C_24
REMARK    7  A    between atoms: C_24  and  C_25
REMARK                            x       y       z     vdW  Elec       q    Type
REMARK                         _______ _______ _______ _____ _____    ______ ____
ROOT
ATOM      1  F   UNL     1       0.138  10.013  22.734  0.00  0.00    +0.000 F 
ATOM      2  C   UNL     1       0.295   9.547  21.468  0.00  0.00    +0.000 C 
ATOM      3  F   UNL     1      -0.856   8.907  21.123  0.00  0.00    +0.000 F 
ENDROOT
BRANCH   2   4
ATOM      4  C   UNL     1       0.499  10.715  20.504  0.00  0.00    +0.000 C 
BRANCH   4   5
ATOM      5  C   UNL     1      -0.430  10.665  19.326  0.00  0.00    +0.000 A 
ATOM      6  C   UNL     1      -0.179  10.084  18.099  0.00  0.00    +0.000 A 
ATOM      7  N   UNL     1      -1.281  10.262  17.306  0.00  0.00    +0.000 N 
ATOM      8  C   UNL     1      -2.255  10.951  17.991  0.00  0.00    +0.000 A 
ATOM      9  C   UNL     1      -3.535  11.346  17.593  0.00  0.00    +0.000 A 
ATOM     10  C   UNL     1      -4.307  12.081  18.506  0.00  0.00    +0.000 A 
ATOM     11  C   UNL     1      -3.810  12.423  19.769  0.00  0.00    +0.000 A 
ATOM     12  C   UNL     1      -2.525  11.998  20.148  0.00  0.00    +0.000 A 
ATOM     13  C   UNL     1      -1.738  11.243  19.250  0.00  0.00    +0.000 A 
ATOM     14  H   UNL     1      -1.365   9.948  16.349  0.00  0.00    +0.000 HD
BRANCH  11  15
ATOM     15  N   UNL     1      -4.584  13.202  20.669  0.00  0.00    +0.000 N 
ATOM     16  C   UNL     1      -5.852  12.950  21.139  0.00  0.00    +0.000 A 
ATOM     17  N   UNL     1      -6.241  13.905  21.953  0.00  0.00    +0.000 NA
ATOM     18  N   UNL     1      -5.219  14.813  22.044  0.00  0.00    +0.000 NA
ATOM     19  C   UNL     1      -4.240  14.384  21.284  0.00  0.00    +0.000 A 
ENDBRANCH  11  15
ENDBRANCH   4   5
ENDBRANCH   2   4
BRANCH   2  20
ATOM     20  C   UNL     1       1.485   8.552  21.423  0.00  0.00    +0.000 C 
BRANCH  20  21
ATOM     21  N   UNL     1       1.454   7.528  20.343  0.00  0.00    +0.000 NA
ATOM     22  C   UNL     1       2.222   7.970  19.168  0.00  0.00    +0.000 C 
ATOM     23  C   UNL     1       2.229   6.925  18.058  0.00  0.00    +0.000 C 
ATOM     24  C   UNL     1       2.775   5.580  18.541  0.00  0.00    +0.000 C 
ATOM     25  C   UNL     1       1.925   5.152  19.750  0.00  0.00    +0.000 C 
ATOM     26  C   UNL     1       1.901   6.222  20.851  0.00  0.00    +0.000 C 
BRANCH  24  27
ATOM     27  C   UNL     1       4.273   5.609  18.927  0.00  0.00    +0.000 C 
BRANCH  27  28
ATOM     28  C   UNL     1       5.256   5.279  17.831  0.00  0.00    +0.000 A 
ATOM     29  C   UNL     1       4.938   5.562  16.494  0.00  0.00    +0.000 A 
ATOM     30  C   UNL     1       5.856   5.318  15.474  0.00  0.00    +0.000 A 
ATOM     31  C   UNL     1       7.108   4.792  15.780  0.00  0.00    +0.000 A 
ATOM     32  C   UNL     1       7.437   4.505  17.104  0.00  0.00    +0.000 A 
ATOM     33  C   UNL     1       6.517   4.745  18.125  0.00  0.00    +0.000 A 
ENDBRANCH  27  28
ENDBRANCH  24  27
ENDBRANCH  20  21
ENDBRANCH   2  20
TORSDOF 7
ENDMDL
MODEL 7
REMARK VINA RESULT:      -7.6      6.056     10.084
REMARK  Name = 
REMARK  7 active torsions:
REMARK  status: ('A' for Active; 'I' for Inactive)
REMARK    1  A    between atoms: C_2  and  C_4
REMARK    2  A    between atoms: C_2  and  C_19
REMARK    3  A    between atoms: C_4  and  C_5
REMARK    4  A    between atoms: C_11  and  N_12
REMARK    5  A    between atoms: C_19  and  N_20
REMARK    6  A    between atoms: C_23  and  C_24
REMARK    7  A    between atoms: C_24  and  C_25
REMARK                            x       y       z     vdW  Elec       q    Type
REMARK                         _______ _______ _______ _____ _____    ______ ____
ROOT
ATOM      1  F   UNL     1       7.161   9.461  18.026  0.00  0.00    +0.000 F 
ATOM      2  C   UNL     1       8.278   8.694  18.118  0.00  0.00    +0.000 C 
ATOM      3  F   UNL     1       8.820   8.613  16.872  0.00  0.00    +0.000 F 
ENDROOT
BRANCH   2   4
ATOM      4  C   UNL     1       9.296   9.365  19.038  0.00  0.00    +0.000 C 
BRANCH   4   5
ATOM      5  C   UNL     1       9.350  10.855  18.857  0.00  0.00    +0.000 A 
ATOM      6  C   UNL     1       9.636  11.536  17.691  0.00  0.00    +0.000 A 
ATOM      7  N   UNL     1       9.584  12.879  17.956  0.00  0.00    +0.000 N 
ATOM      8  C   UNL     1       9.269  13.093  19.277  0.00  0.00    +0.000 A 
ATOM      9  C   UNL     1       9.097  14.286  19.986  0.00  0.00    +0.000 A 
ATOM     10  C   UNL     1       8.808  14.197  21.356  0.00  0.00    +0.000 A 
ATOM     11  C   UNL     1       8.709  12.958  22.001  0.00  0.00    +0.000 A 
ATOM     12  C   UNL     1       8.870  11.775  21.258  0.00  0.00    +0.000 A 
ATOM     13  C   UNL     1       9.144  11.842  19.874  0.00  0.00    +0.000 A 
ATOM     14  H   UNL     1       9.769  13.611  17.283  0.00  0.00    +0.000 HD
BRANCH  11  15
ATOM     15  N   UNL     1       8.457  12.881  23.395  0.00  0.00    +0.000 N 
ATOM     16  C   UNL     1       8.160  11.768  24.146  0.00  0.00    +0.000 A 
ATOM     17  N   UNL     1       7.985  12.093  25.406  0.00  0.00    +0.000 NA
ATOM     18  N   UNL     1       8.176  13.446  25.515  0.00  0.00    +0.000 NA
ATOM     19  C   UNL     1       8.461  13.902  24.319  0.00  0.00    +0.000 A 
ENDBRANCH  11  15
ENDBRANCH   4   5
ENDBRANCH   2   4
BRANCH   2  20
ATOM     20  C   UNL     1       7.898   7.276  18.620  0.00  0.00    +0.000 C 
BRANCH  20  21
ATOM     21  N   UNL     1       7.049   6.455  17.714  0.00  0.00    +0.000 NA
ATOM     22  C   UNL     1       6.449   5.319  18.432  0.00  0.00    +0.000 C 
ATOM     23  C   UNL     1       5.552   4.478  17.529  0.00  0.00    +0.000 C 
ATOM     24  C   UNL     1       4.443   5.313  16.887  0.00  0.00    +0.000 C 
ATOM     25  C   UNL     1       5.123   6.468  16.130  0.00  0.00    +0.000 C 
ATOM     26  C   UNL     1       6.046   7.292  17.040  0.00  0.00    +0.000 C 
BRANCH  24  27
ATOM     27  C   UNL     1       3.408   5.870  17.892  0.00  0.00    +0.000 C 
BRANCH  27  28
ATOM     28  C   UNL     1       2.537   4.857  18.592  0.00  0.00    +0.000 A 
ATOM     29  C   UNL     1       2.240   5.009  19.955  0.00  0.00    +0.000 A 
ATOM     30  C   UNL     1       1.390   4.117  20.605  0.00  0.00    +0.000 A 
ATOM     31  C   UNL     1       0.821   3.062  19.897  0.00  0.00    +0.000 A 
ATOM     32  C   UNL     1       1.107   2.898  18.543  0.00  0.00    +0.000 A 
ATOM     33  C   UNL     1       1.961   3.789  17.892  0.00  0.00    +0.000 A 
ENDBRANCH  27  28
ENDBRANCH  24  27
ENDBRANCH  20  21
ENDBRANCH   2  20
TORSDOF 7
ENDMDL
MODEL 8
REMARK VINA RESULT:      -7.6      0.819      1.175
REMARK  Name = 
REMARK  7 active torsions:
REMARK  status: ('A' for Active; 'I' for Inactive)
REMARK    1  A    between atoms: C_2  and  C_4
REMARK    2  A    between atoms: C_2  and  C_19
REMARK    3  A    between atoms: C_4  and  C_5
REMARK    4  A    between atoms: C_11  and  N_12
REMARK    5  A    between atoms: C_19  and  N_20
REMARK    6  A    between atoms: C_23  and  C_24
REMARK    7  A    between atoms: C_24  and  C_25
REMARK                            x       y       z     vdW  Elec       q    Type
REMARK                         _______ _______ _______ _____ _____    ______ ____
ROOT
ATOM      1  F   UNL     1       2.223   9.866  17.402  0.00  0.00    +0.000 F 
ATOM      2  C   UNL     1       1.534   9.005  18.196  0.00  0.00    +0.000 C 
ATOM      3  F   UNL     1       1.134   7.963  17.417  0.00  0.00    +0.000 F 
ENDROOT
BRANCH   2   4
ATOM      4  C   UNL     1       2.451   8.459  19.290  0.00  0.00    +0.000 C 
BRANCH   4   5
ATOM      5  C   UNL     1       2.340   6.970  19.451  0.00  0.00    +0.000 A 
ATOM      6  C   UNL     1       1.548   6.293  20.356  0.00  0.00    +0.000 A 
ATOM      7  N   UNL     1       1.743   4.949  20.176  0.00  0.00    +0.000 N 
ATOM      8  C   UNL     1       2.651   4.731  19.167  0.00  0.00    +0.000 A 
ATOM      9  C   UNL     1       3.142   3.535  18.634  0.00  0.00    +0.000 A 
ATOM     10  C   UNL     1       4.105   3.619  17.615  0.00  0.00    +0.000 A 
ATOM     11  C   UNL     1       4.571   4.856  17.155  0.00  0.00    +0.000 A 
ATOM     12  C   UNL     1       4.046   6.042  17.699  0.00  0.00    +0.000 A 
ATOM     13  C   UNL     1       3.065   5.980  18.713  0.00  0.00    +0.000 A 
ATOM     14  H   UNL     1       1.298   4.221  20.718  0.00  0.00    +0.000 HD
BRANCH  11  15
ATOM     15  N   UNL     1       5.575   4.929  16.154  0.00  0.00    +0.000 N 
ATOM     16  C   UNL     1       5.552   4.394  14.887  0.00  0.00    +0.000 A 
ATOM     17  N   UNL     1       6.669   4.665  14.251  0.00  0.00    +0.000 NA
ATOM     18  N   UNL     1       7.458   5.402  15.095  0.00  0.00    +0.000 NA
ATOM     19  C   UNL     1       6.797   5.557  16.218  0.00  0.00    +0.000 A 
ENDBRANCH  11  15
ENDBRANCH   4   5
ENDBRANCH   2   4
BRANCH   2  20
ATOM     20  C   UNL     1       0.296   9.723  18.792  0.00  0.00    +0.000 C 
BRANCH  20  21
ATOM     21  N   UNL     1       0.531  10.565  19.998  0.00  0.00    +0.000 NA
ATOM     22  C   UNL     1       0.780  11.968  19.627  0.00  0.00    +0.000 C 
ATOM     23  C   UNL     1       0.998  12.855  20.848  0.00  0.00    +0.000 C 
ATOM     24  C   UNL     1      -0.183  12.791  21.819  0.00  0.00    +0.000 C 
ATOM     25  C   UNL     1      -0.384  11.312  22.194  0.00  0.00    +0.000 C 
ATOM     26  C   UNL     1      -0.574  10.421  20.957  0.00  0.00    +0.000 C 
BRANCH  24  27
ATOM     27  C   UNL     1      -1.497  13.381  21.257  0.00  0.00    +0.000 C 
BRANCH  27  28
ATOM     28  C   UNL     1      -2.695  13.351  22.174  0.00  0.00    +0.000 A 
ATOM     29  C   UNL     1      -2.612  13.917  23.455  0.00  0.00    +0.000 A 
ATOM     30  C   UNL     1      -3.724  13.951  24.294  0.00  0.00    +0.000 A 
ATOM     31  C   UNL     1      -4.936  13.423  23.859  0.00  0.00    +0.000 A 
ATOM     32  C   UNL     1      -5.033  12.858  22.589  0.00  0.00    +0.000 A 
ATOM     33  C   UNL     1      -3.919  12.820  21.750  0.00  0.00    +0.000 A 
ENDBRANCH  27  28
ENDBRANCH  24  27
ENDBRANCH  20  21
ENDBRANCH   2  20
TORSDOF 7
ENDMDL
MODEL 9
REMARK VINA RESULT:      -7.6      2.706      3.903
REMARK  Name = 
REMARK  7 active torsions:
REMARK  status: ('A' for Active; 'I' for Inactive)
REMARK    1  A    between atoms: C_2  and  C_4
REMARK    2  A    between atoms: C_2  and  C_19
REMARK    3  A    between atoms: C_4  and  C_5
REMARK    4  A    between atoms: C_11  and  N_12
REMARK    5  A    between atoms: C_19  and  N_20
REMARK    6  A    between atoms: C_23  and  C_24
REMARK    7  A    between atoms: C_24  and  C_25
REMARK                            x       y       z     vdW  Elec       q    Type
REMARK                         _______ _______ _______ _____ _____    ______ ____
ROOT
ATOM      1  F   UNL     1      -0.295   8.417  21.206  0.00  0.00    +0.000 F 
ATOM      2  C   UNL     1       1.012   8.784  21.184  0.00  0.00    +0.000 C 
ATOM      3  F   UNL     1       1.590   8.302  22.318  0.00  0.00    +0.000 F 
ENDROOT
BRANCH   2   4
ATOM      4  C   UNL     1       1.711   8.147  19.984  0.00  0.00    +0.000 C 
BRANCH   4   5
ATOM      5  C   UNL     1       1.959   6.677  20.169  0.00  0.00    +0.000 A 
ATOM      6  C   UNL     1       1.259   5.818  20.992  0.00  0.00    +0.000 A 
ATOM      7  N   UNL     1       1.805   4.568  20.870  0.00  0.00    +0.000 N 
ATOM      8  C   UNL     1       2.854   4.590  19.980  0.00  0.00    +0.000 A 
ATOM      9  C   UNL     1       3.690   3.560  19.539  0.00  0.00    +0.000 A 
ATOM     10  C   UNL     1       4.715   3.889  18.639  0.00  0.00    +0.000 A 
ATOM     11  C   UNL     1       4.908   5.206  18.205  0.00  0.00    +0.000 A 
ATOM     12  C   UNL     1       4.041   6.218  18.653  0.00  0.00    +0.000 A 
ATOM     13  C   UNL     1       2.992   5.905  19.547  0.00  0.00    +0.000 A 
ATOM     14  H   UNL     1       1.496   3.747  21.374  0.00  0.00    +0.000 HD
BRANCH  11  15
ATOM     15  N   UNL     1       5.974   5.535  17.327  0.00  0.00    +0.000 N 
ATOM     16  C   UNL     1       6.444   4.814  16.254  0.00  0.00    +0.000 A 
ATOM     17  N   UNL     1       7.450   5.438  15.684  0.00  0.00    +0.000 NA
ATOM     18  N   UNL     1       7.660   6.602  16.375  0.00  0.00    +0.000 NA
ATOM     19  C   UNL     1       6.776   6.653  17.343  0.00  0.00    +0.000 A 
ENDBRANCH  11  15
ENDBRANCH   4   5
ENDBRANCH   2   4
BRANCH   2  20
ATOM     20  C   UNL     1       1.119  10.331  21.155  0.00  0.00    +0.000 C 
BRANCH  20  21
ATOM     21  N   UNL     1       0.172  11.046  20.256  0.00  0.00    +0.000 NA
ATOM     22  C   UNL     1      -0.825  11.805  21.028  0.00  0.00    +0.000 C 
ATOM     23  C   UNL     1      -1.791  12.568  20.127  0.00  0.00    +0.000 C 
ATOM     24  C   UNL     1      -1.058  13.517  19.177  0.00  0.00    +0.000 C 
ATOM     25  C   UNL     1      -0.050  12.673  18.379  0.00  0.00    +0.000 C 
ATOM     26  C   UNL     1       0.900  11.886  19.293  0.00  0.00    +0.000 C 
BRANCH  24  27
ATOM     27  C   UNL     1      -0.332  14.685  19.886  0.00  0.00    +0.000 C 
BRANCH  27  28
ATOM     28  C   UNL     1       0.211  15.777  18.998  0.00  0.00    +0.000 A 
ATOM     29  C   UNL     1      -0.660  16.726  18.442  0.00  0.00    +0.000 A 
ATOM     30  C   UNL     1      -0.171  17.777  17.667  0.00  0.00    +0.000 A 
ATOM     31  C   UNL     1       1.198  17.894  17.444  0.00  0.00    +0.000 A 
ATOM     32  C   UNL     1       2.075  16.958  17.990  0.00  0.00    +0.000 A 
ATOM     33  C   UNL     1       1.586  15.903  18.762  0.00  0.00    +0.000 A 
ENDBRANCH  27  28
ENDBRANCH  24  27
ENDBRANCH  20  21
ENDBRANCH   2  20
TORSDOF 7
ENDMDL
