MODEL 1
REMARK VINA RESULT:      -6.6      0.000      0.000
REMARK  Name = 
REMARK  8 active torsions:
REMARK  status: ('A' for Active; 'I' for Inactive)
REMARK    1  A    between atoms: C_2  and  C_3
REMARK    2  A    between atoms: C_3  and  C_4
REMARK    3  A    between atoms: C_4  and  C_5
REMARK    4  A    between atoms: C_5  and  O_6
REMARK    5  A    between atoms: O_6  and  N_7
REMARK    6  A    between atoms: C_10  and  O_11
REMARK    7  A    between atoms: C_12  and  O_13
REMARK    8  A    between atoms: N_21  and  C_22
REMARK                            x       y       z     vdW  Elec       q    Type
REMARK                         _______ _______ _______ _____ _____    ______ ____
ROOT
ATOM      1  N   UNL     1       1.143   7.332  21.119  0.00  0.00    +0.000 NA
ATOM      2  C   UNL     1       0.619   8.512  21.159  0.00  0.00    +0.000 C 
ATOM      3  C   UNL     1      -0.702   8.643  21.896  0.00  0.00    +0.000 C 
ATOM      4  C   UNL     1      -0.761   9.858  22.800  0.00  0.00    +0.000 C 
ATOM      5  C   UNL     1      -0.430  11.143  22.073  0.00  0.00    +0.000 C 
ATOM      6  C   UNL     1       0.931  11.011  21.382  0.00  0.00    +0.000 C 
ATOM      7  C   UNL     1       1.113   9.754  20.453  0.00  0.00    +0.000 C 
ATOM      8  C   UNL     1       0.393   9.821  19.085  0.00  0.00    +0.000 C 
ATOM      9  C   UNL     1       0.809  11.066  18.342  0.00  0.00    +0.000 C 
ATOM     10  C   UNL     1       0.457  12.223  19.271  0.00  0.00    +0.000 C 
ATOM     11  C   UNL     1       1.005  13.511  18.877  0.00  0.00    +0.000 C 
ATOM     12  O   UNL     1       1.630  13.605  17.806  0.00  0.00    +0.000 OA
ATOM     13  N   UNL     1       0.853  14.384  19.991  0.00  0.00    +0.000 N 
ATOM     14  C   UNL     1       0.998  13.630  21.148  0.00  0.00    +0.000 C 
ATOM     15  O   UNL     1       1.199  14.042  22.212  0.00  0.00    +0.000 OA
ATOM     16  C   UNL     1       1.217  12.224  20.579  0.00  0.00    +0.000 C 
ENDROOT
BRANCH  13  17
ATOM     17  C   UNL     1       0.896  15.897  19.914  0.00  0.00    +0.000 C 
ATOM     18  C   UNL     1      -0.393  15.937  19.141  0.00  0.00    +0.000 C 
ATOM     19  C   UNL     1      -1.427  15.395  20.303  0.00  0.00    +0.000 C 
ATOM     20  C   UNL     1      -1.827  16.579  21.159  0.00  0.00    +0.000 C 
ATOM     21  C   UNL     1      -0.554  17.136  21.800  0.00  0.00    +0.000 C 
ATOM     22  C   UNL     1       0.587  17.195  20.789  0.00  0.00    +0.000 C 
ENDBRANCH  13  17
BRANCH   4  23
ATOM     23  O   UNL     1       0.146   9.706  23.902  0.00  0.00    +0.000 OA
ATOM     24  H   UNL     1       1.051   9.903  23.604  0.00  0.00    +0.000 HD
ENDBRANCH   4  23
BRANCH   5  25
ATOM     25  O   UNL     1      -0.406  12.184  23.049  0.00  0.00    +0.000 OA
ATOM     26  H   UNL     1       0.524  12.342  23.316  0.00  0.00    +0.000 HD
ENDBRANCH   5  25
BRANCH   1  27
ATOM     27  O   UNL     1       2.357   7.243  20.424  0.00  0.00    +0.000 OA
BRANCH  27  28
ATOM     28  C   UNL     1       2.364   5.972  19.744  0.00  0.00    +0.000 C 
BRANCH  28  29
ATOM     29  C   UNL     1       1.963   4.882  20.728  0.00  0.00    +0.000 C 
BRANCH  29  30
ATOM     30  C   UNL     1       1.021   3.843  20.124  0.00  0.00    +0.000 C 
BRANCH  30  32
ATOM     31  C   UNL     1       2.178   2.747  17.793  0.00  0.00    +0.000 C 
ATOM     32  C   UNL     1       1.643   3.253  18.869  0.00  0.00    +0.000 C 
ENDBRANCH  30  32
ENDBRANCH  29  30
ENDBRANCH  28  29
ENDBRANCH  27  28
ENDBRANCH   1  27
TORSDOF 8
ENDMDL
MODEL 2
REMARK VINA RESULT:      -6.5      1.015      1.340
REMARK  Name = 
REMARK  8 active torsions:
REMARK  status: ('A' for Active; 'I' for Inactive)
REMARK    1  A    between atoms: C_2  and  C_3
REMARK    2  A    between atoms: C_3  and  C_4
REMARK    3  A    between atoms: C_4  and  C_5
REMARK    4  A    between atoms: C_5  and  O_6
REMARK    5  A    between atoms: O_6  and  N_7
REMARK    6  A    between atoms: C_10  and  O_11
REMARK    7  A    between atoms: C_12  and  O_13
REMARK    8  A    between atoms: N_21  and  C_22
REMARK                            x       y       z     vdW  Elec       q    Type
REMARK                         _______ _______ _______ _____ _____    ______ ____
ROOT
ATOM      1  N   UNL     1       1.167   7.606  20.844  0.00  0.00    +0.000 NA
ATOM      2  C   UNL     1       0.504   8.685  21.094  0.00  0.00    +0.000 C 
ATOM      3  C   UNL     1      -0.634   8.565  22.093  0.00  0.00    +0.000 C 
ATOM      4  C   UNL     1      -0.668   9.701  23.095  0.00  0.00    +0.000 C 
ATOM      5  C   UNL     1      -0.683  11.062  22.435  0.00  0.00    +0.000 C 
ATOM      6  C   UNL     1       0.503  11.184  21.474  0.00  0.00    +0.000 C 
ATOM      7  C   UNL     1       0.657  10.028  20.418  0.00  0.00    +0.000 C 
ATOM      8  C   UNL     1      -0.341  10.062  19.236  0.00  0.00    +0.000 C 
ATOM      9  C   UNL     1      -0.273  11.398  18.539  0.00  0.00    +0.000 C 
ATOM     10  C   UNL     1      -0.577  12.430  19.620  0.00  0.00    +0.000 C 
ATOM     11  C   UNL     1      -0.312  13.808  19.241  0.00  0.00    +0.000 C 
ATOM     12  O   UNL     1       0.051  14.061  18.078  0.00  0.00    +0.000 OA
ATOM     13  N   UNL     1      -0.343  14.580  20.437  0.00  0.00    +0.000 N 
ATOM     14  C   UNL     1       0.151  13.791  21.468  0.00  0.00    +0.000 C 
ATOM     15  O   UNL     1       0.515  14.166  22.501  0.00  0.00    +0.000 OA
ATOM     16  C   UNL     1       0.438  12.472  20.742  0.00  0.00    +0.000 C 
ENDROOT
BRANCH  13  17
ATOM     17  C   UNL     1      -0.529  16.083  20.489  0.00  0.00    +0.000 C 
ATOM     18  C   UNL     1      -1.958  15.964  20.035  0.00  0.00    +0.000 C 
ATOM     19  C   UNL     1      -2.601  15.204  21.347  0.00  0.00    +0.000 C 
ATOM     20  C   UNL     1      -2.946  16.262  22.375  0.00  0.00    +0.000 C 
ATOM     21  C   UNL     1      -1.648  16.974  22.758  0.00  0.00    +0.000 C 
ATOM     22  C   UNL     1      -0.798  17.266  21.525  0.00  0.00    +0.000 C 
ENDBRANCH  13  17
BRANCH   4  23
ATOM     23  O   UNL     1       0.465   9.627  23.972  0.00  0.00    +0.000 OA
ATOM     24  H   UNL     1       0.301   8.955  24.657  0.00  0.00    +0.000 HD
ENDBRANCH   4  23
BRANCH   5  25
ATOM     25  O   UNL     1      -0.597  12.035  23.476  0.00  0.00    +0.000 OA
ATOM     26  H   UNL     1      -0.684  12.927  23.079  0.00  0.00    +0.000 HD
ENDBRANCH   5  25
BRANCH   1  27
ATOM     27  O   UNL     1       2.204   7.748  19.912  0.00  0.00    +0.000 OA
BRANCH  27  28
ATOM     28  C   UNL     1       2.702   6.425  19.626  0.00  0.00    +0.000 C 
BRANCH  28  29
ATOM     29  C   UNL     1       2.485   6.123  18.149  0.00  0.00    +0.000 C 
BRANCH  29  30
ATOM     30  C   UNL     1       1.876   4.746  17.901  0.00  0.00    +0.000 C 
BRANCH  30  32
ATOM     31  C   UNL     1       1.105   3.585  20.357  0.00  0.00    +0.000 C 
ATOM     32  C   UNL     1       1.461   4.121  19.223  0.00  0.00    +0.000 C 
ENDBRANCH  30  32
ENDBRANCH  29  30
ENDBRANCH  28  29
ENDBRANCH  27  28
ENDBRANCH   1  27
TORSDOF 8
ENDMDL
MODEL 3
REMARK VINA RESULT:      -6.5      1.200      1.662
REMARK  Name = 
REMARK  8 active torsions:
REMARK  status: ('A' for Active; 'I' for Inactive)
REMARK    1  A    between atoms: C_2  and  C_3
REMARK    2  A    between atoms: C_3  and  C_4
REMARK    3  A    between atoms: C_4  and  C_5
REMARK    4  A    between atoms: C_5  and  O_6
REMARK    5  A    between atoms: O_6  and  N_7
REMARK    6  A    between atoms: C_10  and  O_11
REMARK    7  A    between atoms: C_12  and  O_13
REMARK    8  A    between atoms: N_21  and  C_22
REMARK                            x       y       z     vdW  Elec       q    Type
REMARK                         _______ _______ _______ _____ _____    ______ ____
ROOT
ATOM      1  N   UNL     1       1.203   7.243  21.130  0.00  0.00    +0.000 NA
ATOM      2  C   UNL     1       0.676   8.422  21.146  0.00  0.00    +0.000 C 
ATOM      3  C   UNL     1      -0.663   8.557  21.850  0.00  0.00    +0.000 C 
ATOM      4  C   UNL     1      -0.746   9.780  22.741  0.00  0.00    +0.000 C 
ATOM      5  C   UNL     1      -0.398  11.059  22.010  0.00  0.00    +0.000 C 
ATOM      6  C   UNL     1       0.979  10.923  21.355  0.00  0.00    +0.000 C 
ATOM      7  C   UNL     1       1.186   9.659  20.442  0.00  0.00    +0.000 C 
ATOM      8  C   UNL     1       0.500   9.712  19.056  0.00  0.00    +0.000 C 
ATOM      9  C   UNL     1       0.932  10.951  18.312  0.00  0.00    +0.000 C 
ATOM     10  C   UNL     1       0.555  12.116  19.222  0.00  0.00    +0.000 C 
ATOM     11  C   UNL     1       1.111  13.401  18.830  0.00  0.00    +0.000 C 
ATOM     12  O   UNL     1       1.762  13.487  17.774  0.00  0.00    +0.000 OA
ATOM     13  N   UNL     1       0.930  14.284  19.933  0.00  0.00    +0.000 N 
ATOM     14  C   UNL     1       1.048  13.540  21.099  0.00  0.00    +0.000 C 
ATOM     15  O   UNL     1       1.222  13.961  22.164  0.00  0.00    +0.000 OA
ATOM     16  C   UNL     1       1.283  12.130  20.548  0.00  0.00    +0.000 C 
ENDROOT
BRANCH  13  17
ATOM     17  C   UNL     1       0.973  15.796  19.843  0.00  0.00    +0.000 C 
ATOM     18  C   UNL     1      -0.301  15.827  19.045  0.00  0.00    +0.000 C 
ATOM     19  C   UNL     1      -1.357  15.295  20.192  0.00  0.00    +0.000 C 
ATOM     20  C   UNL     1      -1.774  16.485  21.030  0.00  0.00    +0.000 C 
ATOM     21  C   UNL     1      -0.514  17.049  21.690  0.00  0.00    +0.000 C 
ATOM     22  C   UNL     1       0.646  17.100  20.701  0.00  0.00    +0.000 C 
ENDBRANCH  13  17
BRANCH   4  23
ATOM     23  O   UNL     1       0.134   9.639  23.866  0.00  0.00    +0.000 OA
ATOM     24  H   UNL     1       0.356   8.698  23.985  0.00  0.00    +0.000 HD
ENDBRANCH   4  23
BRANCH   5  25
ATOM     25  O   UNL     1      -0.400  12.109  22.978  0.00  0.00    +0.000 OA
ATOM     26  H   UNL     1      -1.106  12.747  22.746  0.00  0.00    +0.000 HD
ENDBRANCH   5  25
BRANCH   1  27
ATOM     27  O   UNL     1       2.433   7.149  20.465  0.00  0.00    +0.000 OA
BRANCH  27  28
ATOM     28  C   UNL     1       2.392   5.952  19.662  0.00  0.00    +0.000 C 
BRANCH  28  29
ATOM     29  C   UNL     1       2.308   6.344  18.194  0.00  0.00    +0.000 C 
BRANCH  29  30
ATOM     30  C   UNL     1       3.282   7.455  17.812  0.00  0.00    +0.000 C 
BRANCH  30  32
ATOM     31  C   UNL     1       5.472   6.363  16.402  0.00  0.00    +0.000 C 
ATOM     32  C   UNL     1       4.461   6.868  17.053  0.00  0.00    +0.000 C 
ENDBRANCH  30  32
ENDBRANCH  29  30
ENDBRANCH  28  29
ENDBRANCH  27  28
ENDBRANCH   1  27
TORSDOF 8
ENDMDL
MODEL 4
REMARK VINA RESULT:      -6.3      3.494      6.037
REMARK  Name = 
REMARK  8 active torsions:
REMARK  status: ('A' for Active; 'I' for Inactive)
REMARK    1  A    between atoms: C_2  and  C_3
REMARK    2  A    between atoms: C_3  and  C_4
REMARK    3  A    between atoms: C_4  and  C_5
REMARK    4  A    between atoms: C_5  and  O_6
REMARK    5  A    between atoms: O_6  and  N_7
REMARK    6  A    between atoms: C_10  and  O_11
REMARK    7  A    between atoms: C_12  and  O_13
REMARK    8  A    between atoms: N_21  and  C_22
REMARK                            x       y       z     vdW  Elec       q    Type
REMARK                         _______ _______ _______ _____ _____    ______ ____
ROOT
ATOM      1  N   UNL     1       5.170   3.712  19.305  0.00  0.00    +0.000 NA
ATOM      2  C   UNL     1       4.053   4.356  19.247  0.00  0.00    +0.000 C 
ATOM      3  C   UNL     1       2.786   3.518  19.236  0.00  0.00    +0.000 C 
ATOM      4  C   UNL     1       1.708   4.057  20.153  0.00  0.00    +0.000 C 
ATOM      5  C   UNL     1       1.384   5.511  19.883  0.00  0.00    +0.000 C 
ATOM      6  C   UNL     1       2.664   6.347  19.953  0.00  0.00    +0.000 C 
ATOM      7  C   UNL     1       3.865   5.846  19.070  0.00  0.00    +0.000 C 
ATOM      8  C   UNL     1       3.739   6.115  17.551  0.00  0.00    +0.000 C 
ATOM      9  C   UNL     1       3.507   7.584  17.304  0.00  0.00    +0.000 C 
ATOM     10  C   UNL     1       2.244   7.927  18.088  0.00  0.00    +0.000 C 
ATOM     11  C   UNL     1       1.969   9.350  18.211  0.00  0.00    +0.000 C 
ATOM     12  O   UNL     1       2.701  10.165  17.622  0.00  0.00    +0.000 OA
ATOM     13  N   UNL     1       0.968   9.493  19.213  0.00  0.00    +0.000 N 
ATOM     14  C   UNL     1       1.171   8.503  20.165  0.00  0.00    +0.000 C 
ATOM     15  O   UNL     1       0.724   8.480  21.233  0.00  0.00    +0.000 OA
ATOM     16  C   UNL     1       2.377   7.755  19.585  0.00  0.00    +0.000 C 
ENDROOT
BRANCH  13  17
ATOM     17  C   UNL     1       0.090  10.716  19.386  0.00  0.00    +0.000 C 
ATOM     18  C   UNL     1       0.041  10.944  17.901  0.00  0.00    +0.000 C 
ATOM     19  C   UNL     1      -0.817   9.613  17.447  0.00  0.00    +0.000 C 
ATOM     20  C   UNL     1      -2.289   9.929  17.612  0.00  0.00    +0.000 C 
ATOM     21  C   UNL     1      -2.533  10.238  19.090  0.00  0.00    +0.000 C 
ATOM     22  C   UNL     1      -1.428  11.127  19.653  0.00  0.00    +0.000 C 
ENDBRANCH  13  17
BRANCH   4  23
ATOM     23  O   UNL     1       2.105   3.922  21.525  0.00  0.00    +0.000 OA
ATOM     24  H   UNL     1       1.393   3.486  22.026  0.00  0.00    +0.000 HD
ENDBRANCH   4  23
BRANCH   5  25
ATOM     25  O   UNL     1       0.449   5.925  20.879  0.00  0.00    +0.000 OA
ATOM     26  H   UNL     1       0.202   6.858  20.708  0.00  0.00    +0.000 HD
ENDBRANCH   5  25
BRANCH   1  27
ATOM     27  O   UNL     1       6.320   4.514  19.304  0.00  0.00    +0.000 OA
BRANCH  27  28
ATOM     28  C   UNL     1       6.814   4.545  17.950  0.00  0.00    +0.000 C 
BRANCH  28  29
ATOM     29  C   UNL     1       7.772   5.720  17.800  0.00  0.00    +0.000 C 
BRANCH  29  30
ATOM     30  C   UNL     1       7.111   6.961  17.205  0.00  0.00    +0.000 C 
BRANCH  30  32
ATOM     31  C   UNL     1       8.429   9.280  18.131  0.00  0.00    +0.000 C 
ATOM     32  C   UNL     1       7.820   8.209  17.703  0.00  0.00    +0.000 C 
ENDBRANCH  30  32
ENDBRANCH  29  30
ENDBRANCH  28  29
ENDBRANCH  27  28
ENDBRANCH   1  27
TORSDOF 8
ENDMDL
MODEL 5
REMARK VINA RESULT:      -6.3      1.324      1.546
REMARK  Name = 
REMARK  8 active torsions:
REMARK  status: ('A' for Active; 'I' for Inactive)
REMARK    1  A    between atoms: C_2  and  C_3
REMARK    2  A    between atoms: C_3  and  C_4
REMARK    3  A    between atoms: C_4  and  C_5
REMARK    4  A    between atoms: C_5  and  O_6
REMARK    5  A    between atoms: O_6  and  N_7
REMARK    6  A    between atoms: C_10  and  O_11
REMARK    7  A    between atoms: C_12  and  O_13
REMARK    8  A    between atoms: N_21  and  C_22
REMARK                            x       y       z     vdW  Elec       q    Type
REMARK                         _______ _______ _______ _____ _____    ______ ____
ROOT
ATOM      1  N   UNL     1       1.345   7.833  20.355  0.00  0.00    +0.000 NA
ATOM      2  C   UNL     1       0.624   8.837  20.728  0.00  0.00    +0.000 C 
ATOM      3  C   UNL     1      -0.460   8.550  21.752  0.00  0.00    +0.000 C 
ATOM      4  C   UNL     1      -0.526   9.586  22.856  0.00  0.00    +0.000 C 
ATOM      5  C   UNL     1      -0.658  10.998  22.325  0.00  0.00    +0.000 C 
ATOM      6  C   UNL     1       0.476  11.286  21.337  0.00  0.00    +0.000 C 
ATOM      7  C   UNL     1       0.660  10.243  20.174  0.00  0.00    +0.000 C 
ATOM      8  C   UNL     1      -0.387  10.314  19.037  0.00  0.00    +0.000 C 
ATOM      9  C   UNL     1      -0.436  11.708  18.464  0.00  0.00    +0.000 C 
ATOM     10  C   UNL     1      -0.760  12.615  19.646  0.00  0.00    +0.000 C 
ATOM     11  C   UNL     1      -0.602  14.038  19.386  0.00  0.00    +0.000 C 
ATOM     12  O   UNL     1      -0.307  14.418  18.239  0.00  0.00    +0.000 OA
ATOM     13  N   UNL     1      -0.633  14.695  20.649  0.00  0.00    +0.000 N 
ATOM     14  C   UNL     1      -0.046  13.853  21.584  0.00  0.00    +0.000 C 
ATOM     15  O   UNL     1       0.336  14.158  22.634  0.00  0.00    +0.000 OA
ATOM     16  C   UNL     1       0.296  12.627  20.729  0.00  0.00    +0.000 C 
ENDROOT
BRANCH  13  17
ATOM     17  C   UNL     1      -0.915  16.171  20.845  0.00  0.00    +0.000 C 
ATOM     18  C   UNL     1      -2.357  15.990  20.459  0.00  0.00    +0.000 C 
ATOM     19  C   UNL     1      -2.870  15.076  21.730  0.00  0.00    +0.000 C 
ATOM     20  C   UNL     1      -3.223  16.014  22.866  0.00  0.00    +0.000 C 
ATOM     21  C   UNL     1      -1.954  16.781  23.242  0.00  0.00    +0.000 C 
ATOM     22  C   UNL     1      -1.200  17.238  21.997  0.00  0.00    +0.000 C 
ENDBRANCH  13  17
BRANCH   4  23
ATOM     23  O   UNL     1       0.646   9.513  23.681  0.00  0.00    +0.000 OA
ATOM     24  H   UNL     1       0.674  10.286  24.271  0.00  0.00    +0.000 HD
ENDBRANCH   4  23
BRANCH   5  25
ATOM     25  O   UNL     1      -0.591  11.877  23.447  0.00  0.00    +0.000 OA
ATOM     26  H   UNL     1       0.001  11.481  24.120  0.00  0.00    +0.000 HD
ENDBRANCH   5  25
BRANCH   1  27
ATOM     27  O   UNL     1       2.331   8.129  19.404  0.00  0.00    +0.000 OA
BRANCH  27  28
ATOM     28  C   UNL     1       2.421   6.994  18.519  0.00  0.00    +0.000 C 
BRANCH  28  29
ATOM     29  C   UNL     1       2.262   5.718  19.334  0.00  0.00    +0.000 C 
BRANCH  29  30
ATOM     30  C   UNL     1       1.957   4.492  18.477  0.00  0.00    +0.000 C 
BRANCH  30  32
ATOM     31  C   UNL     1       4.139   3.955  16.766  0.00  0.00    +0.000 C 
ATOM     32  C   UNL     1       3.131   4.203  17.556  0.00  0.00    +0.000 C 
ENDBRANCH  30  32
ENDBRANCH  29  30
ENDBRANCH  28  29
ENDBRANCH  27  28
ENDBRANCH   1  27
TORSDOF 8
ENDMDL
MODEL 6
REMARK VINA RESULT:      -6.1      3.425      6.031
REMARK  Name = 
REMARK  8 active torsions:
REMARK  status: ('A' for Active; 'I' for Inactive)
REMARK    1  A    between atoms: C_2  and  C_3
REMARK    2  A    between atoms: C_3  and  C_4
REMARK    3  A    between atoms: C_4  and  C_5
REMARK    4  A    between atoms: C_5  and  O_6
REMARK    5  A    between atoms: O_6  and  N_7
REMARK    6  A    between atoms: C_10  and  O_11
REMARK    7  A    between atoms: C_12  and  O_13
REMARK    8  A    between atoms: N_21  and  C_22
REMARK                            x       y       z     vdW  Elec       q    Type
REMARK                         _______ _______ _______ _____ _____    ______ ____
ROOT
ATOM      1  N   UNL     1       5.612   4.087  19.529  0.00  0.00    +0.000 NA
ATOM      2  C   UNL     1       4.418   4.557  19.383  0.00  0.00    +0.000 C 
ATOM      3  C   UNL     1       3.300   3.539  19.240  0.00  0.00    +0.000 C 
ATOM      4  C   UNL     1       2.077   3.877  20.068  0.00  0.00    +0.000 C 
ATOM      5  C   UNL     1       1.560   5.274  19.800  0.00  0.00    +0.000 C 
ATOM      6  C   UNL     1       2.686   6.291  20.003  0.00  0.00    +0.000 C 
ATOM      7  C   UNL     1       4.021   6.007  19.222  0.00  0.00    +0.000 C 
ATOM      8  C   UNL     1       3.987   6.306  17.704  0.00  0.00    +0.000 C 
ATOM      9  C   UNL     1       3.555   7.731  17.467  0.00  0.00    +0.000 C 
ATOM     10  C   UNL     1       2.192   7.853  18.141  0.00  0.00    +0.000 C 
ATOM     11  C   UNL     1       1.693   9.213  18.268  0.00  0.00    +0.000 C 
ATOM     12  O   UNL     1       2.340  10.149  17.765  0.00  0.00    +0.000 OA
ATOM     13  N   UNL     1       0.599   9.169  19.178  0.00  0.00    +0.000 N 
ATOM     14  C   UNL     1       0.868   8.189  20.123  0.00  0.00    +0.000 C 
ATOM     15  O   UNL     1       0.340   8.062  21.146  0.00  0.00    +0.000 OA
ATOM     16  C   UNL     1       2.219   7.651  19.640  0.00  0.00    +0.000 C 
ENDROOT
BRANCH  13  17
ATOM     17  C   UNL     1      -0.467  10.240  19.297  0.00  0.00    +0.000 C 
ATOM     18  C   UNL     1      -0.080  10.527  20.721  0.00  0.00    +0.000 C 
ATOM     19  C   UNL     1       1.422  11.158  20.476  0.00  0.00    +0.000 C 
ATOM     20  C   UNL     1       1.262  12.629  20.153  0.00  0.00    +0.000 C 
ATOM     21  C   UNL     1       0.428  12.733  18.874  0.00  0.00    +0.000 C 
ATOM     22  C   UNL     1      -0.748  11.761  18.907  0.00  0.00    +0.000 C 
ENDBRANCH  13  17
BRANCH   4  23
ATOM     23  O   UNL     1       2.371   3.756  21.467  0.00  0.00    +0.000 OA
ATOM     24  H   UNL     1       2.463   2.815  21.697  0.00  0.00    +0.000 HD
ENDBRANCH   4  23
BRANCH   5  25
ATOM     25  O   UNL     1       0.490   5.509  20.716  0.00  0.00    +0.000 OA
ATOM     26  H   UNL     1       0.631   4.953  21.510  0.00  0.00    +0.000 HD
ENDBRANCH   5  25
BRANCH   1  27
ATOM     27  O   UNL     1       6.621   5.052  19.649  0.00  0.00    +0.000 OA
BRANCH  27  28
ATOM     28  C   UNL     1       7.229   5.195  18.349  0.00  0.00    +0.000 C 
BRANCH  28  29
ATOM     29  C   UNL     1       8.098   6.445  18.344  0.00  0.00    +0.000 C 
BRANCH  29  30
ATOM     30  C   UNL     1       7.495   7.592  17.536  0.00  0.00    +0.000 C 
BRANCH  30  32
ATOM     31  C   UNL     1       8.725  10.026  18.270  0.00  0.00    +0.000 C 
ATOM     32  C   UNL     1       8.157   8.902  17.931  0.00  0.00    +0.000 C 
ENDBRANCH  30  32
ENDBRANCH  29  30
ENDBRANCH  28  29
ENDBRANCH  27  28
ENDBRANCH   1  27
TORSDOF 8
ENDMDL
MODEL 7
REMARK VINA RESULT:      -6.1      1.864      2.233
REMARK  Name = 
REMARK  8 active torsions:
REMARK  status: ('A' for Active; 'I' for Inactive)
REMARK    1  A    between atoms: C_2  and  C_3
REMARK    2  A    between atoms: C_3  and  C_4
REMARK    3  A    between atoms: C_4  and  C_5
REMARK    4  A    between atoms: C_5  and  O_6
REMARK    5  A    between atoms: O_6  and  N_7
REMARK    6  A    between atoms: C_10  and  O_11
REMARK    7  A    between atoms: C_12  and  O_13
REMARK    8  A    between atoms: N_21  and  C_22
REMARK                            x       y       z     vdW  Elec       q    Type
REMARK                         _______ _______ _______ _____ _____    ______ ____
ROOT
ATOM      1  N   UNL     1       1.290   7.921  20.353  0.00  0.00    +0.000 NA
ATOM      2  C   UNL     1       0.582   8.932  20.732  0.00  0.00    +0.000 C 
ATOM      3  C   UNL     1      -0.502   8.655  21.759  0.00  0.00    +0.000 C 
ATOM      4  C   UNL     1      -0.552   9.688  22.866  0.00  0.00    +0.000 C 
ATOM      5  C   UNL     1      -0.670  11.102  22.340  0.00  0.00    +0.000 C 
ATOM      6  C   UNL     1       0.464  11.381  21.349  0.00  0.00    +0.000 C 
ATOM      7  C   UNL     1       0.632  10.340  20.182  0.00  0.00    +0.000 C 
ATOM      8  C   UNL     1      -0.419  10.426  19.049  0.00  0.00    +0.000 C 
ATOM      9  C   UNL     1      -0.453  11.823  18.480  0.00  0.00    +0.000 C 
ATOM     10  C   UNL     1      -0.763  12.730  19.667  0.00  0.00    +0.000 C 
ATOM     11  C   UNL     1      -0.589  14.151  19.411  0.00  0.00    +0.000 C 
ATOM     12  O   UNL     1      -0.294  14.531  18.264  0.00  0.00    +0.000 OA
ATOM     13  N   UNL     1      -0.608  14.804  20.676  0.00  0.00    +0.000 N 
ATOM     14  C   UNL     1      -0.027  13.953  21.606  0.00  0.00    +0.000 C 
ATOM     15  O   UNL     1       0.362  14.250  22.655  0.00  0.00    +0.000 OA
ATOM     16  C   UNL     1       0.297  12.726  20.746  0.00  0.00    +0.000 C 
ENDROOT
BRANCH  13  17
ATOM     17  C   UNL     1      -0.872  16.283  20.878  0.00  0.00    +0.000 C 
ATOM     18  C   UNL     1      -2.311  16.124  20.473  0.00  0.00    +0.000 C 
ATOM     19  C   UNL     1      -2.853  15.210  21.732  0.00  0.00    +0.000 C 
ATOM     20  C   UNL     1      -3.207  16.146  22.869  0.00  0.00    +0.000 C 
ATOM     21  C   UNL     1      -1.932  16.892  23.266  0.00  0.00    +0.000 C 
ATOM     22  C   UNL     1      -1.157  17.347  22.033  0.00  0.00    +0.000 C 
ENDBRANCH  13  17
BRANCH   4  23
ATOM     23  O   UNL     1       0.622   9.598  23.686  0.00  0.00    +0.000 OA
ATOM     24  H   UNL     1       0.598  10.299  24.361  0.00  0.00    +0.000 HD
ENDBRANCH   4  23
BRANCH   5  25
ATOM     25  O   UNL     1      -0.589  11.977  23.465  0.00  0.00    +0.000 OA
ATOM     26  H   UNL     1       0.047  12.694  23.259  0.00  0.00    +0.000 HD
ENDBRANCH   5  25
BRANCH   1  27
ATOM     27  O   UNL     1       2.275   8.209  19.399  0.00  0.00    +0.000 OA
BRANCH  27  28
ATOM     28  C   UNL     1       2.580   6.975  18.718  0.00  0.00    +0.000 C 
BRANCH  28  29
ATOM     29  C   UNL     1       3.647   7.241  17.664  0.00  0.00    +0.000 C 
BRANCH  29  30
ATOM     30  C   UNL     1       4.799   6.240  17.711  0.00  0.00    +0.000 C 
BRANCH  30  32
ATOM     31  C   UNL     1       5.520   5.490  15.086  0.00  0.00    +0.000 C 
ATOM     32  C   UNL     1       5.187   5.837  16.298  0.00  0.00    +0.000 C 
ENDBRANCH  30  32
ENDBRANCH  29  30
ENDBRANCH  28  29
ENDBRANCH  27  28
ENDBRANCH   1  27
TORSDOF 8
ENDMDL
MODEL 8
REMARK VINA RESULT:      -6.1      3.276      5.928
REMARK  Name = 
REMARK  8 active torsions:
REMARK  status: ('A' for Active; 'I' for Inactive)
REMARK    1  A    between atoms: C_2  and  C_3
REMARK    2  A    between atoms: C_3  and  C_4
REMARK    3  A    between atoms: C_4  and  C_5
REMARK    4  A    between atoms: C_5  and  O_6
REMARK    5  A    between atoms: O_6  and  N_7
REMARK    6  A    between atoms: C_10  and  O_11
REMARK    7  A    between atoms: C_12  and  O_13
REMARK    8  A    between atoms: N_21  and  C_22
REMARK                            x       y       z     vdW  Elec       q    Type
REMARK                         _______ _______ _______ _____ _____    ______ ____
ROOT
ATOM      1  N   UNL     1       5.836   4.092  19.018  0.00  0.00    +0.000 NA
ATOM      2  C   UNL     1       4.619   4.525  19.003  0.00  0.00    +0.000 C 
ATOM      3  C   UNL     1       3.528   3.475  18.882  0.00  0.00    +0.000 C 
ATOM      4  C   UNL     1       2.368   3.713  19.827  0.00  0.00    +0.000 C 
ATOM      5  C   UNL     1       1.784   5.103  19.697  0.00  0.00    +0.000 C 
ATOM      6  C   UNL     1       2.889   6.147  19.877  0.00  0.00    +0.000 C 
ATOM      7  C   UNL     1       4.163   5.966  18.972  0.00  0.00    +0.000 C 
ATOM      8  C   UNL     1       3.992   6.360  17.486  0.00  0.00    +0.000 C 
ATOM      9  C   UNL     1       3.495   7.780  17.381  0.00  0.00    +0.000 C 
ATOM     10  C   UNL     1       2.190   7.806  18.170  0.00  0.00    +0.000 C 
ATOM     11  C   UNL     1       1.659   9.135  18.429  0.00  0.00    +0.000 C 
ATOM     12  O   UNL     1       2.230  10.125  17.940  0.00  0.00    +0.000 OA
ATOM     13  N   UNL     1       0.646   8.990  19.420  0.00  0.00    +0.000 N 
ATOM     14  C   UNL     1       1.026   7.962  20.272  0.00  0.00    +0.000 C 
ATOM     15  O   UNL     1       0.590   7.749  21.324  0.00  0.00    +0.000 OA
ATOM     16  C   UNL     1       2.349   7.509  19.645  0.00  0.00    +0.000 C 
ENDROOT
BRANCH  13  17
ATOM     17  C   UNL     1      -0.440  10.009  19.697  0.00  0.00    +0.000 C 
ATOM     18  C   UNL     1       0.070  10.238  21.092  0.00  0.00    +0.000 C 
ATOM     19  C   UNL     1       1.519  10.941  20.743  0.00  0.00    +0.000 C 
ATOM     20  C   UNL     1       1.277  12.420  20.518  0.00  0.00    +0.000 C 
ATOM     21  C   UNL     1       0.321  12.555  19.331  0.00  0.00    +0.000 C 
ATOM     22  C   UNL     1      -0.811  11.536  19.420  0.00  0.00    +0.000 C 
ENDBRANCH  13  17
BRANCH   4  23
ATOM     23  O   UNL     1       2.781   3.513  21.187  0.00  0.00    +0.000 OA
ATOM     24  H   UNL     1       3.412   4.211  21.438  0.00  0.00    +0.000 HD
ENDBRANCH   4  23
BRANCH   5  25
ATOM     25  O   UNL     1       0.787   5.237  20.711  0.00  0.00    +0.000 OA
ATOM     26  H   UNL     1       1.221   5.535  21.538  0.00  0.00    +0.000 HD
ENDBRANCH   5  25
BRANCH   1  27
ATOM     27  O   UNL     1       6.819   5.085  19.121  0.00  0.00    +0.000 OA
BRANCH  27  28
ATOM     28  C   UNL     1       7.710   4.918  18.000  0.00  0.00    +0.000 C 
BRANCH  28  29
ATOM     29  C   UNL     1       6.929   4.335  16.830  0.00  0.00    +0.000 C 
BRANCH  29  30
ATOM     30  C   UNL     1       7.018   5.187  15.565  0.00  0.00    +0.000 C 
BRANCH  30  32
ATOM     31  C   UNL     1       6.003   3.737  13.365  0.00  0.00    +0.000 C 
ATOM     32  C   UNL     1       6.471   4.406  14.381  0.00  0.00    +0.000 C 
ENDBRANCH  30  32
ENDBRANCH  29  30
ENDBRANCH  28  29
ENDBRANCH  27  28
ENDBRANCH   1  27
TORSDOF 8
ENDMDL
MODEL 9
REMARK VINA RESULT:      -6.1      0.974      1.210
REMARK  Name = 
REMARK  8 active torsions:
REMARK  status: ('A' for Active; 'I' for Inactive)
REMARK    1  A    between atoms: C_2  and  C_3
REMARK    2  A    between atoms: C_3  and  C_4
REMARK    3  A    between atoms: C_4  and  C_5
REMARK    4  A    between atoms: C_5  and  O_6
REMARK    5  A    between atoms: O_6  and  N_7
REMARK    6  A    between atoms: C_10  and  O_11
REMARK    7  A    between atoms: C_12  and  O_13
REMARK    8  A    between atoms: N_21  and  C_22
REMARK                            x       y       z     vdW  Elec       q    Type
REMARK                         _______ _______ _______ _____ _____    ______ ____
ROOT
ATOM      1  N   UNL     1       1.243   7.382  21.061  0.00  0.00    +0.000 NA
ATOM      2  C   UNL     1       0.694   8.549  21.116  0.00  0.00    +0.000 C 
ATOM      3  C   UNL     1      -0.623   8.644  21.867  0.00  0.00    +0.000 C 
ATOM      4  C   UNL     1      -0.700   9.848  22.784  0.00  0.00    +0.000 C 
ATOM      5  C   UNL     1      -0.404  11.148  22.066  0.00  0.00    +0.000 C 
ATOM      6  C   UNL     1       0.953  11.052  21.362  0.00  0.00    +0.000 C 
ATOM      7  C   UNL     1       1.154   9.809  20.419  0.00  0.00    +0.000 C 
ATOM      8  C   UNL     1       0.420   9.874  19.058  0.00  0.00    +0.000 C 
ATOM      9  C   UNL     1       0.801  11.134  18.324  0.00  0.00    +0.000 C 
ATOM     10  C   UNL     1       0.433  12.275  19.267  0.00  0.00    +0.000 C 
ATOM     11  C   UNL     1       0.949  13.578  18.881  0.00  0.00    +0.000 C 
ATOM     12  O   UNL     1       1.562  13.696  17.806  0.00  0.00    +0.000 OA
ATOM     13  N   UNL     1       0.788  14.436  20.006  0.00  0.00    +0.000 N 
ATOM     14  C   UNL     1       0.960  13.674  21.154  0.00  0.00    +0.000 C 
ATOM     15  O   UNL     1       1.162  14.080  22.220  0.00  0.00    +0.000 OA
ATOM     16  C   UNL     1       1.205  12.279  20.568  0.00  0.00    +0.000 C 
ENDROOT
BRANCH  13  17
ATOM     17  C   UNL     1       0.798  15.950  19.943  0.00  0.00    +0.000 C 
ATOM     18  C   UNL     1      -0.501  15.970  19.186  0.00  0.00    +0.000 C 
ATOM     19  C   UNL     1      -1.509  15.395  20.356  0.00  0.00    +0.000 C 
ATOM     20  C   UNL     1      -1.924  16.561  21.229  0.00  0.00    +0.000 C 
ATOM     21  C   UNL     1      -0.656  17.139  21.859  0.00  0.00    +0.000 C 
ATOM     22  C   UNL     1       0.472  17.232  20.835  0.00  0.00    +0.000 C 
ENDBRANCH  13  17
BRANCH   4  23
ATOM     23  O   UNL     1       0.220   9.705  23.875  0.00  0.00    +0.000 OA
ATOM     24  H   UNL     1       0.498  10.587  24.181  0.00  0.00    +0.000 HD
ENDBRANCH   4  23
BRANCH   5  25
ATOM     25  O   UNL     1      -0.393  12.180  23.053  0.00  0.00    +0.000 OA
ATOM     26  H   UNL     1      -1.203  12.099  23.599  0.00  0.00    +0.000 HD
ENDBRANCH   5  25
BRANCH   1  27
ATOM     27  O   UNL     1       2.452   7.326  20.353  0.00  0.00    +0.000 OA
BRANCH  27  28
ATOM     28  C   UNL     1       2.368   6.198  19.459  0.00  0.00    +0.000 C 
BRANCH  28  29
ATOM     29  C   UNL     1       2.633   4.922  20.246  0.00  0.00    +0.000 C 
BRANCH  29  30
ATOM     30  C   UNL     1       3.611   3.979  19.550  0.00  0.00    +0.000 C 
BRANCH  30  32
ATOM     31  C   UNL     1       6.015   5.349  18.980  0.00  0.00    +0.000 C 
ATOM     32  C   UNL     1       4.905   4.716  19.243  0.00  0.00    +0.000 C 
ENDBRANCH  30  32
ENDBRANCH  29  30
ENDBRANCH  28  29
ENDBRANCH  27  28
ENDBRANCH   1  27
TORSDOF 8
ENDMDL
