MODEL 1
REMARK VINA RESULT:      -6.6      0.000      0.000
REMARK  Name = 
REMARK  6 active torsions:
REMARK  status: ('A' for Active; 'I' for Inactive)
REMARK    1  A    between atoms: C_1  and  C_2
REMARK    2  A    between atoms: C_2  and  C_3
REMARK    3  A    between atoms: C_3  and  C_4
REMARK    4  A    between atoms: C_5  and  C_6
REMARK    5  A    between atoms: C_6  and  N_7
REMARK    6  A    between atoms: N_7  and  C_8
REMARK                            x       y       z     vdW  Elec       q    Type
REMARK                         _______ _______ _______ _____ _____    ______ ____
ROOT
ATOM      1  C   UNL     1       4.488   3.283  17.717  0.00  0.00    +0.000 A 
ATOM      2  C   UNL     1       3.173   3.279  17.448  0.00  0.00    +0.000 A 
ATOM      3  C   UNL     1       2.198   2.821  18.444  0.00  0.00    +0.000 A 
ATOM      4  O   UNL     1       0.992   2.821  18.195  0.00  0.00    +0.000 OA
ATOM      5  N   UNL     1       2.711   2.415  19.634  0.00  0.00    +0.000 N 
ATOM      6  C   UNL     1       4.036   2.426  19.948  0.00  0.00    +0.000 A 
ATOM      7  O   UNL     1       4.448   2.085  21.046  0.00  0.00    +0.000 OA
ATOM      8  N   UNL     1       4.879   2.856  18.955  0.00  0.00    +0.000 N 
ATOM      9  H   UNL     1       2.064   2.107  20.342  0.00  0.00    +0.000 HD
ATOM     10  H   UNL     1       5.860   2.869  19.204  0.00  0.00    +0.000 HD
ENDROOT
BRANCH   1  11
ATOM     11  N   UNL     1       5.421   3.711  16.792  0.00  0.00    +0.000 N 
ATOM     12  H   UNL     1       6.345   3.309  16.905  0.00  0.00    +0.000 HD
BRANCH  11  13
ATOM     13  C   UNL     1       5.401   5.056  16.236  0.00  0.00    +0.000 C 
BRANCH  13  15
ATOM     14  C   UNL     1       5.995   3.869  14.135  0.00  0.00    +0.000 C 
ATOM     15  C   UNL     1       5.733   5.017  14.783  0.00  0.00    +0.000 C 
BRANCH  14  16
ATOM     16  C   UNL     1       6.382   3.799  12.691  0.00  0.00    +0.000 C 
BRANCH  16  18
ATOM     17  C   UNL     1       4.301   3.247  11.400  0.00  0.00    +0.000 C 
ATOM     18  C   UNL     1       5.605   2.704  11.960  0.00  0.00    +0.000 C 
ENDBRANCH  16  18
ENDBRANCH  14  16
ENDBRANCH  13  15
ENDBRANCH  11  13
ENDBRANCH   1  11
TORSDOF 5
ENDMDL
MODEL 2
REMARK VINA RESULT:      -6.5      3.820      6.014
REMARK  Name = 
REMARK  6 active torsions:
REMARK  status: ('A' for Active; 'I' for Inactive)
REMARK    1  A    between atoms: C_1  and  C_2
REMARK    2  A    between atoms: C_2  and  C_3
REMARK    3  A    between atoms: C_3  and  C_4
REMARK    4  A    between atoms: C_5  and  C_6
REMARK    5  A    between atoms: C_6  and  N_7
REMARK    6  A    between atoms: N_7  and  C_8
REMARK                            x       y       z     vdW  Elec       q    Type
REMARK                         _______ _______ _______ _____ _____    ______ ____
ROOT
ATOM      1  C   UNL     1       6.372   4.790  17.661  0.00  0.00    +0.000 A 
ATOM      2  C   UNL     1       6.696   5.919  17.012  0.00  0.00    +0.000 A 
ATOM      3  C   UNL     1       7.553   6.933  17.637  0.00  0.00    +0.000 A 
ATOM      4  O   UNL     1       7.850   7.966  17.038  0.00  0.00    +0.000 OA
ATOM      5  N   UNL     1       7.989   6.649  18.891  0.00  0.00    +0.000 N 
ATOM      6  C   UNL     1       7.698   5.506  19.571  0.00  0.00    +0.000 A 
ATOM      7  O   UNL     1       8.144   5.278  20.685  0.00  0.00    +0.000 OA
ATOM      8  N   UNL     1       6.880   4.618  18.919  0.00  0.00    +0.000 N 
ATOM      9  H   UNL     1       8.589   7.322  19.341  0.00  0.00    +0.000 HD
ATOM     10  H   UNL     1       6.679   3.768  19.429  0.00  0.00    +0.000 HD
ENDROOT
BRANCH   1  11
ATOM     11  N   UNL     1       5.567   3.824  17.088  0.00  0.00    +0.000 N 
ATOM     12  H   UNL     1       6.022   3.259  16.380  0.00  0.00    +0.000 HD
BRANCH  11  13
ATOM     13  C   UNL     1       4.139   4.022  16.891  0.00  0.00    +0.000 C 
BRANCH  13  15
ATOM     14  C   UNL     1       2.036   3.038  17.776  0.00  0.00    +0.000 C 
ATOM     15  C   UNL     1       3.366   3.208  17.872  0.00  0.00    +0.000 C 
BRANCH  14  16
ATOM     16  C   UNL     1       1.221   2.272  18.772  0.00  0.00    +0.000 C 
BRANCH  16  18
ATOM     17  C   UNL     1       0.973   4.115  20.460  0.00  0.00    +0.000 C 
ATOM     18  C   UNL     1       1.525   2.722  20.200  0.00  0.00    +0.000 C 
ENDBRANCH  16  18
ENDBRANCH  14  16
ENDBRANCH  13  15
ENDBRANCH  11  13
ENDBRANCH   1  11
TORSDOF 5
ENDMDL
MODEL 3
REMARK VINA RESULT:      -6.4      3.760      4.959
REMARK  Name = 
REMARK  6 active torsions:
REMARK  status: ('A' for Active; 'I' for Inactive)
REMARK    1  A    between atoms: C_1  and  C_2
REMARK    2  A    between atoms: C_2  and  C_3
REMARK    3  A    between atoms: C_3  and  C_4
REMARK    4  A    between atoms: C_5  and  C_6
REMARK    5  A    between atoms: C_6  and  N_7
REMARK    6  A    between atoms: N_7  and  C_8
REMARK                            x       y       z     vdW  Elec       q    Type
REMARK                         _______ _______ _______ _____ _____    ______ ____
ROOT
ATOM      1  C   UNL     1       6.744   6.262  16.848  0.00  0.00    +0.000 A 
ATOM      2  C   UNL     1       7.061   5.432  17.855  0.00  0.00    +0.000 A 
ATOM      3  C   UNL     1       7.904   5.880  18.969  0.00  0.00    +0.000 A 
ATOM      4  O   UNL     1       8.190   5.118  19.892  0.00  0.00    +0.000 OA
ATOM      5  N   UNL     1       8.327   7.169  18.911  0.00  0.00    +0.000 N 
ATOM      6  C   UNL     1       8.008   8.044  17.917  0.00  0.00    +0.000 A 
ATOM      7  O   UNL     1       8.382   9.206  17.927  0.00  0.00    +0.000 OA
ATOM      8  N   UNL     1       7.228   7.539  16.909  0.00  0.00    +0.000 N 
ATOM      9  H   UNL     1       8.897   7.509  19.669  0.00  0.00    +0.000 HD
ATOM     10  H   UNL     1       6.988   8.200  16.182  0.00  0.00    +0.000 HD
ENDROOT
BRANCH   1  11
ATOM     11  N   UNL     1       5.952   5.857  15.792  0.00  0.00    +0.000 N 
ATOM     12  H   UNL     1       5.367   6.586  15.397  0.00  0.00    +0.000 HD
BRANCH  11  13
ATOM     13  C   UNL     1       5.398   4.514  15.707  0.00  0.00    +0.000 C 
BRANCH  13  15
ATOM     14  C   UNL     1       5.999   4.186  13.318  0.00  0.00    +0.000 C 
ATOM     15  C   UNL     1       6.042   3.761  14.593  0.00  0.00    +0.000 C 
BRANCH  14  16
ATOM     16  C   UNL     1       6.589   3.429  12.169  0.00  0.00    +0.000 C 
BRANCH  16  18
ATOM     17  C   UNL     1       6.410   1.173  11.080  0.00  0.00    +0.000 C 
ATOM     18  C   UNL     1       5.638   2.339  11.676  0.00  0.00    +0.000 C 
ENDBRANCH  16  18
ENDBRANCH  14  16
ENDBRANCH  13  15
ENDBRANCH  11  13
ENDBRANCH   1  11
TORSDOF 5
ENDMDL
MODEL 4
REMARK VINA RESULT:      -6.3      3.106      6.066
REMARK  Name = 
REMARK  6 active torsions:
REMARK  status: ('A' for Active; 'I' for Inactive)
REMARK    1  A    between atoms: C_1  and  C_2
REMARK    2  A    between atoms: C_2  and  C_3
REMARK    3  A    between atoms: C_3  and  C_4
REMARK    4  A    between atoms: C_5  and  C_6
REMARK    5  A    between atoms: C_6  and  N_7
REMARK    6  A    between atoms: N_7  and  C_8
REMARK                            x       y       z     vdW  Elec       q    Type
REMARK                         _______ _______ _______ _____ _____    ______ ____
ROOT
ATOM      1  C   UNL     1       4.974   3.976  16.744  0.00  0.00    +0.000 A 
ATOM      2  C   UNL     1       5.348   4.381  15.520  0.00  0.00    +0.000 A 
ATOM      3  C   UNL     1       6.695   4.908  15.275  0.00  0.00    +0.000 A 
ATOM      4  O   UNL     1       7.036   5.276  14.151  0.00  0.00    +0.000 OA
ATOM      5  N   UNL     1       7.519   4.952  16.353  0.00  0.00    +0.000 N 
ATOM      6  C   UNL     1       7.181   4.531  17.603  0.00  0.00    +0.000 A 
ATOM      7  O   UNL     1       7.969   4.556  18.535  0.00  0.00    +0.000 OA
ATOM      8  N   UNL     1       5.899   4.065  17.746  0.00  0.00    +0.000 N 
ATOM      9  H   UNL     1       8.455   5.298  16.213  0.00  0.00    +0.000 HD
ATOM     10  H   UNL     1       5.662   3.745  18.677  0.00  0.00    +0.000 HD
ENDROOT
BRANCH   1  11
ATOM     11  N   UNL     1       3.710   3.476  16.992  0.00  0.00    +0.000 N 
ATOM     12  H   UNL     1       2.973   4.172  17.002  0.00  0.00    +0.000 HD
BRANCH  11  13
ATOM     13  C   UNL     1       3.486   2.334  17.865  0.00  0.00    +0.000 C 
BRANCH  13  15
ATOM     14  C   UNL     1       1.931   3.856  19.065  0.00  0.00    +0.000 C 
ATOM     15  C   UNL     1       2.687   2.744  19.055  0.00  0.00    +0.000 C 
BRANCH  14  16
ATOM     16  C   UNL     1       1.158   4.325  20.259  0.00  0.00    +0.000 C 
BRANCH  16  18
ATOM     17  C   UNL     1       2.457   6.389  19.657  0.00  0.00    +0.000 C 
ATOM     18  C   UNL     1       1.655   5.687  20.742  0.00  0.00    +0.000 C 
ENDBRANCH  16  18
ENDBRANCH  14  16
ENDBRANCH  13  15
ENDBRANCH  11  13
ENDBRANCH   1  11
TORSDOF 5
ENDMDL
MODEL 5
REMARK VINA RESULT:      -6.3      0.814      1.024
REMARK  Name = 
REMARK  6 active torsions:
REMARK  status: ('A' for Active; 'I' for Inactive)
REMARK    1  A    between atoms: C_1  and  C_2
REMARK    2  A    between atoms: C_2  and  C_3
REMARK    3  A    between atoms: C_3  and  C_4
REMARK    4  A    between atoms: C_5  and  C_6
REMARK    5  A    between atoms: C_6  and  N_7
REMARK    6  A    between atoms: N_7  and  C_8
REMARK                            x       y       z     vdW  Elec       q    Type
REMARK                         _______ _______ _______ _____ _____    ______ ____
ROOT
ATOM      1  C   UNL     1       4.089   3.875  17.453  0.00  0.00    +0.000 A 
ATOM      2  C   UNL     1       2.771   3.630  17.373  0.00  0.00    +0.000 A 
ATOM      3  C   UNL     1       2.105   2.750  18.340  0.00  0.00    +0.000 A 
ATOM      4  O   UNL     1       0.896   2.530  18.266  0.00  0.00    +0.000 OA
ATOM      5  N   UNL     1       2.900   2.216  19.302  0.00  0.00    +0.000 N 
ATOM      6  C   UNL     1       4.235   2.458  19.425  0.00  0.00    +0.000 A 
ATOM      7  O   UNL     1       4.903   1.984  20.330  0.00  0.00    +0.000 OA
ATOM      8  N   UNL     1       4.779   3.281  18.472  0.00  0.00    +0.000 N 
ATOM      9  H   UNL     1       2.468   1.618  19.987  0.00  0.00    +0.000 HD
ATOM     10  H   UNL     1       5.769   3.463  18.580  0.00  0.00    +0.000 HD
ENDROOT
BRANCH   1  11
ATOM     11  N   UNL     1       4.733   4.701  16.552  0.00  0.00    +0.000 N 
ATOM     12  H   UNL     1       4.121   5.322  16.034  0.00  0.00    +0.000 HD
BRANCH  11  13
ATOM     13  C   UNL     1       5.932   4.286  15.839  0.00  0.00    +0.000 C 
BRANCH  13  15
ATOM     14  C   UNL     1       6.584   3.815  13.488  0.00  0.00    +0.000 C 
ATOM     15  C   UNL     1       5.627   4.083  14.394  0.00  0.00    +0.000 C 
BRANCH  14  16
ATOM     16  C   UNL     1       6.321   3.657  12.023  0.00  0.00    +0.000 C 
BRANCH  16  18
ATOM     17  C   UNL     1       6.370   1.308  11.137  0.00  0.00    +0.000 C 
ATOM     18  C   UNL     1       5.500   2.400  11.738  0.00  0.00    +0.000 C 
ENDBRANCH  16  18
ENDBRANCH  14  16
ENDBRANCH  13  15
ENDBRANCH  11  13
ENDBRANCH   1  11
TORSDOF 5
ENDMDL
MODEL 6
REMARK VINA RESULT:      -6.2      3.879      6.244
REMARK  Name = 
REMARK  6 active torsions:
REMARK  status: ('A' for Active; 'I' for Inactive)
REMARK    1  A    between atoms: C_1  and  C_2
REMARK    2  A    between atoms: C_2  and  C_3
REMARK    3  A    between atoms: C_3  and  C_4
REMARK    4  A    between atoms: C_5  and  C_6
REMARK    5  A    between atoms: C_6  and  N_7
REMARK    6  A    between atoms: N_7  and  C_8
REMARK                            x       y       z     vdW  Elec       q    Type
REMARK                         _______ _______ _______ _____ _____    ______ ____
ROOT
ATOM      1  C   UNL     1       6.200   4.510  17.940  0.00  0.00    +0.000 A 
ATOM      2  C   UNL     1       6.709   5.745  18.070  0.00  0.00    +0.000 A 
ATOM      3  C   UNL     1       7.272   6.457  16.916  0.00  0.00    +0.000 A 
ATOM      4  O   UNL     1       7.735   7.591  17.038  0.00  0.00    +0.000 OA
ATOM      5  N   UNL     1       7.237   5.790  15.734  0.00  0.00    +0.000 N 
ATOM      6  C   UNL     1       6.710   4.546  15.562  0.00  0.00    +0.000 A 
ATOM      7  O   UNL     1       6.668   4.001  14.471  0.00  0.00    +0.000 OA
ATOM      8  N   UNL     1       6.217   3.948  16.694  0.00  0.00    +0.000 N 
ATOM      9  H   UNL     1       7.605   6.259  14.922  0.00  0.00    +0.000 HD
ATOM     10  H   UNL     1       5.819   3.029  16.553  0.00  0.00    +0.000 HD
ENDROOT
BRANCH   1  11
ATOM     11  N   UNL     1       5.665   3.825  19.015  0.00  0.00    +0.000 N 
ATOM     12  H   UNL     1       6.114   2.939  19.219  0.00  0.00    +0.000 HD
BRANCH  11  13
ATOM     13  C   UNL     1       4.249   3.886  19.345  0.00  0.00    +0.000 C 
BRANCH  13  15
ATOM     14  C   UNL     1       2.721   5.821  19.035  0.00  0.00    +0.000 C 
ATOM     15  C   UNL     1       3.834   5.298  19.579  0.00  0.00    +0.000 C 
BRANCH  14  16
ATOM     16  C   UNL     1       2.303   7.248  19.206  0.00  0.00    +0.000 C 
BRANCH  16  18
ATOM     17  C   UNL     1       1.775   9.315  17.881  0.00  0.00    +0.000 C 
ATOM     18  C   UNL     1       2.660   8.082  17.976  0.00  0.00    +0.000 C 
ENDBRANCH  16  18
ENDBRANCH  14  16
ENDBRANCH  13  15
ENDBRANCH  11  13
ENDBRANCH   1  11
TORSDOF 5
ENDMDL
MODEL 7
REMARK VINA RESULT:      -6.2      3.535      5.834
REMARK  Name = 
REMARK  6 active torsions:
REMARK  status: ('A' for Active; 'I' for Inactive)
REMARK    1  A    between atoms: C_1  and  C_2
REMARK    2  A    between atoms: C_2  and  C_3
REMARK    3  A    between atoms: C_3  and  C_4
REMARK    4  A    between atoms: C_5  and  C_6
REMARK    5  A    between atoms: C_6  and  N_7
REMARK    6  A    between atoms: N_7  and  C_8
REMARK                            x       y       z     vdW  Elec       q    Type
REMARK                         _______ _______ _______ _____ _____    ______ ____
ROOT
ATOM      1  C   UNL     1       5.373   6.063  16.700  0.00  0.00    +0.000 A 
ATOM      2  C   UNL     1       5.494   5.605  15.444  0.00  0.00    +0.000 A 
ATOM      3  C   UNL     1       6.573   4.681  15.076  0.00  0.00    +0.000 A 
ATOM      4  O   UNL     1       6.680   4.260  13.924  0.00  0.00    +0.000 OA
ATOM      5  N   UNL     1       7.419   4.328  16.077  0.00  0.00    +0.000 N 
ATOM      6  C   UNL     1       7.314   4.757  17.366  0.00  0.00    +0.000 A 
ATOM      7  O   UNL     1       8.078   4.383  18.242  0.00  0.00    +0.000 OA
ATOM      8  N   UNL     1       6.285   5.628  17.620  0.00  0.00    +0.000 N 
ATOM      9  H   UNL     1       8.163   3.685  15.857  0.00  0.00    +0.000 HD
ATOM     10  H   UNL     1       6.211   5.932  18.582  0.00  0.00    +0.000 HD
ENDROOT
BRANCH   1  11
ATOM     11  N   UNL     1       4.363   6.933  17.065  0.00  0.00    +0.000 N 
ATOM     12  H   UNL     1       4.536   7.904  16.832  0.00  0.00    +0.000 HD
BRANCH  11  13
ATOM     13  C   UNL     1       3.551   6.722  18.253  0.00  0.00    +0.000 C 
BRANCH  13  15
ATOM     14  C   UNL     1       2.445   4.502  18.415  0.00  0.00    +0.000 C 
ATOM     15  C   UNL     1       2.444   5.767  17.958  0.00  0.00    +0.000 C 
BRANCH  14  16
ATOM     16  C   UNL     1       1.378   3.502  18.095  0.00  0.00    +0.000 C 
BRANCH  16  18
ATOM     17  C   UNL     1       1.045   3.639  20.581  0.00  0.00    +0.000 C 
ATOM     18  C   UNL     1       0.923   2.756  19.349  0.00  0.00    +0.000 C 
ENDBRANCH  16  18
ENDBRANCH  14  16
ENDBRANCH  13  15
ENDBRANCH  11  13
ENDBRANCH   1  11
TORSDOF 5
ENDMDL
MODEL 8
REMARK VINA RESULT:      -6.2      3.342      6.389
REMARK  Name = 
REMARK  6 active torsions:
REMARK  status: ('A' for Active; 'I' for Inactive)
REMARK    1  A    between atoms: C_1  and  C_2
REMARK    2  A    between atoms: C_2  and  C_3
REMARK    3  A    between atoms: C_3  and  C_4
REMARK    4  A    between atoms: C_5  and  C_6
REMARK    5  A    between atoms: C_6  and  N_7
REMARK    6  A    between atoms: N_7  and  C_8
REMARK                            x       y       z     vdW  Elec       q    Type
REMARK                         _______ _______ _______ _____ _____    ______ ____
ROOT
ATOM      1  C   UNL     1       5.530   4.098  16.784  0.00  0.00    +0.000 A 
ATOM      2  C   UNL     1       5.906   4.159  15.497  0.00  0.00    +0.000 A 
ATOM      3  C   UNL     1       6.941   5.100  15.053  0.00  0.00    +0.000 A 
ATOM      4  O   UNL     1       7.285   5.151  13.873  0.00  0.00    +0.000 OA
ATOM      5  N   UNL     1       7.482   5.884  16.021  0.00  0.00    +0.000 N 
ATOM      6  C   UNL     1       7.141   5.835  17.338  0.00  0.00    +0.000 A 
ATOM      7  O   UNL     1       7.683   6.536  18.178  0.00  0.00    +0.000 OA
ATOM      8  N   UNL     1       6.156   4.937  17.663  0.00  0.00    +0.000 N 
ATOM      9  H   UNL     1       8.205   6.531  15.748  0.00  0.00    +0.000 HD
ATOM     10  H   UNL     1       5.918   4.902  18.646  0.00  0.00    +0.000 HD
ENDROOT
BRANCH   1  11
ATOM     11  N   UNL     1       4.558   3.219  17.220  0.00  0.00    +0.000 N 
ATOM     12  H   UNL     1       4.825   2.241  17.185  0.00  0.00    +0.000 HD
BRANCH  11  13
ATOM     13  C   UNL     1       3.139   3.473  17.027  0.00  0.00    +0.000 C 
BRANCH  13  15
ATOM     14  C   UNL     1       1.999   4.540  18.960  0.00  0.00    +0.000 C 
ATOM     15  C   UNL     1       2.425   3.428  18.335  0.00  0.00    +0.000 C 
BRANCH  14  16
ATOM     16  C   UNL     1       1.326   4.535  20.298  0.00  0.00    +0.000 C 
BRANCH  16  18
ATOM     17  C   UNL     1       1.971   2.667  21.848  0.00  0.00    +0.000 C 
ATOM     18  C   UNL     1       1.012   3.111  20.756  0.00  0.00    +0.000 C 
ENDBRANCH  16  18
ENDBRANCH  14  16
ENDBRANCH  13  15
ENDBRANCH  11  13
ENDBRANCH   1  11
TORSDOF 5
ENDMDL
MODEL 9
REMARK VINA RESULT:      -6.2      3.394      6.130
REMARK  Name = 
REMARK  6 active torsions:
REMARK  status: ('A' for Active; 'I' for Inactive)
REMARK    1  A    between atoms: C_1  and  C_2
REMARK    2  A    between atoms: C_2  and  C_3
REMARK    3  A    between atoms: C_3  and  C_4
REMARK    4  A    between atoms: C_5  and  C_6
REMARK    5  A    between atoms: C_6  and  N_7
REMARK    6  A    between atoms: N_7  and  C_8
REMARK                            x       y       z     vdW  Elec       q    Type
REMARK                         _______ _______ _______ _____ _____    ______ ____
ROOT
ATOM      1  C   UNL     1       5.051   4.993  16.893  0.00  0.00    +0.000 A 
ATOM      2  C   UNL     1       5.413   5.129  15.607  0.00  0.00    +0.000 A 
ATOM      3  C   UNL     1       6.818   5.011  15.199  0.00  0.00    +0.000 A 
ATOM      4  O   UNL     1       7.146   5.133  14.020  0.00  0.00    +0.000 OA
ATOM      5  N   UNL     1       7.704   4.755  16.195  0.00  0.00    +0.000 N 
ATOM      6  C   UNL     1       7.371   4.591  17.506  0.00  0.00    +0.000 A 
ATOM      7  O   UNL     1       8.200   4.326  18.361  0.00  0.00    +0.000 OA
ATOM      8  N   UNL     1       6.038   4.731  17.801  0.00  0.00    +0.000 N 
ATOM      9  H   UNL     1       8.675   4.656  15.943  0.00  0.00    +0.000 HD
ATOM     10  H   UNL     1       5.801   4.596  18.775  0.00  0.00    +0.000 HD
ENDROOT
BRANCH   1  11
ATOM     11  N   UNL     1       3.734   5.100  17.295  0.00  0.00    +0.000 N 
ATOM     12  H   UNL     1       3.059   4.708  16.647  0.00  0.00    +0.000 HD
BRANCH  11  13
ATOM     13  C   UNL     1       3.250   6.230  18.073  0.00  0.00    +0.000 C 
BRANCH  13  15
ATOM     14  C   UNL     1       2.888   4.763  20.046  0.00  0.00    +0.000 C 
ATOM     15  C   UNL     1       2.457   5.750  19.241  0.00  0.00    +0.000 C 
BRANCH  14  16
ATOM     16  C   UNL     1       2.095   4.221  21.194  0.00  0.00    +0.000 C 
BRANCH  16  18
ATOM     17  C   UNL     1       1.750   2.292  19.624  0.00  0.00    +0.000 C 
ATOM     18  C   UNL     1       1.134   3.124  20.737  0.00  0.00    +0.000 C 
ENDBRANCH  16  18
ENDBRANCH  14  16
ENDBRANCH  13  15
ENDBRANCH  11  13
ENDBRANCH   1  11
TORSDOF 5
ENDMDL
