MODEL 1
REMARK VINA RESULT:      -6.2      0.000      0.000
REMARK  Name = 
REMARK  3 active torsions:
REMARK  status: ('A' for Active; 'I' for Inactive)
REMARK    1  A    between atoms: C_1  and  C_2
REMARK    2  A    between atoms: C_3  and  C_4
REMARK    3  A    between atoms: C_4  and  O_6
REMARK                            x       y       z     vdW  Elec       q    Type
REMARK                         _______ _______ _______ _____ _____    ______ ____
ROOT
ATOM      1  C   UNL     1       4.857   6.718  16.660  0.00  0.00    +0.000 C 
ATOM      2  C   UNL     1       4.967   5.508  17.518  0.00  0.00    +0.000 A 
ATOM      3  C   UNL     1       6.026   4.611  17.597  0.00  0.00    +0.000 A 
ATOM      4  O   UNL     1       5.736   3.625  18.512  0.00  0.00    +0.000 OA
ATOM      5  C   UNL     1       4.504   3.893  19.010  0.00  0.00    +0.000 A 
ATOM      6  C   UNL     1       3.988   5.041  18.450  0.00  0.00    +0.000 A 
ATOM      7  C   UNL     1       2.680   5.571  18.819  0.00  0.00    +0.000 C 
ATOM      8  O   UNL     1       2.200   6.546  18.245  0.00  0.00    +0.000 OA
ATOM      9  C   UNL     1       1.991   4.953  20.030  0.00  0.00    +0.000 C 
ATOM     10  S   UNL     1       2.121   3.129  20.074  0.00  0.00    +0.000 S 
ATOM     11  C   UNL     1       3.941   2.971  20.024  0.00  0.00    +0.000 C 
ENDROOT
BRANCH   3  12
ATOM     12  C   UNL     1       7.307   4.546  16.924  0.00  0.00    +0.000 C 
ATOM     13  O   UNL     1       7.543   4.877  15.770  0.00  0.00    +0.000 OA
BRANCH  12  14
ATOM     14  O   UNL     1       8.270   4.062  17.752  0.00  0.00    +0.000 OA
ATOM     15  H   UNL     1       8.525   4.749  18.402  0.00  0.00    +0.000 HD
ENDBRANCH  12  14
ENDBRANCH   3  12
TORSDOF 2
ENDMDL
MODEL 2
REMARK VINA RESULT:      -6.2      1.056      1.194
REMARK  Name = 
REMARK  3 active torsions:
REMARK  status: ('A' for Active; 'I' for Inactive)
REMARK    1  A    between atoms: C_1  and  C_2
REMARK    2  A    between atoms: C_3  and  C_4
REMARK    3  A    between atoms: C_4  and  O_6
REMARK                            x       y       z     vdW  Elec       q    Type
REMARK                         _______ _______ _______ _____ _____    ______ ____
ROOT
ATOM      1  C   UNL     1       4.685   6.671  17.194  0.00  0.00    +0.000 C 
ATOM      2  C   UNL     1       4.812   5.468  18.061  0.00  0.00    +0.000 A 
ATOM      3  C   UNL     1       5.978   4.868  18.524  0.00  0.00    +0.000 A 
ATOM      4  O   UNL     1       5.665   3.775  19.299  0.00  0.00    +0.000 OA
ATOM      5  C   UNL     1       4.313   3.680  19.328  0.00  0.00    +0.000 A 
ATOM      6  C   UNL     1       3.735   4.697  18.600  0.00  0.00    +0.000 A 
ATOM      7  C   UNL     1       2.289   4.846  18.478  0.00  0.00    +0.000 C 
ATOM      8  O   UNL     1       1.794   5.706  17.753  0.00  0.00    +0.000 OA
ATOM      9  C   UNL     1       1.417   3.983  19.383  0.00  0.00    +0.000 C 
ATOM     10  S   UNL     1       2.005   2.255  19.506  0.00  0.00    +0.000 S 
ATOM     11  C   UNL     1       3.703   2.572  20.099  0.00  0.00    +0.000 C 
ENDROOT
BRANCH   3  12
ATOM     12  C   UNL     1       7.380   5.184  18.342  0.00  0.00    +0.000 C 
ATOM     13  O   UNL     1       7.925   6.251  18.586  0.00  0.00    +0.000 OA
BRANCH  12  14
ATOM     14  O   UNL     1       8.062   4.114  17.857  0.00  0.00    +0.000 OA
ATOM     15  H   UNL     1       8.310   4.274  16.923  0.00  0.00    +0.000 HD
ENDBRANCH  12  14
ENDBRANCH   3  12
TORSDOF 2
ENDMDL
MODEL 3
REMARK VINA RESULT:      -6.1      1.554      1.701
REMARK  Name = 
REMARK  3 active torsions:
REMARK  status: ('A' for Active; 'I' for Inactive)
REMARK    1  A    between atoms: C_1  and  C_2
REMARK    2  A    between atoms: C_3  and  C_4
REMARK    3  A    between atoms: C_4  and  O_6
REMARK                            x       y       z     vdW  Elec       q    Type
REMARK                         _______ _______ _______ _____ _____    ______ ____
ROOT
ATOM      1  C   UNL     1       4.793   6.948  16.763  0.00  0.00    +0.000 C 
ATOM      2  C   UNL     1       4.621   5.473  16.852  0.00  0.00    +0.000 A 
ATOM      3  C   UNL     1       5.356   4.486  16.203  0.00  0.00    +0.000 A 
ATOM      4  O   UNL     1       4.881   3.243  16.552  0.00  0.00    +0.000 OA
ATOM      5  C   UNL     1       3.853   3.437  17.416  0.00  0.00    +0.000 A 
ATOM      6  C   UNL     1       3.657   4.781  17.649  0.00  0.00    +0.000 A 
ATOM      7  C   UNL     1       2.625   5.273  18.555  0.00  0.00    +0.000 C 
ATOM      8  O   UNL     1       2.406   6.476  18.681  0.00  0.00    +0.000 OA
ATOM      9  C   UNL     1       1.918   4.249  19.435  0.00  0.00    +0.000 C 
ATOM     10  S   UNL     1       1.486   2.714  18.539  0.00  0.00    +0.000 S 
ATOM     11  C   UNL     1       3.151   2.247  17.950  0.00  0.00    +0.000 C 
ENDROOT
BRANCH   3  12
ATOM     12  C   UNL     1       6.471   4.544  15.281  0.00  0.00    +0.000 C 
ATOM     13  O   UNL     1       7.384   5.357  15.289  0.00  0.00    +0.000 OA
BRANCH  12  14
ATOM     14  O   UNL     1       6.398   3.544  14.363  0.00  0.00    +0.000 OA
ATOM     15  H   UNL     1       5.528   3.567  13.915  0.00  0.00    +0.000 HD
ENDBRANCH  12  14
ENDBRANCH   3  12
TORSDOF 2
ENDMDL
MODEL 4
REMARK VINA RESULT:      -6.0      2.028      2.278
REMARK  Name = 
REMARK  3 active torsions:
REMARK  status: ('A' for Active; 'I' for Inactive)
REMARK    1  A    between atoms: C_1  and  C_2
REMARK    2  A    between atoms: C_3  and  C_4
REMARK    3  A    between atoms: C_4  and  O_6
REMARK                            x       y       z     vdW  Elec       q    Type
REMARK                         _______ _______ _______ _____ _____    ______ ____
ROOT
ATOM      1  C   UNL     1       5.349   4.041  16.487  0.00  0.00    +0.000 C 
ATOM      2  C   UNL     1       4.844   4.463  17.821  0.00  0.00    +0.000 A 
ATOM      3  C   UNL     1       5.519   5.184  18.801  0.00  0.00    +0.000 A 
ATOM      4  O   UNL     1       4.701   5.368  19.892  0.00  0.00    +0.000 OA
ATOM      5  C   UNL     1       3.517   4.770  19.609  0.00  0.00    +0.000 A 
ATOM      6  C   UNL     1       3.540   4.210  18.350  0.00  0.00    +0.000 A 
ATOM      7  C   UNL     1       2.389   3.517  17.783  0.00  0.00    +0.000 C 
ATOM      8  O   UNL     1       2.458   2.948  16.695  0.00  0.00    +0.000 OA
ATOM      9  C   UNL     1       1.063   3.635  18.526  0.00  0.00    +0.000 C 
ATOM     10  S   UNL     1       1.244   3.471  20.339  0.00  0.00    +0.000 S 
ATOM     11  C   UNL     1       2.446   4.815  20.631  0.00  0.00    +0.000 C 
ENDROOT
BRANCH   3  12
ATOM     12  C   UNL     1       6.854   5.743  18.860  0.00  0.00    +0.000 C 
ATOM     13  O   UNL     1       7.371   6.485  18.038  0.00  0.00    +0.000 OA
BRANCH  12  14
ATOM     14  O   UNL     1       7.501   5.344  19.986  0.00  0.00    +0.000 OA
ATOM     15  H   UNL     1       6.860   4.960  20.619  0.00  0.00    +0.000 HD
ENDBRANCH  12  14
ENDBRANCH   3  12
TORSDOF 2
ENDMDL
MODEL 5
REMARK VINA RESULT:      -5.9      1.705      1.821
REMARK  Name = 
REMARK  3 active torsions:
REMARK  status: ('A' for Active; 'I' for Inactive)
REMARK    1  A    between atoms: C_1  and  C_2
REMARK    2  A    between atoms: C_3  and  C_4
REMARK    3  A    between atoms: C_4  and  O_6
REMARK                            x       y       z     vdW  Elec       q    Type
REMARK                         _______ _______ _______ _____ _____    ______ ____
ROOT
ATOM      1  C   UNL     1       5.017   4.265  15.713  0.00  0.00    +0.000 C 
ATOM      2  C   UNL     1       4.952   4.162  17.196  0.00  0.00    +0.000 A 
ATOM      3  C   UNL     1       5.974   4.388  18.113  0.00  0.00    +0.000 A 
ATOM      4  O   UNL     1       5.507   4.187  19.392  0.00  0.00    +0.000 OA
ATOM      5  C   UNL     1       4.200   3.837  19.289  0.00  0.00    +0.000 A 
ATOM      6  C   UNL     1       3.800   3.819  17.971  0.00  0.00    +0.000 A 
ATOM      7  C   UNL     1       2.436   3.491  17.573  0.00  0.00    +0.000 C 
ATOM      8  O   UNL     1       2.121   3.393  16.389  0.00  0.00    +0.000 OA
ATOM      9  C   UNL     1       1.387   3.404  18.675  0.00  0.00    +0.000 C 
ATOM     10  S   UNL     1       1.986   2.527  20.165  0.00  0.00    +0.000 S 
ATOM     11  C   UNL     1       3.449   3.555  20.535  0.00  0.00    +0.000 C 
ENDROOT
BRANCH   3  12
ATOM     12  C   UNL     1       7.360   4.779  17.958  0.00  0.00    +0.000 C 
ATOM     13  O   UNL     1       8.210   4.206  17.292  0.00  0.00    +0.000 OA
BRANCH  12  14
ATOM     14  O   UNL     1       7.628   5.912  18.659  0.00  0.00    +0.000 OA
ATOM     15  H   UNL     1       8.243   6.480  18.150  0.00  0.00    +0.000 HD
ENDBRANCH  12  14
ENDBRANCH   3  12
TORSDOF 2
ENDMDL
MODEL 6
REMARK VINA RESULT:      -5.9      2.125      2.816
REMARK  Name = 
REMARK  3 active torsions:
REMARK  status: ('A' for Active; 'I' for Inactive)
REMARK    1  A    between atoms: C_1  and  C_2
REMARK    2  A    between atoms: C_3  and  C_4
REMARK    3  A    between atoms: C_4  and  O_6
REMARK                            x       y       z     vdW  Elec       q    Type
REMARK                         _______ _______ _______ _____ _____    ______ ____
ROOT
ATOM      1  C   UNL     1       7.677   4.766  17.657  0.00  0.00    +0.000 C 
ATOM      2  C   UNL     1       6.340   4.445  17.087  0.00  0.00    +0.000 A 
ATOM      3  C   UNL     1       5.988   4.331  15.747  0.00  0.00    +0.000 A 
ATOM      4  O   UNL     1       4.651   4.022  15.640  0.00  0.00    +0.000 OA
ATOM      5  C   UNL     1       4.157   3.942  16.900  0.00  0.00    +0.000 A 
ATOM      6  C   UNL     1       5.147   4.178  17.830  0.00  0.00    +0.000 A 
ATOM      7  C   UNL     1       4.896   4.136  19.266  0.00  0.00    +0.000 C 
ATOM      8  O   UNL     1       5.770   4.436  20.076  0.00  0.00    +0.000 OA
ATOM      9  C   UNL     1       3.553   3.582  19.726  0.00  0.00    +0.000 C 
ATOM     10  S   UNL     1       2.149   4.179  18.717  0.00  0.00    +0.000 S 
ATOM     11  C   UNL     1       2.721   3.624  17.073  0.00  0.00    +0.000 C 
ENDROOT
BRANCH   3  12
ATOM     12  C   UNL     1       6.746   4.467  14.520  0.00  0.00    +0.000 C 
ATOM     13  O   UNL     1       7.572   5.332  14.265  0.00  0.00    +0.000 OA
BRANCH  12  14
ATOM     14  O   UNL     1       6.433   3.480  13.640  0.00  0.00    +0.000 OA
ATOM     15  H   UNL     1       6.759   2.620  13.976  0.00  0.00    +0.000 HD
ENDBRANCH  12  14
ENDBRANCH   3  12
TORSDOF 2
ENDMDL
MODEL 7
REMARK VINA RESULT:      -5.8      0.961      1.142
REMARK  Name = 
REMARK  3 active torsions:
REMARK  status: ('A' for Active; 'I' for Inactive)
REMARK    1  A    between atoms: C_1  and  C_2
REMARK    2  A    between atoms: C_3  and  C_4
REMARK    3  A    between atoms: C_4  and  O_6
REMARK                            x       y       z     vdW  Elec       q    Type
REMARK                         _______ _______ _______ _____ _____    ______ ____
ROOT
ATOM      1  C   UNL     1       4.776   7.009  17.118  0.00  0.00    +0.000 C 
ATOM      2  C   UNL     1       4.619   5.718  17.841  0.00  0.00    +0.000 A 
ATOM      3  C   UNL     1       5.392   4.569  17.713  0.00  0.00    +0.000 A 
ATOM      4  O   UNL     1       4.919   3.592  18.559  0.00  0.00    +0.000 OA
ATOM      5  C   UNL     1       3.856   4.115  19.219  0.00  0.00    +0.000 A 
ATOM      6  C   UNL     1       3.633   5.419  18.832  0.00  0.00    +0.000 A 
ATOM      7  C   UNL     1       2.560   6.228  19.398  0.00  0.00    +0.000 C 
ATOM      8  O   UNL     1       2.321   7.358  18.976  0.00  0.00    +0.000 OA
ATOM      9  C   UNL     1       1.832   5.674  20.617  0.00  0.00    +0.000 C 
ATOM     10  S   UNL     1       1.456   3.889  20.474  0.00  0.00    +0.000 S 
ATOM     11  C   UNL     1       3.149   3.260  20.200  0.00  0.00    +0.000 C 
ENDROOT
BRANCH   3  12
ATOM     12  C   UNL     1       6.542   4.249  16.893  0.00  0.00    +0.000 C 
ATOM     13  O   UNL     1       7.698   4.596  17.089  0.00  0.00    +0.000 OA
BRANCH  12  14
ATOM     14  O   UNL     1       6.186   3.475  15.834  0.00  0.00    +0.000 OA
ATOM     15  H   UNL     1       5.955   4.044  15.071  0.00  0.00    +0.000 HD
ENDBRANCH  12  14
ENDBRANCH   3  12
TORSDOF 2
ENDMDL
MODEL 8
REMARK VINA RESULT:      -5.8      1.321      1.386
REMARK  Name = 
REMARK  3 active torsions:
REMARK  status: ('A' for Active; 'I' for Inactive)
REMARK    1  A    between atoms: C_1  and  C_2
REMARK    2  A    between atoms: C_3  and  C_4
REMARK    3  A    between atoms: C_4  and  O_6
REMARK                            x       y       z     vdW  Elec       q    Type
REMARK                         _______ _______ _______ _____ _____    ______ ____
ROOT
ATOM      1  C   UNL     1       4.488   6.907  17.255  0.00  0.00    +0.000 C 
ATOM      2  C   UNL     1       4.196   5.491  17.608  0.00  0.00    +0.000 A 
ATOM      3  C   UNL     1       4.752   4.342  17.057  0.00  0.00    +0.000 A 
ATOM      4  O   UNL     1       4.214   3.228  17.659  0.00  0.00    +0.000 OA
ATOM      5  C   UNL     1       3.324   3.664  18.585  0.00  0.00    +0.000 A 
ATOM      6  C   UNL     1       3.280   5.041  18.610  0.00  0.00    +0.000 A 
ATOM      7  C   UNL     1       2.418   5.778  19.527  0.00  0.00    +0.000 C 
ATOM      8  O   UNL     1       2.326   7.003  19.473  0.00  0.00    +0.000 OA
ATOM      9  C   UNL     1       1.737   4.987  20.637  0.00  0.00    +0.000 C 
ATOM     10  S   UNL     1       1.060   3.387  20.063  0.00  0.00    +0.000 S 
ATOM     11  C   UNL     1       2.589   2.656  19.383  0.00  0.00    +0.000 C 
ENDROOT
BRANCH   3  12
ATOM     12  C   UNL     1       5.744   4.133  16.022  0.00  0.00    +0.000 C 
ATOM     13  O   UNL     1       5.539   4.051  14.820  0.00  0.00    +0.000 OA
BRANCH  12  14
ATOM     14  O   UNL     1       6.991   4.040  16.554  0.00  0.00    +0.000 OA
ATOM     15  H   UNL     1       7.272   3.103  16.581  0.00  0.00    +0.000 HD
ENDBRANCH  12  14
ENDBRANCH   3  12
TORSDOF 2
ENDMDL
MODEL 9
REMARK VINA RESULT:      -5.6      2.482      4.103
REMARK  Name = 
REMARK  3 active torsions:
REMARK  status: ('A' for Active; 'I' for Inactive)
REMARK    1  A    between atoms: C_1  and  C_2
REMARK    2  A    between atoms: C_3  and  C_4
REMARK    3  A    between atoms: C_4  and  O_6
REMARK                            x       y       z     vdW  Elec       q    Type
REMARK                         _______ _______ _______ _____ _____    ______ ____
ROOT
ATOM      1  C   UNL     1       2.105   4.846  17.909  0.00  0.00    +0.000 C 
ATOM      2  C   UNL     1       3.522   4.422  18.073  0.00  0.00    +0.000 A 
ATOM      3  C   UNL     1       4.001   3.173  18.452  0.00  0.00    +0.000 A 
ATOM      4  O   UNL     1       5.377   3.191  18.486  0.00  0.00    +0.000 OA
ATOM      5  C   UNL     1       5.769   4.440  18.132  0.00  0.00    +0.000 A 
ATOM      6  C   UNL     1       4.678   5.235  17.854  0.00  0.00    +0.000 A 
ATOM      7  C   UNL     1       4.811   6.624  17.430  0.00  0.00    +0.000 C 
ATOM      8  O   UNL     1       3.826   7.342  17.273  0.00  0.00    +0.000 OA
ATOM      9  C   UNL     1       6.208   7.113  17.064  0.00  0.00    +0.000 C 
ATOM     10  S   UNL     1       7.496   6.537  18.229  0.00  0.00    +0.000 S 
ATOM     11  C   UNL     1       7.220   4.736  18.093  0.00  0.00    +0.000 C 
ENDROOT
BRANCH   3  12
ATOM     12  C   UNL     1       3.338   1.931  18.791  0.00  0.00    +0.000 C 
ATOM     13  O   UNL     1       2.230   1.809  19.293  0.00  0.00    +0.000 OA
BRANCH  12  14
ATOM     14  O   UNL     1       4.111   0.860  18.469  0.00  0.00    +0.000 OA
ATOM     15  H   UNL     1       3.586   0.215  17.953  0.00  0.00    +0.000 HD
ENDBRANCH  12  14
ENDBRANCH   3  12
TORSDOF 2
ENDMDL
