MODEL 1
REMARK VINA RESULT:      -8.2      0.000      0.000
REMARK  Name = 
REMARK  2 active torsions:
REMARK  status: ('A' for Active; 'I' for Inactive)
REMARK    1  A    between atoms: C_1  and  C_2
REMARK    2  A    between atoms: C_9  and  C_10
REMARK                            x       y       z     vdW  Elec       q    Type
REMARK                         _______ _______ _______ _____ _____    ______ ____
ROOT
ATOM      1  C   UNL     1      -0.523  11.775  19.609  0.00  0.00    +0.000 C 
ATOM      2  C   UNL     1       0.101  10.673  20.414  0.00  0.00    +0.000 A 
ATOM      3  C   UNL     1      -0.028  10.628  21.751  0.00  0.00    +0.000 A 
ATOM      4  C   UNL     1       0.567   9.546  22.569  0.00  0.00    +0.000 A 
ATOM      5  O   UNL     1       0.433   9.531  23.787  0.00  0.00    +0.000 OA
ATOM      6  N   UNL     1       1.260   8.580  21.895  0.00  0.00    +0.000 N 
ATOM      7  C   UNL     1       1.434   8.581  20.506  0.00  0.00    +0.000 A 
ATOM      8  C   UNL     1       2.179   7.551  19.916  0.00  0.00    +0.000 A 
ATOM      9  C   UNL     1       2.386   7.506  18.525  0.00  0.00    +0.000 A 
ATOM     10  C   UNL     1       1.809   8.537  17.763  0.00  0.00    +0.000 A 
ATOM     11  C   UNL     1       1.070   9.572  18.354  0.00  0.00    +0.000 A 
ATOM     12  C   UNL     1       0.871   9.608  19.736  0.00  0.00    +0.000 A 
ATOM     13  H   UNL     1       1.658   7.848  22.465  0.00  0.00    +0.000 HD
ENDROOT
BRANCH   9  14
ATOM     14  C   UNL     1       3.183   6.428  17.889  0.00  0.00    +0.000 A 
ATOM     15  C   UNL     1       2.775   5.079  17.941  0.00  0.00    +0.000 A 
ATOM     16  C   UNL     1       3.534   4.064  17.347  0.00  0.00    +0.000 A 
ATOM     17  C   UNL     1       4.704   4.385  16.677  0.00  0.00    +0.000 A 
ATOM     18  F   UNL     1       5.426   3.415  16.102  0.00  0.00    +0.000 F 
ATOM     19  C   UNL     1       5.136   5.701  16.598  0.00  0.00    +0.000 A 
ATOM     20  C   UNL     1       4.384   6.710  17.206  0.00  0.00    +0.000 A 
ENDBRANCH   9  14
TORSDOF 1
ENDMDL
MODEL 2
REMARK VINA RESULT:      -8.0      0.369      1.159
REMARK  Name = 
REMARK  2 active torsions:
REMARK  status: ('A' for Active; 'I' for Inactive)
REMARK    1  A    between atoms: C_1  and  C_2
REMARK    2  A    between atoms: C_9  and  C_10
REMARK                            x       y       z     vdW  Elec       q    Type
REMARK                         _______ _______ _______ _____ _____    ______ ____
ROOT
ATOM      1  C   UNL     1      -0.175  12.212  19.500  0.00  0.00    +0.000 C 
ATOM      2  C   UNL     1       0.229  11.033  20.337  0.00  0.00    +0.000 A 
ATOM      3  C   UNL     1      -0.038  10.989  21.653  0.00  0.00    +0.000 A 
ATOM      4  C   UNL     1       0.339   9.833  22.500  0.00  0.00    +0.000 A 
ATOM      5  O   UNL     1       0.083   9.821  23.699  0.00  0.00    +0.000 OA
ATOM      6  N   UNL     1       0.975   8.799  21.876  0.00  0.00    +0.000 N 
ATOM      7  C   UNL     1       1.287   8.793  20.510  0.00  0.00    +0.000 A 
ATOM      8  C   UNL     1       1.959   7.688  19.972  0.00  0.00    +0.000 A 
ATOM      9  C   UNL     1       2.296   7.633  18.608  0.00  0.00    +0.000 A 
ATOM     10  C   UNL     1       1.925   8.735  17.817  0.00  0.00    +0.000 A 
ATOM     11  C   UNL     1       1.260   9.846  18.357  0.00  0.00    +0.000 A 
ATOM     12  C   UNL     1       0.931   9.890  19.713  0.00  0.00    +0.000 A 
ATOM     13  H   UNL     1       1.225   8.017  22.465  0.00  0.00    +0.000 HD
ENDROOT
BRANCH   9  14
ATOM     14  C   UNL     1       3.018   6.474  18.028  0.00  0.00    +0.000 A 
ATOM     15  C   UNL     1       4.301   6.612  17.460  0.00  0.00    +0.000 A 
ATOM     16  C   UNL     1       4.975   5.517  16.907  0.00  0.00    +0.000 A 
ATOM     17  C   UNL     1       4.382   4.264  16.926  0.00  0.00    +0.000 A 
ATOM     18  F   UNL     1       5.030   3.216  16.404  0.00  0.00    +0.000 F 
ATOM     19  C   UNL     1       3.123   4.087  17.482  0.00  0.00    +0.000 A 
ATOM     20  C   UNL     1       2.446   5.185  18.020  0.00  0.00    +0.000 A 
ENDBRANCH   9  14
TORSDOF 1
ENDMDL
MODEL 3
REMARK VINA RESULT:      -7.9      1.811      2.681
REMARK  Name = 
REMARK  2 active torsions:
REMARK  status: ('A' for Active; 'I' for Inactive)
REMARK    1  A    between atoms: C_1  and  C_2
REMARK    2  A    between atoms: C_9  and  C_10
REMARK                            x       y       z     vdW  Elec       q    Type
REMARK                         _______ _______ _______ _____ _____    ______ ____
ROOT
ATOM      1  C   UNL     1      -0.238   9.662  22.347  0.00  0.00    +0.000 C 
ATOM      2  C   UNL     1       0.126   9.965  20.922  0.00  0.00    +0.000 A 
ATOM      3  C   UNL     1      -0.303  11.084  20.316  0.00  0.00    +0.000 A 
ATOM      4  C   UNL     1       0.050  11.413  18.916  0.00  0.00    +0.000 A 
ATOM      5  O   UNL     1      -0.356  12.442  18.389  0.00  0.00    +0.000 OA
ATOM      6  N   UNL     1       0.846  10.517  18.259  0.00  0.00    +0.000 N 
ATOM      7  C   UNL     1       1.314   9.331  18.836  0.00  0.00    +0.000 A 
ATOM      8  C   UNL     1       2.110   8.471  18.068  0.00  0.00    +0.000 A 
ATOM      9  C   UNL     1       2.605   7.266  18.599  0.00  0.00    +0.000 A 
ATOM     10  C   UNL     1       2.266   6.973  19.932  0.00  0.00    +0.000 A 
ATOM     11  C   UNL     1       1.462   7.829  20.699  0.00  0.00    +0.000 A 
ATOM     12  C   UNL     1       0.975   9.022  20.161  0.00  0.00    +0.000 A 
ATOM     13  H   UNL     1       1.080  10.755  17.306  0.00  0.00    +0.000 HD
ENDROOT
BRANCH   9  14
ATOM     14  C   UNL     1       3.439   6.342  17.793  0.00  0.00    +0.000 A 
ATOM     15  C   UNL     1       4.502   6.811  16.994  0.00  0.00    +0.000 A 
ATOM     16  C   UNL     1       5.281   5.936  16.229  0.00  0.00    +0.000 A 
ATOM     17  C   UNL     1       5.018   4.575  16.262  0.00  0.00    +0.000 A 
ATOM     18  F   UNL     1       5.768   3.738  15.535  0.00  0.00    +0.000 F 
ATOM     19  C   UNL     1       3.985   4.073  17.039  0.00  0.00    +0.000 A 
ATOM     20  C   UNL     1       3.199   4.951  17.791  0.00  0.00    +0.000 A 
ENDBRANCH   9  14
TORSDOF 1
ENDMDL
MODEL 4
REMARK VINA RESULT:      -7.8      1.641      2.024
REMARK  Name = 
REMARK  2 active torsions:
REMARK  status: ('A' for Active; 'I' for Inactive)
REMARK    1  A    between atoms: C_1  and  C_2
REMARK    2  A    between atoms: C_9  and  C_10
REMARK                            x       y       z     vdW  Elec       q    Type
REMARK                         _______ _______ _______ _____ _____    ______ ____
ROOT
ATOM      1  C   UNL     1       1.096  11.347  18.737  0.00  0.00    +0.000 C 
ATOM      2  C   UNL     1       1.134  10.312  19.823  0.00  0.00    +0.000 A 
ATOM      3  C   UNL     1       0.797  10.617  21.087  0.00  0.00    +0.000 A 
ATOM      4  C   UNL     1       0.814   9.612  22.176  0.00  0.00    +0.000 A 
ATOM      5  O   UNL     1       0.502   9.919  23.320  0.00  0.00    +0.000 OA
ATOM      6  N   UNL     1       1.189   8.344  21.833  0.00  0.00    +0.000 N 
ATOM      7  C   UNL     1       1.559   7.972  20.535  0.00  0.00    +0.000 A 
ATOM      8  C   UNL     1       1.947   6.647  20.293  0.00  0.00    +0.000 A 
ATOM      9  C   UNL     1       2.329   6.222  19.009  0.00  0.00    +0.000 A 
ATOM     10  C   UNL     1       2.301   7.186  17.985  0.00  0.00    +0.000 A 
ATOM     11  C   UNL     1       1.921   8.515  18.228  0.00  0.00    +0.000 A 
ATOM     12  C   UNL     1       1.544   8.926  19.508  0.00  0.00    +0.000 A 
ATOM     13  H   UNL     1       1.195   7.670  22.585  0.00  0.00    +0.000 HD
ENDROOT
BRANCH   9  14
ATOM     14  C   UNL     1       2.752   4.825  18.742  0.00  0.00    +0.000 A 
ATOM     15  C   UNL     1       3.804   4.222  19.461  0.00  0.00    +0.000 A 
ATOM     16  C   UNL     1       4.205   2.906  19.202  0.00  0.00    +0.000 A 
ATOM     17  C   UNL     1       3.550   2.168  18.228  0.00  0.00    +0.000 A 
ATOM     18  F   UNL     1       3.929   0.908  17.985  0.00  0.00    +0.000 F 
ATOM     19  C   UNL     1       2.506   2.724  17.503  0.00  0.00    +0.000 A 
ATOM     20  C   UNL     1       2.117   4.043  17.755  0.00  0.00    +0.000 A 
ENDBRANCH   9  14
TORSDOF 1
ENDMDL
MODEL 5
REMARK VINA RESULT:      -7.7      1.638      1.863
REMARK  Name = 
REMARK  2 active torsions:
REMARK  status: ('A' for Active; 'I' for Inactive)
REMARK    1  A    between atoms: C_1  and  C_2
REMARK    2  A    between atoms: C_9  and  C_10
REMARK                            x       y       z     vdW  Elec       q    Type
REMARK                         _______ _______ _______ _____ _____    ______ ____
ROOT
ATOM      1  C   UNL     1       1.097  11.489  18.713  0.00  0.00    +0.000 C 
ATOM      2  C   UNL     1       1.065  10.453  19.799  0.00  0.00    +0.000 A 
ATOM      3  C   UNL     1       0.659  10.759  21.042  0.00  0.00    +0.000 A 
ATOM      4  C   UNL     1       0.607   9.754  22.129  0.00  0.00    +0.000 A 
ATOM      5  O   UNL     1       0.232  10.062  23.254  0.00  0.00    +0.000 OA
ATOM      6  N   UNL     1       0.993   8.484  21.807  0.00  0.00    +0.000 N 
ATOM      7  C   UNL     1       1.433   8.110  20.532  0.00  0.00    +0.000 A 
ATOM      8  C   UNL     1       1.825   6.782  20.311  0.00  0.00    +0.000 A 
ATOM      9  C   UNL     1       2.277   6.355  19.050  0.00  0.00    +0.000 A 
ATOM     10  C   UNL     1       2.313   7.320  18.027  0.00  0.00    +0.000 A 
ATOM     11  C   UNL     1       1.930   8.651  18.250  0.00  0.00    +0.000 A 
ATOM     12  C   UNL     1       1.484   9.065  19.506  0.00  0.00    +0.000 A 
ATOM     13  H   UNL     1       0.951   7.809  22.557  0.00  0.00    +0.000 HD
ENDROOT
BRANCH   9  14
ATOM     14  C   UNL     1       2.704   4.956  18.806  0.00  0.00    +0.000 A 
ATOM     15  C   UNL     1       1.919   4.065  18.046  0.00  0.00    +0.000 A 
ATOM     16  C   UNL     1       2.322   2.743  17.825  0.00  0.00    +0.000 A 
ATOM     17  C   UNL     1       3.525   2.296  18.349  0.00  0.00    +0.000 A 
ATOM     18  F   UNL     1       3.914   1.034  18.132  0.00  0.00    +0.000 F 
ATOM     19  C   UNL     1       4.329   3.143  19.097  0.00  0.00    +0.000 A 
ATOM     20  C   UNL     1       3.916   4.458  19.329  0.00  0.00    +0.000 A 
ENDBRANCH   9  14
TORSDOF 1
ENDMDL
MODEL 6
REMARK VINA RESULT:      -7.7      3.057      4.996
REMARK  Name = 
REMARK  2 active torsions:
REMARK  status: ('A' for Active; 'I' for Inactive)
REMARK    1  A    between atoms: C_1  and  C_2
REMARK    2  A    between atoms: C_9  and  C_10
REMARK                            x       y       z     vdW  Elec       q    Type
REMARK                         _______ _______ _______ _____ _____    ______ ____
ROOT
ATOM      1  C   UNL     1       1.525   3.156  20.791  0.00  0.00    +0.000 C 
ATOM      2  C   UNL     1       1.989   4.440  20.167  0.00  0.00    +0.000 A 
ATOM      3  C   UNL     1       1.635   5.631  20.678  0.00  0.00    +0.000 A 
ATOM      4  C   UNL     1       2.088   6.912  20.089  0.00  0.00    +0.000 A 
ATOM      5  O   UNL     1       1.748   7.984  20.576  0.00  0.00    +0.000 OA
ATOM      6  N   UNL     1       2.896   6.829  18.991  0.00  0.00    +0.000 N 
ATOM      7  C   UNL     1       3.290   5.618  18.411  0.00  0.00    +0.000 A 
ATOM      8  C   UNL     1       4.107   5.644  17.273  0.00  0.00    +0.000 A 
ATOM      9  C   UNL     1       4.529   4.456  16.650  0.00  0.00    +0.000 A 
ATOM     10  C   UNL     1       4.096   3.248  17.226  0.00  0.00    +0.000 A 
ATOM     11  C   UNL     1       3.271   3.221  18.360  0.00  0.00    +0.000 A 
ATOM     12  C   UNL     1       2.857   4.407  18.970  0.00  0.00    +0.000 A 
ATOM     13  H   UNL     1       3.199   7.711  18.601  0.00  0.00    +0.000 HD
ENDROOT
BRANCH   9  14
ATOM     14  C   UNL     1       5.385   4.471  15.438  0.00  0.00    +0.000 A 
ATOM     15  C   UNL     1       5.042   3.739  14.284  0.00  0.00    +0.000 A 
ATOM     16  C   UNL     1       5.856   3.749  13.145  0.00  0.00    +0.000 A 
ATOM     17  C   UNL     1       7.018   4.504  13.138  0.00  0.00    +0.000 A 
ATOM     18  F   UNL     1       7.793   4.520  12.047  0.00  0.00    +0.000 F 
ATOM     19  C   UNL     1       7.387   5.244  14.253  0.00  0.00    +0.000 A 
ATOM     20  C   UNL     1       6.580   5.219  15.394  0.00  0.00    +0.000 A 
ENDBRANCH   9  14
TORSDOF 1
ENDMDL
MODEL 7
REMARK VINA RESULT:      -7.6      3.811      6.877
REMARK  Name = 
REMARK  2 active torsions:
REMARK  status: ('A' for Active; 'I' for Inactive)
REMARK    1  A    between atoms: C_1  and  C_2
REMARK    2  A    between atoms: C_9  and  C_10
REMARK                            x       y       z     vdW  Elec       q    Type
REMARK                         _______ _______ _______ _____ _____    ______ ____
ROOT
ATOM      1  C   UNL     1       5.104   5.827  15.927  0.00  0.00    +0.000 C 
ATOM      2  C   UNL     1       4.612   5.420  17.285  0.00  0.00    +0.000 A 
ATOM      3  C   UNL     1       4.977   4.250  17.836  0.00  0.00    +0.000 A 
ATOM      4  C   UNL     1       4.514   3.829  19.179  0.00  0.00    +0.000 A 
ATOM      5  O   UNL     1       4.863   2.756  19.657  0.00  0.00    +0.000 OA
ATOM      6  N   UNL     1       3.692   4.694  19.843  0.00  0.00    +0.000 N 
ATOM      7  C   UNL     1       3.272   5.921  19.315  0.00  0.00    +0.000 A 
ATOM      8  C   UNL     1       2.411   6.727  20.072  0.00  0.00    +0.000 A 
ATOM      9  C   UNL     1       1.959   7.967  19.587  0.00  0.00    +0.000 A 
ATOM     10  C   UNL     1       2.412   8.355  18.313  0.00  0.00    +0.000 A 
ATOM     11  C   UNL     1       3.267   7.545  17.551  0.00  0.00    +0.000 A 
ATOM     12  C   UNL     1       3.709   6.315  18.042  0.00  0.00    +0.000 A 
ATOM     13  H   UNL     1       3.386   4.395  20.758  0.00  0.00    +0.000 HD
ENDROOT
BRANCH   9  14
ATOM     14  C   UNL     1       1.038   8.824  20.373  0.00  0.00    +0.000 A 
ATOM     15  C   UNL     1       0.831   8.615  21.752  0.00  0.00    +0.000 A 
ATOM     16  C   UNL     1      -0.044   9.421  22.489  0.00  0.00    +0.000 A 
ATOM     17  C   UNL     1      -0.714  10.460  21.861  0.00  0.00    +0.000 A 
ATOM     18  F   UNL     1      -1.545  11.235  22.567  0.00  0.00    +0.000 F 
ATOM     19  C   UNL     1      -0.532  10.702  20.508  0.00  0.00    +0.000 A 
ATOM     20  C   UNL     1       0.331   9.886  19.771  0.00  0.00    +0.000 A 
ENDBRANCH   9  14
TORSDOF 1
ENDMDL
MODEL 8
REMARK VINA RESULT:      -7.6      3.123      5.090
REMARK  Name = 
REMARK  2 active torsions:
REMARK  status: ('A' for Active; 'I' for Inactive)
REMARK    1  A    between atoms: C_1  and  C_2
REMARK    2  A    between atoms: C_9  and  C_10
REMARK                            x       y       z     vdW  Elec       q    Type
REMARK                         _______ _______ _______ _____ _____    ______ ____
ROOT
ATOM      1  C   UNL     1       1.477   2.911  20.878  0.00  0.00    +0.000 C 
ATOM      2  C   UNL     1       1.912   4.220  20.286  0.00  0.00    +0.000 A 
ATOM      3  C   UNL     1       1.523   5.390  20.819  0.00  0.00    +0.000 A 
ATOM      4  C   UNL     1       1.946   6.695  20.262  0.00  0.00    +0.000 A 
ATOM      5  O   UNL     1       1.576   7.747  20.769  0.00  0.00    +0.000 OA
ATOM      6  N   UNL     1       2.764   6.657  19.168  0.00  0.00    +0.000 N 
ATOM      7  C   UNL     1       3.194   5.469  18.565  0.00  0.00    +0.000 A 
ATOM      8  C   UNL     1       4.017   5.542  17.434  0.00  0.00    +0.000 A 
ATOM      9  C   UNL     1       4.475   4.379  16.789  0.00  0.00    +0.000 A 
ATOM     10  C   UNL     1       4.070   3.148  17.335  0.00  0.00    +0.000 A 
ATOM     11  C   UNL     1       3.238   3.074  18.462  0.00  0.00    +0.000 A 
ATOM     12  C   UNL     1       2.788   4.236  19.094  0.00  0.00    +0.000 A 
ATOM     13  H   UNL     1       3.046   7.554  18.800  0.00  0.00    +0.000 HD
ENDROOT
BRANCH   9  14
ATOM     14  C   UNL     1       5.338   4.442  15.584  0.00  0.00    +0.000 A 
ATOM     15  C   UNL     1       6.597   5.076  15.610  0.00  0.00    +0.000 A 
ATOM     16  C   UNL     1       7.405   5.141  14.468  0.00  0.00    +0.000 A 
ATOM     17  C   UNL     1       6.972   4.559  13.287  0.00  0.00    +0.000 A 
ATOM     18  F   UNL     1       7.748   4.614  12.198  0.00  0.00    +0.000 F 
ATOM     19  C   UNL     1       5.743   3.920  13.223  0.00  0.00    +0.000 A 
ATOM     20  C   UNL     1       4.931   3.870  14.360  0.00  0.00    +0.000 A 
ENDBRANCH   9  14
TORSDOF 1
ENDMDL
MODEL 9
REMARK VINA RESULT:      -7.6      3.615      5.239
REMARK  Name = 
REMARK  2 active torsions:
REMARK  status: ('A' for Active; 'I' for Inactive)
REMARK    1  A    between atoms: C_1  and  C_2
REMARK    2  A    between atoms: C_9  and  C_10
REMARK                            x       y       z     vdW  Elec       q    Type
REMARK                         _______ _______ _______ _____ _____    ______ ____
ROOT
ATOM      1  C   UNL     1       2.161   7.098  20.317  0.00  0.00    +0.000 C 
ATOM      2  C   UNL     1       2.367   5.703  19.803  0.00  0.00    +0.000 A 
ATOM      3  C   UNL     1       1.841   4.642  20.437  0.00  0.00    +0.000 A 
ATOM      4  C   UNL     1       2.019   3.256  19.944  0.00  0.00    +0.000 A 
ATOM      5  O   UNL     1       1.527   2.307  20.543  0.00  0.00    +0.000 OA
ATOM      6  N   UNL     1       2.750   3.103  18.800  0.00  0.00    +0.000 N 
ATOM      7  C   UNL     1       3.329   4.170  18.104  0.00  0.00    +0.000 A 
ATOM      8  C   UNL     1       4.077   3.901  16.949  0.00  0.00    +0.000 A 
ATOM      9  C   UNL     1       4.681   4.936  16.214  0.00  0.00    +0.000 A 
ATOM     10  C   UNL     1       4.496   6.246  16.691  0.00  0.00    +0.000 A 
ATOM     11  C   UNL     1       3.755   6.516  17.851  0.00  0.00    +0.000 A 
ATOM     12  C   UNL     1       3.160   5.480  18.575  0.00  0.00    +0.000 A 
ATOM     13  H   UNL     1       2.862   2.153  18.476  0.00  0.00    +0.000 HD
ENDROOT
BRANCH   9  14
ATOM     14  C   UNL     1       5.484   4.664  14.997  0.00  0.00    +0.000 A 
ATOM     15  C   UNL     1       4.987   3.864  13.948  0.00  0.00    +0.000 A 
ATOM     16  C   UNL     1       5.751   3.603  12.804  0.00  0.00    +0.000 A 
ATOM     17  C   UNL     1       7.019   4.150  12.686  0.00  0.00    +0.000 A 
ATOM     18  F   UNL     1       7.747   3.906  11.590  0.00  0.00    +0.000 F 
ATOM     19  C   UNL     1       7.541   4.947  13.694  0.00  0.00    +0.000 A 
ATOM     20  C   UNL     1       6.782   5.194  14.841  0.00  0.00    +0.000 A 
ENDBRANCH   9  14
TORSDOF 1
ENDMDL
