MODEL 1
REMARK VINA RESULT:      -7.7      0.000      0.000
REMARK  Name = 
REMARK  11 active torsions:
REMARK  status: ('A' for Active; 'I' for Inactive)
REMARK    1  A    between atoms: C_2  and  C_3
REMARK    2  A    between atoms: C_2  and  C_4
REMARK    3  A    between atoms: C_4  and  C_5
REMARK    4  A    between atoms: C_4  and  C_6
REMARK    5  A    between atoms: C_8  and  C_9
REMARK    6  A    between atoms: C_10  and  C_11
REMARK    7  A    between atoms: C_11  and  C_13
REMARK    8  A    between atoms: C_16  and  O_17
REMARK    9  A    between atoms: C_20  and  O_21
REMARK   10  A    between atoms: O_21  and  C_22
REMARK   11  A    between atoms: C_24  and  O_25
REMARK                            x       y       z     vdW  Elec       q    Type
REMARK                         _______ _______ _______ _____ _____    ______ ____
ROOT
ATOM      1  C   UNL     1       3.461   3.490  18.612  0.00  0.00    +0.000 A 
ATOM      2  C   UNL     1       3.296   4.892  18.682  0.00  0.00    +0.000 A 
ATOM      3  C   UNL     1       3.841   5.786  17.712  0.00  0.00    +0.000 A 
ATOM      4  C   UNL     1       4.552   5.243  16.630  0.00  0.00    +0.000 A 
ATOM      5  C   UNL     1       4.686   3.847  16.543  0.00  0.00    +0.000 A 
ATOM      6  C   UNL     1       4.151   2.992  17.505  0.00  0.00    +0.000 A 
ENDROOT
BRANCH   1   7
ATOM      7  C   UNL     1       2.998   2.542  19.726  0.00  0.00    +0.000 C 
ATOM      8  C   UNL     1       4.097   2.404  20.794  0.00  0.00    +0.000 C 
BRANCH   7  10
ATOM      9  C   UNL     1       1.292   2.902  21.593  0.00  0.00    +0.000 C 
ATOM     10  C   UNL     1       1.596   2.818  20.283  0.00  0.00    +0.000 C 
ATOM     11  C   UNL     1       0.476   2.846  19.272  0.00  0.00    +0.000 C 
ENDBRANCH   7  10
ENDBRANCH   1   7
BRANCH   3  12
ATOM     12  C   UNL     1       3.571   7.215  17.955  0.00  0.00    +0.000 C 
ATOM     13  C   UNL     1       2.316   7.683  17.861  0.00  0.00    +0.000 C 
BRANCH  13  14
ATOM     14  C   UNL     1       1.900   9.062  18.274  0.00  0.00    +0.000 C 
ATOM     15  O   UNL     1       2.121  10.052  17.587  0.00  0.00    +0.000 OA
BRANCH  14  16
ATOM     16  C   UNL     1       1.150   9.141  19.572  0.00  0.00    +0.000 A 
ATOM     17  C   UNL     1       0.178  10.136  19.779  0.00  0.00    +0.000 A 
ATOM     18  C   UNL     1      -0.434  10.289  21.025  0.00  0.00    +0.000 A 
ATOM     19  C   UNL     1      -0.098   9.424  22.058  0.00  0.00    +0.000 A 
ATOM     20  C   UNL     1       0.815   8.391  21.854  0.00  0.00    +0.000 A 
ATOM     21  C   UNL     1       1.437   8.242  20.607  0.00  0.00    +0.000 A 
BRANCH  19  22
ATOM     22  O   UNL     1      -0.653   9.557  23.296  0.00  0.00    +0.000 OA
ATOM     23  H   UNL     1      -0.423  10.432  23.652  0.00  0.00    +0.000 HD
ENDBRANCH  19  22
ENDBRANCH  14  16
ENDBRANCH  13  14
ENDBRANCH   3  12
BRANCH   4  24
ATOM     24  O   UNL     1       5.189   5.834  15.578  0.00  0.00    +0.000 OA
ATOM     25  C   UNL     1       6.244   5.202  14.884  0.00  0.00    +0.000 C 
ENDBRANCH   4  24
BRANCH   6  26
ATOM     26  O   UNL     1       4.321   1.643  17.365  0.00  0.00    +0.000 OA
ATOM     27  H   UNL     1       5.208   1.472  17.008  0.00  0.00    +0.000 HD
ENDBRANCH   6  26
TORSDOF 8
ENDMDL
MODEL 2
REMARK VINA RESULT:      -7.7      2.298      4.772
REMARK  Name = 
REMARK  11 active torsions:
REMARK  status: ('A' for Active; 'I' for Inactive)
REMARK    1  A    between atoms: C_2  and  C_3
REMARK    2  A    between atoms: C_2  and  C_4
REMARK    3  A    between atoms: C_4  and  C_5
REMARK    4  A    between atoms: C_4  and  C_6
REMARK    5  A    between atoms: C_8  and  C_9
REMARK    6  A    between atoms: C_10  and  C_11
REMARK    7  A    between atoms: C_11  and  C_13
REMARK    8  A    between atoms: C_16  and  O_17
REMARK    9  A    between atoms: C_20  and  O_21
REMARK   10  A    between atoms: O_21  and  C_22
REMARK   11  A    between atoms: C_24  and  O_25
REMARK                            x       y       z     vdW  Elec       q    Type
REMARK                         _______ _______ _______ _____ _____    ______ ____
ROOT
ATOM      1  C   UNL     1       4.702   5.567  18.263  0.00  0.00    +0.000 A 
ATOM      2  C   UNL     1       3.878   6.650  18.643  0.00  0.00    +0.000 A 
ATOM      3  C   UNL     1       2.684   6.485  19.407  0.00  0.00    +0.000 A 
ATOM      4  C   UNL     1       2.327   5.189  19.816  0.00  0.00    +0.000 A 
ATOM      5  C   UNL     1       3.165   4.117  19.465  0.00  0.00    +0.000 A 
ATOM      6  C   UNL     1       4.325   4.301  18.714  0.00  0.00    +0.000 A 
ENDROOT
BRANCH   1   7
ATOM      7  C   UNL     1       5.907   5.728  17.326  0.00  0.00    +0.000 C 
ATOM      8  C   UNL     1       5.441   6.233  15.949  0.00  0.00    +0.000 C 
BRANCH   7  10
ATOM      9  C   UNL     1       7.616   7.624  17.407  0.00  0.00    +0.000 C 
ATOM     10  C   UNL     1       7.101   6.488  17.915  0.00  0.00    +0.000 C 
ATOM     11  C   UNL     1       7.818   5.809  19.057  0.00  0.00    +0.000 C 
ENDBRANCH   7  10
ENDBRANCH   1   7
BRANCH   3  12
ATOM     12  C   UNL     1       1.951   7.730  19.702  0.00  0.00    +0.000 C 
ATOM     13  C   UNL     1       1.560   7.992  20.960  0.00  0.00    +0.000 C 
BRANCH  13  14
ATOM     14  C   UNL     1       0.988   9.303  21.406  0.00  0.00    +0.000 C 
ATOM     15  O   UNL     1       0.985   9.657  22.579  0.00  0.00    +0.000 OA
BRANCH  14  16
ATOM     16  C   UNL     1       0.460  10.177  20.306  0.00  0.00    +0.000 A 
ATOM     17  C   UNL     1       1.165  11.323  19.899  0.00  0.00    +0.000 A 
ATOM     18  C   UNL     1       0.619  12.204  18.963  0.00  0.00    +0.000 A 
ATOM     19  C   UNL     1      -0.621  11.921  18.406  0.00  0.00    +0.000 A 
ATOM     20  C   UNL     1      -1.307  10.757  18.748  0.00  0.00    +0.000 A 
ATOM     21  C   UNL     1      -0.764   9.877  19.695  0.00  0.00    +0.000 A 
BRANCH  19  22
ATOM     22  O   UNL     1      -1.200  12.768  17.510  0.00  0.00    +0.000 OA
ATOM     23  H   UNL     1      -0.778  13.641  17.583  0.00  0.00    +0.000 HD
ENDBRANCH  19  22
ENDBRANCH  14  16
ENDBRANCH  13  14
ENDBRANCH   3  12
BRANCH   4  24
ATOM     24  O   UNL     1       1.257   4.727  20.524  0.00  0.00    +0.000 OA
ATOM     25  C   UNL     1       1.120   3.367  20.882  0.00  0.00    +0.000 C 
ENDBRANCH   4  24
BRANCH   6  26
ATOM     26  O   UNL     1       5.094   3.214  18.402  0.00  0.00    +0.000 OA
ATOM     27  H   UNL     1       4.555   2.578  17.905  0.00  0.00    +0.000 HD
ENDBRANCH   6  26
TORSDOF 8
ENDMDL
MODEL 3
REMARK VINA RESULT:      -7.7      0.183      1.204
REMARK  Name = 
REMARK  11 active torsions:
REMARK  status: ('A' for Active; 'I' for Inactive)
REMARK    1  A    between atoms: C_2  and  C_3
REMARK    2  A    between atoms: C_2  and  C_4
REMARK    3  A    between atoms: C_4  and  C_5
REMARK    4  A    between atoms: C_4  and  C_6
REMARK    5  A    between atoms: C_8  and  C_9
REMARK    6  A    between atoms: C_10  and  C_11
REMARK    7  A    between atoms: C_11  and  C_13
REMARK    8  A    between atoms: C_16  and  O_17
REMARK    9  A    between atoms: C_20  and  O_21
REMARK   10  A    between atoms: O_21  and  C_22
REMARK   11  A    between atoms: C_24  and  O_25
REMARK                            x       y       z     vdW  Elec       q    Type
REMARK                         _______ _______ _______ _____ _____    ______ ____
ROOT
ATOM      1  C   UNL     1       3.444   3.492  18.497  0.00  0.00    +0.000 A 
ATOM      2  C   UNL     1       3.274   4.895  18.522  0.00  0.00    +0.000 A 
ATOM      3  C   UNL     1       3.870   5.765  17.559  0.00  0.00    +0.000 A 
ATOM      4  C   UNL     1       4.638   5.196  16.531  0.00  0.00    +0.000 A 
ATOM      5  C   UNL     1       4.777   3.798  16.488  0.00  0.00    +0.000 A 
ATOM      6  C   UNL     1       4.192   2.967  17.442  0.00  0.00    +0.000 A 
ENDROOT
BRANCH   1   7
ATOM      7  C   UNL     1       2.922   2.572  19.609  0.00  0.00    +0.000 C 
ATOM      8  C   UNL     1       3.889   2.588  20.805  0.00  0.00    +0.000 C 
BRANCH   7  10
ATOM      9  C   UNL     1       0.427   2.766  19.095  0.00  0.00    +0.000 C 
ATOM     10  C   UNL     1       1.445   2.760  19.977  0.00  0.00    +0.000 C 
ATOM     11  C   UNL     1       1.162   3.107  21.419  0.00  0.00    +0.000 C 
ENDBRANCH   7  10
ENDBRANCH   1   7
BRANCH   3  12
ATOM     12  C   UNL     1       3.587   7.199  17.751  0.00  0.00    +0.000 C 
ATOM     13  C   UNL     1       2.318   7.617  17.884  0.00  0.00    +0.000 C 
BRANCH  13  14
ATOM     14  C   UNL     1       1.929   9.011  18.275  0.00  0.00    +0.000 C 
ATOM     15  O   UNL     1       2.104   9.975  17.541  0.00  0.00    +0.000 OA
BRANCH  14  16
ATOM     16  C   UNL     1       1.265   9.136  19.615  0.00  0.00    +0.000 A 
ATOM     17  C   UNL     1       1.516   8.197  20.631  0.00  0.00    +0.000 A 
ATOM     18  C   UNL     1       0.809   8.239  21.835  0.00  0.00    +0.000 A 
ATOM     19  C   UNL     1      -0.128   9.244  22.038  0.00  0.00    +0.000 A 
ATOM     20  C   UNL     1      -0.345  10.222  21.069  0.00  0.00    +0.000 A 
ATOM     21  C   UNL     1       0.357  10.175  19.857  0.00  0.00    +0.000 A 
BRANCH  19  22
ATOM     22  O   UNL     1      -0.858   9.304  23.187  0.00  0.00    +0.000 OA
ATOM     23  H   UNL     1      -1.722   9.703  22.991  0.00  0.00    +0.000 HD
ENDBRANCH  19  22
ENDBRANCH  14  16
ENDBRANCH  13  14
ENDBRANCH   3  12
BRANCH   4  24
ATOM     24  O   UNL     1       5.331   5.761  15.500  0.00  0.00    +0.000 OA
ATOM     25  C   UNL     1       6.412   5.107  14.870  0.00  0.00    +0.000 C 
ENDBRANCH   4  24
BRANCH   6  26
ATOM     26  O   UNL     1       4.370   1.615  17.345  0.00  0.00    +0.000 OA
ATOM     27  H   UNL     1       5.299   1.405  17.536  0.00  0.00    +0.000 HD
ENDBRANCH   6  26
TORSDOF 8
ENDMDL
MODEL 4
REMARK VINA RESULT:      -7.6      2.259      4.748
REMARK  Name = 
REMARK  11 active torsions:
REMARK  status: ('A' for Active; 'I' for Inactive)
REMARK    1  A    between atoms: C_2  and  C_3
REMARK    2  A    between atoms: C_2  and  C_4
REMARK    3  A    between atoms: C_4  and  C_5
REMARK    4  A    between atoms: C_4  and  C_6
REMARK    5  A    between atoms: C_8  and  C_9
REMARK    6  A    between atoms: C_10  and  C_11
REMARK    7  A    between atoms: C_11  and  C_13
REMARK    8  A    between atoms: C_16  and  O_17
REMARK    9  A    between atoms: C_20  and  O_21
REMARK   10  A    between atoms: O_21  and  C_22
REMARK   11  A    between atoms: C_24  and  O_25
REMARK                            x       y       z     vdW  Elec       q    Type
REMARK                         _______ _______ _______ _____ _____    ______ ____
ROOT
ATOM      1  C   UNL     1       4.591   5.656  18.151  0.00  0.00    +0.000 A 
ATOM      2  C   UNL     1       3.818   6.752  18.597  0.00  0.00    +0.000 A 
ATOM      3  C   UNL     1       2.634   6.598  19.379  0.00  0.00    +0.000 A 
ATOM      4  C   UNL     1       2.236   5.300  19.739  0.00  0.00    +0.000 A 
ATOM      5  C   UNL     1       3.025   4.214  19.323  0.00  0.00    +0.000 A 
ATOM      6  C   UNL     1       4.174   4.386  18.554  0.00  0.00    +0.000 A 
ENDROOT
BRANCH   1   7
ATOM      7  C   UNL     1       5.781   5.812  17.195  0.00  0.00    +0.000 C 
ATOM      8  C   UNL     1       5.338   6.542  15.915  0.00  0.00    +0.000 C 
BRANCH   7  10
ATOM      9  C   UNL     1       7.715   5.787  18.863  0.00  0.00    +0.000 C 
ATOM     10  C   UNL     1       7.067   6.358  17.830  0.00  0.00    +0.000 C 
ATOM     11  C   UNL     1       7.528   7.707  17.334  0.00  0.00    +0.000 C 
ENDBRANCH   7  10
ENDBRANCH   1   7
BRANCH   3  12
ATOM     12  C   UNL     1       1.957   7.856  19.745  0.00  0.00    +0.000 C 
ATOM     13  C   UNL     1       1.490   8.024  20.993  0.00  0.00    +0.000 C 
BRANCH  13  14
ATOM     14  C   UNL     1       0.965   9.323  21.526  0.00  0.00    +0.000 C 
ATOM     15  O   UNL     1       1.063   9.640  22.705  0.00  0.00    +0.000 OA
BRANCH  14  16
ATOM     16  C   UNL     1       0.350  10.231  20.502  0.00  0.00    +0.000 A 
ATOM     17  C   UNL     1      -0.875   9.903  19.895  0.00  0.00    +0.000 A 
ATOM     18  C   UNL     1      -1.389  10.681  18.855  0.00  0.00    +0.000 A 
ATOM     19  C   UNL     1      -0.694  11.812  18.445  0.00  0.00    +0.000 A 
ATOM     20  C   UNL     1       0.488  12.191  19.078  0.00  0.00    +0.000 A 
ATOM     21  C   UNL     1       1.010  11.404  20.114  0.00  0.00    +0.000 A 
BRANCH  19  22
ATOM     22  O   UNL     1      -1.149  12.583  17.418  0.00  0.00    +0.000 OA
ATOM     23  H   UNL     1      -2.100  12.418  17.296  0.00  0.00    +0.000 HD
ENDBRANCH  19  22
ENDBRANCH  14  16
ENDBRANCH  13  14
ENDBRANCH   3  12
BRANCH   4  24
ATOM     24  O   UNL     1       1.163   4.847  20.450  0.00  0.00    +0.000 OA
ATOM     25  C   UNL     1       0.884   3.471  20.599  0.00  0.00    +0.000 C 
ENDBRANCH   4  24
BRANCH   6  26
ATOM     26  O   UNL     1       4.894   3.286  18.179  0.00  0.00    +0.000 OA
ATOM     27  H   UNL     1       5.142   3.376  17.244  0.00  0.00    +0.000 HD
ENDBRANCH   6  26
TORSDOF 8
ENDMDL
MODEL 5
REMARK VINA RESULT:      -7.5      2.188      4.604
REMARK  Name = 
REMARK  11 active torsions:
REMARK  status: ('A' for Active; 'I' for Inactive)
REMARK    1  A    between atoms: C_2  and  C_3
REMARK    2  A    between atoms: C_2  and  C_4
REMARK    3  A    between atoms: C_4  and  C_5
REMARK    4  A    between atoms: C_4  and  C_6
REMARK    5  A    between atoms: C_8  and  C_9
REMARK    6  A    between atoms: C_10  and  C_11
REMARK    7  A    between atoms: C_11  and  C_13
REMARK    8  A    between atoms: C_16  and  O_17
REMARK    9  A    between atoms: C_20  and  O_21
REMARK   10  A    between atoms: O_21  and  C_22
REMARK   11  A    between atoms: C_24  and  O_25
REMARK                            x       y       z     vdW  Elec       q    Type
REMARK                         _______ _______ _______ _____ _____    ______ ____
ROOT
ATOM      1  C   UNL     1       4.523   5.207  18.005  0.00  0.00    +0.000 A 
ATOM      2  C   UNL     1       3.821   6.026  18.919  0.00  0.00    +0.000 A 
ATOM      3  C   UNL     1       2.675   5.576  19.641  0.00  0.00    +0.000 A 
ATOM      4  C   UNL     1       2.241   4.254  19.448  0.00  0.00    +0.000 A 
ATOM      5  C   UNL     1       2.960   3.431  18.565  0.00  0.00    +0.000 A 
ATOM      6  C   UNL     1       4.074   3.893  17.865  0.00  0.00    +0.000 A 
ENDROOT
BRANCH   1   7
ATOM      7  C   UNL     1       5.667   5.732  17.127  0.00  0.00    +0.000 C 
ATOM      8  C   UNL     1       5.099   6.553  15.956  0.00  0.00    +0.000 C 
BRANCH   7  10
ATOM      9  C   UNL     1       7.410   7.559  17.512  0.00  0.00    +0.000 C 
ATOM     10  C   UNL     1       6.818   6.408  17.883  0.00  0.00    +0.000 C 
ATOM     11  C   UNL     1       7.402   5.626  19.035  0.00  0.00    +0.000 C 
ENDBRANCH   7  10
ENDBRANCH   1   7
BRANCH   3  12
ATOM     12  C   UNL     1       2.071   6.573  20.544  0.00  0.00    +0.000 C 
ATOM     13  C   UNL     1       1.843   7.821  20.103  0.00  0.00    +0.000 C 
BRANCH  13  14
ATOM     14  C   UNL     1       1.063   8.851  20.862  0.00  0.00    +0.000 C 
ATOM     15  O   UNL     1       1.112   8.949  22.082  0.00  0.00    +0.000 OA
BRANCH  14  16
ATOM     16  C   UNL     1       0.251   9.789  20.017  0.00  0.00    +0.000 A 
ATOM     17  C   UNL     1      -0.537  10.790  20.612  0.00  0.00    +0.000 A 
ATOM     18  C   UNL     1      -1.388  11.584  19.839  0.00  0.00    +0.000 A 
ATOM     19  C   UNL     1      -1.425  11.400  18.463  0.00  0.00    +0.000 A 
ATOM     20  C   UNL     1      -0.603  10.458  17.847  0.00  0.00    +0.000 A 
ATOM     21  C   UNL     1       0.244   9.654  18.624  0.00  0.00    +0.000 A 
BRANCH  19  22
ATOM     22  O   UNL     1      -2.260  12.136  17.677  0.00  0.00    +0.000 OA
ATOM     23  H   UNL     1      -1.729  12.635  17.033  0.00  0.00    +0.000 HD
ENDBRANCH  19  22
ENDBRANCH  14  16
ENDBRANCH  13  14
ENDBRANCH   3  12
BRANCH   4  24
ATOM     24  O   UNL     1       1.189   3.561  19.972  0.00  0.00    +0.000 OA
ATOM     25  C   UNL     1       1.291   2.836  21.180  0.00  0.00    +0.000 C 
ENDBRANCH   4  24
BRANCH   6  26
ATOM     26  O   UNL     1       4.726   3.042  17.017  0.00  0.00    +0.000 OA
ATOM     27  H   UNL     1       4.843   2.185  17.457  0.00  0.00    +0.000 HD
ENDBRANCH   6  26
TORSDOF 8
ENDMDL
MODEL 6
REMARK VINA RESULT:      -7.5      2.106      4.052
REMARK  Name = 
REMARK  11 active torsions:
REMARK  status: ('A' for Active; 'I' for Inactive)
REMARK    1  A    between atoms: C_2  and  C_3
REMARK    2  A    between atoms: C_2  and  C_4
REMARK    3  A    between atoms: C_4  and  C_5
REMARK    4  A    between atoms: C_4  and  C_6
REMARK    5  A    between atoms: C_8  and  C_9
REMARK    6  A    between atoms: C_10  and  C_11
REMARK    7  A    between atoms: C_11  and  C_13
REMARK    8  A    between atoms: C_16  and  O_17
REMARK    9  A    between atoms: C_20  and  O_21
REMARK   10  A    between atoms: O_21  and  C_22
REMARK   11  A    between atoms: C_24  and  O_25
REMARK                            x       y       z     vdW  Elec       q    Type
REMARK                         _______ _______ _______ _____ _____    ______ ____
ROOT
ATOM      1  C   UNL     1       5.072   5.071  18.274  0.00  0.00    +0.000 A 
ATOM      2  C   UNL     1       4.145   6.123  18.100  0.00  0.00    +0.000 A 
ATOM      3  C   UNL     1       2.810   6.071  18.604  0.00  0.00    +0.000 A 
ATOM      4  C   UNL     1       2.413   4.933  19.325  0.00  0.00    +0.000 A 
ATOM      5  C   UNL     1       3.347   3.903  19.526  0.00  0.00    +0.000 A 
ATOM      6  C   UNL     1       4.644   3.971  19.020  0.00  0.00    +0.000 A 
ENDROOT
BRANCH   1   7
ATOM      7  C   UNL     1       6.458   5.066  17.614  0.00  0.00    +0.000 C 
ATOM      8  C   UNL     1       6.314   5.170  16.085  0.00  0.00    +0.000 C 
BRANCH   7  10
ATOM      9  C   UNL     1       8.135   5.820  19.386  0.00  0.00    +0.000 C 
ATOM     10  C   UNL     1       7.482   6.029  18.227  0.00  0.00    +0.000 C 
ATOM     11  C   UNL     1       7.634   7.362  17.534  0.00  0.00    +0.000 C 
ENDBRANCH   7  10
ENDBRANCH   1   7
BRANCH   3  12
ATOM     12  C   UNL     1       1.986   7.259  18.318  0.00  0.00    +0.000 C 
ATOM     13  C   UNL     1       1.853   8.220  19.248  0.00  0.00    +0.000 C 
BRANCH  13  14
ATOM     14  C   UNL     1       1.207   9.548  18.997  0.00  0.00    +0.000 C 
ATOM     15  O   UNL     1       1.254  10.110  17.909  0.00  0.00    +0.000 OA
BRANCH  14  16
ATOM     16  C   UNL     1       0.457  10.124  20.162  0.00  0.00    +0.000 A 
ATOM     17  C   UNL     1      -0.070  11.426  20.103  0.00  0.00    +0.000 A 
ATOM     18  C   UNL     1      -0.661  12.010  21.226  0.00  0.00    +0.000 A 
ATOM     19  C   UNL     1      -0.758  11.277  22.401  0.00  0.00    +0.000 A 
ATOM     20  C   UNL     1      -0.300   9.963  22.461  0.00  0.00    +0.000 A 
ATOM     21  C   UNL     1       0.302   9.379  21.337  0.00  0.00    +0.000 A 
BRANCH  19  22
ATOM     22  O   UNL     1      -1.303  11.820  23.526  0.00  0.00    +0.000 OA
ATOM     23  H   UNL     1      -2.170  12.201  23.303  0.00  0.00    +0.000 HD
ENDBRANCH  19  22
ENDBRANCH  14  16
ENDBRANCH  13  14
ENDBRANCH   3  12
BRANCH   4  24
ATOM     24  O   UNL     1       1.223   4.597  19.901  0.00  0.00    +0.000 OA
ATOM     25  C   UNL     1       0.795   3.256  20.019  0.00  0.00    +0.000 C 
ENDBRANCH   4  24
BRANCH   6  26
ATOM     26  O   UNL     1       5.502   2.932  19.247  0.00  0.00    +0.000 OA
ATOM     27  H   UNL     1       6.026   3.124  20.042  0.00  0.00    +0.000 HD
ENDBRANCH   6  26
TORSDOF 8
ENDMDL
MODEL 7
REMARK VINA RESULT:      -7.4      2.159      4.609
REMARK  Name = 
REMARK  11 active torsions:
REMARK  status: ('A' for Active; 'I' for Inactive)
REMARK    1  A    between atoms: C_2  and  C_3
REMARK    2  A    between atoms: C_2  and  C_4
REMARK    3  A    between atoms: C_4  and  C_5
REMARK    4  A    between atoms: C_4  and  C_6
REMARK    5  A    between atoms: C_8  and  C_9
REMARK    6  A    between atoms: C_10  and  C_11
REMARK    7  A    between atoms: C_11  and  C_13
REMARK    8  A    between atoms: C_16  and  O_17
REMARK    9  A    between atoms: C_20  and  O_21
REMARK   10  A    between atoms: O_21  and  C_22
REMARK   11  A    between atoms: C_24  and  O_25
REMARK                            x       y       z     vdW  Elec       q    Type
REMARK                         _______ _______ _______ _____ _____    ______ ____
ROOT
ATOM      1  C   UNL     1       4.631   5.289  17.868  0.00  0.00    +0.000 A 
ATOM      2  C   UNL     1       3.929   6.082  18.804  0.00  0.00    +0.000 A 
ATOM      3  C   UNL     1       2.776   5.615  19.504  0.00  0.00    +0.000 A 
ATOM      4  C   UNL     1       2.337   4.302  19.266  0.00  0.00    +0.000 A 
ATOM      5  C   UNL     1       3.057   3.505  18.360  0.00  0.00    +0.000 A 
ATOM      6  C   UNL     1       4.177   3.983  17.682  0.00  0.00    +0.000 A 
ENDROOT
BRANCH   1   7
ATOM      7  C   UNL     1       5.783   5.837  17.014  0.00  0.00    +0.000 C 
ATOM      8  C   UNL     1       5.226   6.691  15.861  0.00  0.00    +0.000 C 
BRANCH   7  10
ATOM      9  C   UNL     1       7.490   7.676  17.493  0.00  0.00    +0.000 C 
ATOM     10  C   UNL     1       6.929   6.490  17.797  0.00  0.00    +0.000 C 
ATOM     11  C   UNL     1       7.546   5.650  18.889  0.00  0.00    +0.000 C 
ENDBRANCH   7  10
ENDBRANCH   1   7
BRANCH   3  12
ATOM     12  C   UNL     1       2.173   6.585  20.436  0.00  0.00    +0.000 C 
ATOM     13  C   UNL     1       1.860   7.818  20.005  0.00  0.00    +0.000 C 
BRANCH  13  14
ATOM     14  C   UNL     1       1.071   8.812  20.803  0.00  0.00    +0.000 C 
ATOM     15  O   UNL     1       0.964   8.743  22.021  0.00  0.00    +0.000 OA
BRANCH  14  16
ATOM     16  C   UNL     1       0.458   9.927  20.008  0.00  0.00    +0.000 A 
ATOM     17  C   UNL     1      -0.560   9.668  19.075  0.00  0.00    +0.000 A 
ATOM     18  C   UNL     1      -1.047  10.681  18.246  0.00  0.00    +0.000 A 
ATOM     19  C   UNL     1      -0.539  11.967  18.376  0.00  0.00    +0.000 A 
ATOM     20  C   UNL     1       0.424  12.259  19.339  0.00  0.00    +0.000 A 
ATOM     21  C   UNL     1       0.921  11.240  20.164  0.00  0.00    +0.000 A 
BRANCH  19  22
ATOM     22  O   UNL     1      -0.969  12.978  17.570  0.00  0.00    +0.000 OA
ATOM     23  H   UNL     1      -0.686  12.796  16.657  0.00  0.00    +0.000 HD
ENDBRANCH  19  22
ENDBRANCH  14  16
ENDBRANCH  13  14
ENDBRANCH   3  12
BRANCH   4  24
ATOM     24  O   UNL     1       1.278   3.598  19.762  0.00  0.00    +0.000 OA
ATOM     25  C   UNL     1       0.714   2.502  19.073  0.00  0.00    +0.000 C 
ENDBRANCH   4  24
BRANCH   6  26
ATOM     26  O   UNL     1       4.829   3.157  16.810  0.00  0.00    +0.000 OA
ATOM     27  H   UNL     1       4.654   3.455  15.903  0.00  0.00    +0.000 HD
ENDBRANCH   6  26
TORSDOF 8
ENDMDL
MODEL 8
REMARK VINA RESULT:      -7.3      1.965      4.616
REMARK  Name = 
REMARK  11 active torsions:
REMARK  status: ('A' for Active; 'I' for Inactive)
REMARK    1  A    between atoms: C_2  and  C_3
REMARK    2  A    between atoms: C_2  and  C_4
REMARK    3  A    between atoms: C_4  and  C_5
REMARK    4  A    between atoms: C_4  and  C_6
REMARK    5  A    between atoms: C_8  and  C_9
REMARK    6  A    between atoms: C_10  and  C_11
REMARK    7  A    between atoms: C_11  and  C_13
REMARK    8  A    between atoms: C_16  and  O_17
REMARK    9  A    between atoms: C_20  and  O_21
REMARK   10  A    between atoms: O_21  and  C_22
REMARK   11  A    between atoms: C_24  and  O_25
REMARK                            x       y       z     vdW  Elec       q    Type
REMARK                         _______ _______ _______ _____ _____    ______ ____
ROOT
ATOM      1  C   UNL     1       3.941   4.988  18.179  0.00  0.00    +0.000 A 
ATOM      2  C   UNL     1       3.204   5.841  19.034  0.00  0.00    +0.000 A 
ATOM      3  C   UNL     1       2.175   5.366  19.902  0.00  0.00    +0.000 A 
ATOM      4  C   UNL     1       1.901   3.989  19.921  0.00  0.00    +0.000 A 
ATOM      5  C   UNL     1       2.658   3.139  19.096  0.00  0.00    +0.000 A 
ATOM      6  C   UNL     1       3.654   3.624  18.252  0.00  0.00    +0.000 A 
ENDROOT
BRANCH   1   7
ATOM      7  C   UNL     1       4.947   5.515  17.147  0.00  0.00    +0.000 C 
ATOM      8  C   UNL     1       4.596   6.962  16.758  0.00  0.00    +0.000 C 
BRANCH   7  10
ATOM      9  C   UNL     1       7.297   4.609  16.722  0.00  0.00    +0.000 C 
ATOM     10  C   UNL     1       6.424   5.285  17.493  0.00  0.00    +0.000 C 
ATOM     11  C   UNL     1       6.859   5.734  18.866  0.00  0.00    +0.000 C 
ENDBRANCH   7  10
ENDBRANCH   1   7
BRANCH   3  12
ATOM     12  C   UNL     1       1.512   6.403  20.713  0.00  0.00    +0.000 C 
ATOM     13  C   UNL     1       1.852   7.693  20.556  0.00  0.00    +0.000 C 
BRANCH  13  14
ATOM     14  C   UNL     1       1.114   8.839  21.179  0.00  0.00    +0.000 C 
ATOM     15  O   UNL     1       1.151   9.071  22.381  0.00  0.00    +0.000 OA
BRANCH  14  16
ATOM     16  C   UNL     1       0.362   9.712  20.218  0.00  0.00    +0.000 A 
ATOM     17  C   UNL     1       0.564   9.594  18.832  0.00  0.00    +0.000 A 
ATOM     18  C   UNL     1      -0.039  10.486  17.942  0.00  0.00    +0.000 A 
ATOM     19  C   UNL     1      -0.876  11.477  18.437  0.00  0.00    +0.000 A 
ATOM     20  C   UNL     1      -1.141  11.571  19.802  0.00  0.00    +0.000 A 
ATOM     21  C   UNL     1      -0.527  10.682  20.696  0.00  0.00    +0.000 A 
BRANCH  19  22
ATOM     22  O   UNL     1      -1.463  12.383  17.605  0.00  0.00    +0.000 OA
ATOM     23  H   UNL     1      -0.896  13.170  17.545  0.00  0.00    +0.000 HD
ENDBRANCH  19  22
ENDBRANCH  14  16
ENDBRANCH  13  14
ENDBRANCH   3  12
BRANCH   4  24
ATOM     24  O   UNL     1       0.983   3.259  20.619  0.00  0.00    +0.000 OA
ATOM     25  C   UNL     1       1.297   2.622  21.840  0.00  0.00    +0.000 C 
ENDBRANCH   4  24
BRANCH   6  26
ATOM     26  O   UNL     1       4.350   2.744  17.470  0.00  0.00    +0.000 OA
ATOM     27  H   UNL     1       5.300   2.931  17.553  0.00  0.00    +0.000 HD
ENDBRANCH   6  26
TORSDOF 8
ENDMDL
MODEL 9
REMARK VINA RESULT:      -7.3      2.772      4.784
REMARK  Name = 
REMARK  11 active torsions:
REMARK  status: ('A' for Active; 'I' for Inactive)
REMARK    1  A    between atoms: C_2  and  C_3
REMARK    2  A    between atoms: C_2  and  C_4
REMARK    3  A    between atoms: C_4  and  C_5
REMARK    4  A    between atoms: C_4  and  C_6
REMARK    5  A    between atoms: C_8  and  C_9
REMARK    6  A    between atoms: C_10  and  C_11
REMARK    7  A    between atoms: C_11  and  C_13
REMARK    8  A    between atoms: C_16  and  O_17
REMARK    9  A    between atoms: C_20  and  O_21
REMARK   10  A    between atoms: O_21  and  C_22
REMARK   11  A    between atoms: C_24  and  O_25
REMARK                            x       y       z     vdW  Elec       q    Type
REMARK                         _______ _______ _______ _____ _____    ______ ____
ROOT
ATOM      1  C   UNL     1       4.868   5.584  18.350  0.00  0.00    +0.000 A 
ATOM      2  C   UNL     1       3.951   6.645  18.529  0.00  0.00    +0.000 A 
ATOM      3  C   UNL     1       2.742   6.506  19.276  0.00  0.00    +0.000 A 
ATOM      4  C   UNL     1       2.466   5.267  19.875  0.00  0.00    +0.000 A 
ATOM      5  C   UNL     1       3.395   4.224  19.725  0.00  0.00    +0.000 A 
ATOM      6  C   UNL     1       4.567   4.378  18.986  0.00  0.00    +0.000 A 
ENDROOT
BRANCH   1   7
ATOM      7  C   UNL     1       6.094   5.691  17.434  0.00  0.00    +0.000 C 
ATOM      8  C   UNL     1       5.677   6.231  16.054  0.00  0.00    +0.000 C 
BRANCH   7  10
ATOM      9  C   UNL     1       7.998   5.932  19.120  0.00  0.00    +0.000 C 
ATOM     10  C   UNL     1       7.316   6.384  18.050  0.00  0.00    +0.000 C 
ATOM     11  C   UNL     1       7.662   7.740  17.484  0.00  0.00    +0.000 C 
ENDBRANCH   7  10
ENDBRANCH   1   7
BRANCH   3  12
ATOM     12  C   UNL     1       1.908   7.720  19.347  0.00  0.00    +0.000 C 
ATOM     13  C   UNL     1       1.919   8.599  18.331  0.00  0.00    +0.000 C 
BRANCH  13  14
ATOM     14  C   UNL     1       0.973   9.755  18.210  0.00  0.00    +0.000 C 
ATOM     15  O   UNL     1      -0.138   9.648  17.706  0.00  0.00    +0.000 OA
BRANCH  14  16
ATOM     16  C   UNL     1       1.465  11.047  18.794  0.00  0.00    +0.000 A 
ATOM     17  C   UNL     1       1.061  11.454  20.078  0.00  0.00    +0.000 A 
ATOM     18  C   UNL     1       1.417  12.709  20.576  0.00  0.00    +0.000 A 
ATOM     19  C   UNL     1       2.209  13.547  19.802  0.00  0.00    +0.000 A 
ATOM     20  C   UNL     1       2.674  13.137  18.554  0.00  0.00    +0.000 A 
ATOM     21  C   UNL     1       2.309  11.880  18.050  0.00  0.00    +0.000 A 
BRANCH  19  22
ATOM     22  O   UNL     1       2.556  14.790  20.240  0.00  0.00    +0.000 OA
ATOM     23  H   UNL     1       1.880  15.105  20.863  0.00  0.00    +0.000 HD
ENDBRANCH  19  22
ENDBRANCH  14  16
ENDBRANCH  13  14
ENDBRANCH   3  12
BRANCH   4  24
ATOM     24  O   UNL     1       1.405   4.838  20.618  0.00  0.00    +0.000 OA
ATOM     25  C   UNL     1       1.200   3.473  20.921  0.00  0.00    +0.000 C 
ENDBRANCH   4  24
BRANCH   6  26
ATOM     26  O   UNL     1       5.427   3.321  18.875  0.00  0.00    +0.000 OA
ATOM     27  H   UNL     1       5.710   3.241  17.949  0.00  0.00    +0.000 HD
ENDBRANCH   6  26
TORSDOF 8
ENDMDL
