MODEL 1
REMARK VINA RESULT:      -4.7      0.000      0.000
REMARK  Name = 
REMARK  5 active torsions:
REMARK  status: ('A' for Active; 'I' for Inactive)
REMARK    1  A    between atoms: C_1  and  C_2
REMARK    2  A    between atoms: C_3  and  C_4
REMARK    3  A    between atoms: C_3  and  C_5
REMARK    4  A    between atoms: C_5  and  C_6
REMARK    5  A    between atoms: N_7  and  O_8
REMARK                            x       y       z     vdW  Elec       q    Type
REMARK                         _______ _______ _______ _____ _____    ______ ____
ROOT
ATOM      1  C   UNL     1       6.810   4.644  14.797  0.00  0.00    +0.000 C 
ATOM      2  C   UNL     1       6.246   3.921  13.580  0.00  0.00    +0.000 C 
ATOM      3  N   UNL     1       7.776   5.514  14.668  0.00  0.00    +0.000 NA
ENDROOT
BRANCH   1   6
ATOM      4  C   UNL     1       4.402   3.708  17.757  0.00  0.00    +0.000 C 
ATOM      5  C   UNL     1       4.990   3.988  16.408  0.00  0.00    +0.000 C 
ATOM      6  C   UNL     1       6.261   4.372  16.186  0.00  0.00    +0.000 C 
ATOM      7  C   UNL     1       7.252   4.565  17.309  0.00  0.00    +0.000 C 
ENDBRANCH   1   6
BRANCH   3   8
ATOM      8  O   UNL     1       8.176   5.657  13.332  0.00  0.00    +0.000 OA
ATOM      9  H   UNL     1       8.386   4.742  13.073  0.00  0.00    +0.000 HD
ENDBRANCH   3   8
TORSDOF 2
ENDMDL
MODEL 2
REMARK VINA RESULT:      -4.6      1.759      3.689
REMARK  Name = 
REMARK  5 active torsions:
REMARK  status: ('A' for Active; 'I' for Inactive)
REMARK    1  A    between atoms: C_1  and  C_2
REMARK    2  A    between atoms: C_3  and  C_4
REMARK    3  A    between atoms: C_3  and  C_5
REMARK    4  A    between atoms: C_5  and  C_6
REMARK    5  A    between atoms: N_7  and  O_8
REMARK                            x       y       z     vdW  Elec       q    Type
REMARK                         _______ _______ _______ _____ _____    ______ ____
ROOT
ATOM      1  C   UNL     1       6.395   4.471  14.289  0.00  0.00    +0.000 C 
ATOM      2  C   UNL     1       5.558   4.112  15.511  0.00  0.00    +0.000 C 
ATOM      3  N   UNL     1       7.435   5.253  14.398  0.00  0.00    +0.000 NA
ENDROOT
BRANCH   1   6
ATOM      4  C   UNL     1       4.398   2.975  11.253  0.00  0.00    +0.000 C 
ATOM      5  C   UNL     1       4.798   3.519  12.591  0.00  0.00    +0.000 C 
ATOM      6  C   UNL     1       6.039   3.926  12.916  0.00  0.00    +0.000 C 
ATOM      7  C   UNL     1       7.187   3.876  11.937  0.00  0.00    +0.000 C 
ENDBRANCH   1   6
BRANCH   3   8
ATOM      8  O   UNL     1       7.636   5.675  15.720  0.00  0.00    +0.000 OA
ATOM      9  H   UNL     1       8.581   5.486  15.862  0.00  0.00    +0.000 HD
ENDBRANCH   3   8
TORSDOF 2
ENDMDL
MODEL 3
REMARK VINA RESULT:      -4.5      3.059      4.014
REMARK  Name = 
REMARK  5 active torsions:
REMARK  status: ('A' for Active; 'I' for Inactive)
REMARK    1  A    between atoms: C_1  and  C_2
REMARK    2  A    between atoms: C_3  and  C_4
REMARK    3  A    between atoms: C_3  and  C_5
REMARK    4  A    between atoms: C_5  and  C_6
REMARK    5  A    between atoms: N_7  and  O_8
REMARK                            x       y       z     vdW  Elec       q    Type
REMARK                         _______ _______ _______ _____ _____    ______ ____
ROOT
ATOM      1  C   UNL     1       7.302   5.883  17.722  0.00  0.00    +0.000 C 
ATOM      2  C   UNL     1       7.768   7.317  17.943  0.00  0.00    +0.000 C 
ATOM      3  N   UNL     1       7.549   4.956  18.609  0.00  0.00    +0.000 NA
ENDROOT
BRANCH   1   6
ATOM      4  C   UNL     1       6.228   4.111  14.384  0.00  0.00    +0.000 C 
ATOM      5  C   UNL     1       6.946   4.525  15.633  0.00  0.00    +0.000 C 
ATOM      6  C   UNL     1       6.538   5.500  16.466  0.00  0.00    +0.000 C 
ATOM      7  C   UNL     1       5.279   6.297  16.222  0.00  0.00    +0.000 C 
ENDBRANCH   1   6
BRANCH   3   8
ATOM      8  O   UNL     1       8.259   5.460  19.708  0.00  0.00    +0.000 OA
ATOM      9  H   UNL     1       8.080   4.796  20.398  0.00  0.00    +0.000 HD
ENDBRANCH   3   8
TORSDOF 2
ENDMDL
MODEL 4
REMARK VINA RESULT:      -4.5      3.863      4.252
REMARK  Name = 
REMARK  5 active torsions:
REMARK  status: ('A' for Active; 'I' for Inactive)
REMARK    1  A    between atoms: C_1  and  C_2
REMARK    2  A    between atoms: C_3  and  C_4
REMARK    3  A    between atoms: C_3  and  C_5
REMARK    4  A    between atoms: C_5  and  C_6
REMARK    5  A    between atoms: N_7  and  O_8
REMARK                            x       y       z     vdW  Elec       q    Type
REMARK                         _______ _______ _______ _____ _____    ______ ____
ROOT
ATOM      1  C   UNL     1       6.725   5.742  18.710  0.00  0.00    +0.000 C 
ATOM      2  C   UNL     1       7.741   6.761  18.209  0.00  0.00    +0.000 C 
ATOM      3  N   UNL     1       6.904   5.123  19.846  0.00  0.00    +0.000 NA
ENDROOT
BRANCH   1   6
ATOM      4  C   UNL     1       3.745   3.816  17.021  0.00  0.00    +0.000 C 
ATOM      5  C   UNL     1       4.968   4.181  17.806  0.00  0.00    +0.000 C 
ATOM      6  C   UNL     1       5.481   5.422  17.899  0.00  0.00    +0.000 C 
ATOM      7  C   UNL     1       4.858   6.607  17.201  0.00  0.00    +0.000 C 
ENDBRANCH   1   6
BRANCH   3   8
ATOM      8  O   UNL     1       8.091   5.521  20.477  0.00  0.00    +0.000 OA
ATOM      9  H   UNL     1       8.262   6.392  20.077  0.00  0.00    +0.000 HD
ENDBRANCH   3   8
TORSDOF 2
ENDMDL
MODEL 5
REMARK VINA RESULT:      -4.5      2.510      3.599
REMARK  Name = 
REMARK  5 active torsions:
REMARK  status: ('A' for Active; 'I' for Inactive)
REMARK    1  A    between atoms: C_1  and  C_2
REMARK    2  A    between atoms: C_3  and  C_4
REMARK    3  A    between atoms: C_3  and  C_5
REMARK    4  A    between atoms: C_5  and  C_6
REMARK    5  A    between atoms: N_7  and  O_8
REMARK                            x       y       z     vdW  Elec       q    Type
REMARK                         _______ _______ _______ _____ _____    ______ ____
ROOT
ATOM      1  C   UNL     1       6.920   5.549  16.705  0.00  0.00    +0.000 C 
ATOM      2  C   UNL     1       5.768   4.650  17.136  0.00  0.00    +0.000 C 
ATOM      3  N   UNL     1       7.429   5.454  15.506  0.00  0.00    +0.000 NA
ENDROOT
BRANCH   1   6
ATOM      4  C   UNL     1       8.273   8.913  18.219  0.00  0.00    +0.000 C 
ATOM      5  C   UNL     1       7.703   7.863  17.315  0.00  0.00    +0.000 C 
ATOM      6  C   UNL     1       7.501   6.578  17.660  0.00  0.00    +0.000 C 
ATOM      7  C   UNL     1       7.838   6.048  19.033  0.00  0.00    +0.000 C 
ENDBRANCH   1   6
BRANCH   3   8
ATOM      8  O   UNL     1       6.791   4.465  14.743  0.00  0.00    +0.000 OA
ATOM      9  H   UNL     1       5.850   4.620  14.939  0.00  0.00    +0.000 HD
ENDBRANCH   3   8
TORSDOF 2
ENDMDL
MODEL 6
REMARK VINA RESULT:      -4.4      2.981      3.887
REMARK  Name = 
REMARK  5 active torsions:
REMARK  status: ('A' for Active; 'I' for Inactive)
REMARK    1  A    between atoms: C_1  and  C_2
REMARK    2  A    between atoms: C_3  and  C_4
REMARK    3  A    between atoms: C_3  and  C_5
REMARK    4  A    between atoms: C_5  and  C_6
REMARK    5  A    between atoms: N_7  and  O_8
REMARK                            x       y       z     vdW  Elec       q    Type
REMARK                         _______ _______ _______ _____ _____    ______ ____
ROOT
ATOM      1  C   UNL     1       6.612   5.604  16.933  0.00  0.00    +0.000 C 
ATOM      2  C   UNL     1       5.441   6.045  16.064  0.00  0.00    +0.000 C 
ATOM      3  N   UNL     1       6.977   4.350  16.977  0.00  0.00    +0.000 NA
ENDROOT
BRANCH   1   6
ATOM      4  C   UNL     1       8.337   8.914  18.162  0.00  0.00    +0.000 C 
ATOM      5  C   UNL     1       7.584   7.884  17.376  0.00  0.00    +0.000 C 
ATOM      6  C   UNL     1       7.384   6.612  17.767  0.00  0.00    +0.000 C 
ATOM      7  C   UNL     1       7.912   6.078  19.077  0.00  0.00    +0.000 C 
ENDBRANCH   1   6
BRANCH   3   8
ATOM      8  O   UNL     1       6.174   3.543  16.157  0.00  0.00    +0.000 OA
ATOM      9  H   UNL     1       6.630   3.593  15.298  0.00  0.00    +0.000 HD
ENDBRANCH   3   8
TORSDOF 2
ENDMDL
MODEL 7
REMARK VINA RESULT:      -4.4      1.077      1.283
REMARK  Name = 
REMARK  5 active torsions:
REMARK  status: ('A' for Active; 'I' for Inactive)
REMARK    1  A    between atoms: C_1  and  C_2
REMARK    2  A    between atoms: C_3  and  C_4
REMARK    3  A    between atoms: C_3  and  C_5
REMARK    4  A    between atoms: C_5  and  C_6
REMARK    5  A    between atoms: N_7  and  O_8
REMARK                            x       y       z     vdW  Elec       q    Type
REMARK                         _______ _______ _______ _____ _____    ______ ____
ROOT
ATOM      1  C   UNL     1       6.251   4.896  15.028  0.00  0.00    +0.000 C 
ATOM      2  C   UNL     1       6.065   3.985  13.821  0.00  0.00    +0.000 C 
ATOM      3  N   UNL     1       7.303   5.663  15.130  0.00  0.00    +0.000 NA
ENDROOT
BRANCH   1   6
ATOM      4  C   UNL     1       3.672   3.808  17.786  0.00  0.00    +0.000 C 
ATOM      5  C   UNL     1       4.694   3.823  16.689  0.00  0.00    +0.000 C 
ATOM      6  C   UNL     1       5.216   4.934  16.140  0.00  0.00    +0.000 C 
ATOM      7  C   UNL     1       4.817   6.320  16.586  0.00  0.00    +0.000 C 
ENDBRANCH   1   6
BRANCH   3   8
ATOM      8  O   UNL     1       8.164   5.519  14.032  0.00  0.00    +0.000 OA
ATOM      9  H   UNL     1       8.414   4.579  14.081  0.00  0.00    +0.000 HD
ENDBRANCH   3   8
TORSDOF 2
ENDMDL
MODEL 8
REMARK VINA RESULT:      -4.4      3.699      4.283
REMARK  Name = 
REMARK  5 active torsions:
REMARK  status: ('A' for Active; 'I' for Inactive)
REMARK    1  A    between atoms: C_1  and  C_2
REMARK    2  A    between atoms: C_3  and  C_4
REMARK    3  A    between atoms: C_3  and  C_5
REMARK    4  A    between atoms: C_5  and  C_6
REMARK    5  A    between atoms: N_7  and  O_8
REMARK                            x       y       z     vdW  Elec       q    Type
REMARK                         _______ _______ _______ _____ _____    ______ ____
ROOT
ATOM      1  C   UNL     1       6.468   5.831  18.623  0.00  0.00    +0.000 C 
ATOM      2  C   UNL     1       7.566   6.685  18.002  0.00  0.00    +0.000 C 
ATOM      3  N   UNL     1       6.657   5.227  19.765  0.00  0.00    +0.000 NA
ENDROOT
BRANCH   1   6
ATOM      4  C   UNL     1       2.640   5.246  17.958  0.00  0.00    +0.000 C 
ATOM      5  C   UNL     1       3.985   5.418  18.596  0.00  0.00    +0.000 C 
ATOM      6  C   UNL     1       5.127   5.664  17.929  0.00  0.00    +0.000 C 
ATOM      7  C   UNL     1       5.171   5.797  16.425  0.00  0.00    +0.000 C 
ENDBRANCH   1   6
BRANCH   3   8
ATOM      8  O   UNL     1       7.938   5.474  20.282  0.00  0.00    +0.000 OA
ATOM      9  H   UNL     1       8.013   6.442  20.207  0.00  0.00    +0.000 HD
ENDBRANCH   3   8
TORSDOF 2
ENDMDL
MODEL 9
REMARK VINA RESULT:      -4.4      2.259      4.217
REMARK  Name = 
REMARK  5 active torsions:
REMARK  status: ('A' for Active; 'I' for Inactive)
REMARK    1  A    between atoms: C_1  and  C_2
REMARK    2  A    between atoms: C_3  and  C_4
REMARK    3  A    between atoms: C_3  and  C_5
REMARK    4  A    between atoms: C_5  and  C_6
REMARK    5  A    between atoms: N_7  and  O_8
REMARK                            x       y       z     vdW  Elec       q    Type
REMARK                         _______ _______ _______ _____ _____    ______ ____
ROOT
ATOM      1  C   UNL     1       6.394   4.011  13.141  0.00  0.00    +0.000 C 
ATOM      2  C   UNL     1       6.129   3.823  14.629  0.00  0.00    +0.000 C 
ATOM      3  N   UNL     1       7.333   4.819  12.726  0.00  0.00    +0.000 NA
ENDROOT
BRANCH   1   6
ATOM      4  C   UNL     1       3.514   2.968  10.679  0.00  0.00    +0.000 C 
ATOM      5  C   UNL     1       4.360   3.672  11.696  0.00  0.00    +0.000 C 
ATOM      6  C   UNL     1       5.575   3.260  12.105  0.00  0.00    +0.000 C 
ATOM      7  C   UNL     1       6.228   2.011  11.563  0.00  0.00    +0.000 C 
ENDBRANCH   1   6
BRANCH   3   8
ATOM      8  O   UNL     1       8.000   5.437  13.793  0.00  0.00    +0.000 OA
ATOM      9  H   UNL     1       8.935   5.357  13.534  0.00  0.00    +0.000 HD
ENDBRANCH   3   8
TORSDOF 2
ENDMDL
