MODEL 1
REMARK VINA RESULT:      -6.0      0.000      0.000
REMARK  Name = 
REMARK  7 active torsions:
REMARK  status: ('A' for Active; 'I' for Inactive)
REMARK    1  A    between atoms: C_2  and  C_3
REMARK    2  A    between atoms: C_6  and  C_7
REMARK    3  A    between atoms: C_16  and  O_17
REMARK    4  A    between atoms: C_18  and  O_19
REMARK    5  A    between atoms: C_20  and  C_21
REMARK    6  A    between atoms: C_21  and  O_22
REMARK    7  A    between atoms: C_23  and  C_24
REMARK                            x       y       z     vdW  Elec       q    Type
REMARK                         _______ _______ _______ _____ _____    ______ ____
ROOT
ATOM      1  C   UNL     1      -0.993  13.225  20.794  0.00  0.00    +0.000 C 
ATOM      2  O   UNL     1      -1.681  13.474  19.516  0.00  0.00    +0.000 OA
ATOM      3  C   UNL     1      -1.341  12.400  18.747  0.00  0.00    +0.000 A 
ATOM      4  C   UNL     1      -2.204  11.863  17.819  0.00  0.00    +0.000 A 
ATOM      5  C   UNL     1      -1.980  10.540  17.474  0.00  0.00    +0.000 A 
ATOM      6 CL   UNL     1      -3.114   9.718  16.481  0.00  0.00    +0.000 Cl
ATOM      7  C   UNL     1      -0.886   9.868  18.037  0.00  0.00    +0.000 A 
ATOM      8  N   UNL     1       0.019  10.427  18.903  0.00  0.00    +0.000 NA
ATOM      9  C   UNL     1      -0.237  11.713  19.220  0.00  0.00    +0.000 A 
ATOM     10  C   UNL     1       0.344  12.502  20.399  0.00  0.00    +0.000 C 
ATOM     11  C   UNL     1       0.753  11.661  21.626  0.00  0.00    +0.000 C 
ATOM     12  C   UNL     1      -0.524  11.448  22.472  0.00  0.00    +0.000 C 
ATOM     13  C   UNL     1      -1.674  12.023  21.611  0.00  0.00    +0.000 C 
ENDROOT
BRANCH   1  17
ATOM     14  C   UNL     1      -1.855  16.730  23.257  0.00  0.00    +0.000 A 
ATOM     15  C   UNL     1      -2.525  16.510  22.061  0.00  0.00    +0.000 A 
ATOM     16  C   UNL     1      -2.147  15.439  21.246  0.00  0.00    +0.000 A 
ATOM     17  C   UNL     1      -1.104  14.539  21.591  0.00  0.00    +0.000 A 
ATOM     18  C   UNL     1      -0.392  14.825  22.763  0.00  0.00    +0.000 A 
ATOM     19  C   UNL     1      -0.777  15.902  23.593  0.00  0.00    +0.000 A 
BRANCH  14  21
ATOM     20  N   UNL     1      -2.653  18.631  24.836  0.00  0.00    +0.000 NA
ATOM     21  C   UNL     1      -2.302  17.773  24.141  0.00  0.00    +0.000 C 
ENDBRANCH  14  21
ENDBRANCH   1  17
BRANCH  13  22
ATOM     22  C   UNL     1      -2.995  12.324  22.272  0.00  0.00    +0.000 A 
ATOM     23  C   UNL     1      -4.163  12.594  21.553  0.00  0.00    +0.000 A 
ATOM     24  C   UNL     1      -5.355  12.861  22.226  0.00  0.00    +0.000 A 
ATOM     25  C   UNL     1      -5.390  12.867  23.619  0.00  0.00    +0.000 A 
ATOM     26  C   UNL     1      -4.234  12.605  24.346  0.00  0.00    +0.000 A 
ATOM     27  C   UNL     1      -3.044  12.337  23.677  0.00  0.00    +0.000 A 
ENDBRANCH  13  22
BRANCH  10  28
ATOM     28  O   UNL     1       1.403  13.328  19.935  0.00  0.00    +0.000 OA
ATOM     29  H   UNL     1       1.284  13.430  18.971  0.00  0.00    +0.000 HD
ENDBRANCH  10  28
BRANCH  11  30
ATOM     30  O   UNL     1       1.446  10.448  21.322  0.00  0.00    +0.000 OA
ATOM     31  H   UNL     1       2.391  10.558  21.567  0.00  0.00    +0.000 HD
ENDBRANCH  11  30
BRANCH  12  32
ATOM     32  C   UNL     1      -0.763  10.007  22.916  0.00  0.00    +0.000 C 
BRANCH  32  33
ATOM     33  O   UNL     1       0.238   9.619  23.849  0.00  0.00    +0.000 OA
ATOM     34  H   UNL     1       1.082   9.985  23.515  0.00  0.00    +0.000 HD
ENDBRANCH  32  33
ENDBRANCH  12  32
TORSDOF 7
ENDMDL
MODEL 2
REMARK VINA RESULT:      -5.7      0.607      1.057
REMARK  Name = 
REMARK  7 active torsions:
REMARK  status: ('A' for Active; 'I' for Inactive)
REMARK    1  A    between atoms: C_2  and  C_3
REMARK    2  A    between atoms: C_6  and  C_7
REMARK    3  A    between atoms: C_16  and  O_17
REMARK    4  A    between atoms: C_18  and  O_19
REMARK    5  A    between atoms: C_20  and  C_21
REMARK    6  A    between atoms: C_21  and  O_22
REMARK    7  A    between atoms: C_23  and  C_24
REMARK                            x       y       z     vdW  Elec       q    Type
REMARK                         _______ _______ _______ _____ _____    ______ ____
ROOT
ATOM      1  C   UNL     1      -0.686  13.038  20.381  0.00  0.00    +0.000 C 
ATOM      2  O   UNL     1      -1.400  13.342  19.129  0.00  0.00    +0.000 OA
ATOM      3  C   UNL     1      -1.190  12.237  18.357  0.00  0.00    +0.000 A 
ATOM      4  C   UNL     1      -2.133  11.777  17.468  0.00  0.00    +0.000 A 
ATOM      5  C   UNL     1      -2.045  10.437  17.126  0.00  0.00    +0.000 A 
ATOM      6 CL   UNL     1      -3.288   9.717  16.186  0.00  0.00    +0.000 Cl
ATOM      7  C   UNL     1      -0.995   9.671  17.651  0.00  0.00    +0.000 A 
ATOM      8  N   UNL     1      -0.009  10.150  18.476  0.00  0.00    +0.000 NA
ATOM      9  C   UNL     1      -0.134  11.455  18.792  0.00  0.00    +0.000 A 
ATOM     10  C   UNL     1       0.563  12.193  19.939  0.00  0.00    +0.000 C 
ATOM     11  C   UNL     1       0.943  11.324  21.157  0.00  0.00    +0.000 C 
ATOM     12  C   UNL     1      -0.313  11.233  22.055  0.00  0.00    +0.000 C 
ATOM     13  C   UNL     1      -1.440  11.907  21.234  0.00  0.00    +0.000 C 
ENDROOT
BRANCH   1  17
ATOM     14  C   UNL     1      -1.144  16.637  22.815  0.00  0.00    +0.000 A 
ATOM     15  C   UNL     1      -1.817  16.494  21.610  0.00  0.00    +0.000 A 
ATOM     16  C   UNL     1      -1.563  15.380  20.806  0.00  0.00    +0.000 A 
ATOM     17  C   UNL     1      -0.645  14.360  21.171  0.00  0.00    +0.000 A 
ATOM     18  C   UNL     1       0.079  14.563  22.353  0.00  0.00    +0.000 A 
ATOM     19  C   UNL     1      -0.182  15.684  23.171  0.00  0.00    +0.000 A 
BRANCH  14  21
ATOM     20  N   UNL     1      -1.745  18.628  24.370  0.00  0.00    +0.000 NA
ATOM     21  C   UNL     1      -1.471  17.733  23.687  0.00  0.00    +0.000 C 
ENDBRANCH  14  21
ENDBRANCH   1  17
BRANCH  13  22
ATOM     22  C   UNL     1      -2.700  12.330  21.944  0.00  0.00    +0.000 A 
ATOM     23  C   UNL     1      -2.786  12.461  23.333  0.00  0.00    +0.000 A 
ATOM     24  C   UNL     1      -3.982  12.861  23.928  0.00  0.00    +0.000 A 
ATOM     25  C   UNL     1      -5.102  13.128  23.144  0.00  0.00    +0.000 A 
ATOM     26  C   UNL     1      -5.033  12.997  21.761  0.00  0.00    +0.000 A 
ATOM     27  C   UNL     1      -3.841  12.599  21.165  0.00  0.00    +0.000 A 
ENDBRANCH  13  22
BRANCH  10  28
ATOM     28  O   UNL     1       1.673  12.917  19.427  0.00  0.00    +0.000 OA
ATOM     29  H   UNL     1       1.374  13.355  18.607  0.00  0.00    +0.000 HD
ENDBRANCH  10  28
BRANCH  11  30
ATOM     30  O   UNL     1       1.510  10.052  20.836  0.00  0.00    +0.000 OA
ATOM     31  H   UNL     1       1.784   9.612  21.671  0.00  0.00    +0.000 HD
ENDBRANCH  11  30
BRANCH  12  32
ATOM     32  C   UNL     1      -0.664   9.822  22.520  0.00  0.00    +0.000 C 
BRANCH  32  33
ATOM     33  O   UNL     1      -0.240   9.640  23.865  0.00  0.00    +0.000 OA
ATOM     34  H   UNL     1       0.541   9.051  23.831  0.00  0.00    +0.000 HD
ENDBRANCH  32  33
ENDBRANCH  12  32
TORSDOF 7
ENDMDL
MODEL 3
REMARK VINA RESULT:      -5.6      3.104      6.554
REMARK  Name = 
REMARK  7 active torsions:
REMARK  status: ('A' for Active; 'I' for Inactive)
REMARK    1  A    between atoms: C_2  and  C_3
REMARK    2  A    between atoms: C_6  and  C_7
REMARK    3  A    between atoms: C_16  and  O_17
REMARK    4  A    between atoms: C_18  and  O_19
REMARK    5  A    between atoms: C_20  and  C_21
REMARK    6  A    between atoms: C_21  and  O_22
REMARK    7  A    between atoms: C_23  and  C_24
REMARK                            x       y       z     vdW  Elec       q    Type
REMARK                         _______ _______ _______ _____ _____    ______ ____
ROOT
ATOM      1  C   UNL     1      -2.652  13.054  22.155  0.00  0.00    +0.000 C 
ATOM      2  O   UNL     1      -3.557  13.003  20.995  0.00  0.00    +0.000 OA
ATOM      3  C   UNL     1      -4.623  13.762  21.379  0.00  0.00    +0.000 A 
ATOM      4  C   UNL     1      -5.337  14.526  20.484  0.00  0.00    +0.000 A 
ATOM      5  C   UNL     1      -6.034  15.597  21.019  0.00  0.00    +0.000 A 
ATOM      6 CL   UNL     1      -6.791  16.726  19.969  0.00  0.00    +0.000 Cl
ATOM      7  C   UNL     1      -6.013  15.796  22.406  0.00  0.00    +0.000 A 
ATOM      8  N   UNL     1      -5.364  14.989  23.305  0.00  0.00    +0.000 NA
ATOM      9  C   UNL     1      -4.691  13.963  22.746  0.00  0.00    +0.000 A 
ATOM     10  C   UNL     1      -3.600  13.112  23.406  0.00  0.00    +0.000 C 
ATOM     11  C   UNL     1      -2.793  13.811  24.520  0.00  0.00    +0.000 C 
ATOM     12  C   UNL     1      -1.668  14.613  23.827  0.00  0.00    +0.000 C 
ATOM     13  C   UNL     1      -1.970  14.498  22.313  0.00  0.00    +0.000 C 
ENDROOT
BRANCH   1  17
ATOM     14  C   UNL     1      -0.042   9.603  21.546  0.00  0.00    +0.000 A 
ATOM     15  C   UNL     1      -0.415  10.006  22.821  0.00  0.00    +0.000 A 
ATOM     16  C   UNL     1      -1.159  11.177  22.984  0.00  0.00    +0.000 A 
ATOM     17  C   UNL     1      -1.575  11.984  21.891  0.00  0.00    +0.000 A 
ATOM     18  C   UNL     1      -1.123  11.600  20.622  0.00  0.00    +0.000 A 
ATOM     19  C   UNL     1      -0.377  10.412  20.454  0.00  0.00    +0.000 A 
BRANCH  14  21
ATOM     20  N   UNL     1       1.186   7.341  21.200  0.00  0.00    +0.000 NA
ATOM     21  C   UNL     1       0.644   8.351  21.368  0.00  0.00    +0.000 C 
ENDBRANCH  14  21
ENDBRANCH   1  17
BRANCH  13  22
ATOM     22  C   UNL     1      -0.881  14.838  21.328  0.00  0.00    +0.000 A 
ATOM     23  C   UNL     1       0.479  14.693  21.615  0.00  0.00    +0.000 A 
ATOM     24  C   UNL     1       1.437  15.022  20.656  0.00  0.00    +0.000 A 
ATOM     25  C   UNL     1       1.047  15.503  19.409  0.00  0.00    +0.000 A 
ATOM     26  C   UNL     1      -0.303  15.656  19.111  0.00  0.00    +0.000 A 
ATOM     27  C   UNL     1      -1.260  15.328  20.065  0.00  0.00    +0.000 A 
ENDBRANCH  13  22
BRANCH  10  28
ATOM     28  O   UNL     1      -4.162  11.881  23.838  0.00  0.00    +0.000 OA
ATOM     29  H   UNL     1      -5.116  11.914  23.633  0.00  0.00    +0.000 HD
ENDBRANCH  10  28
BRANCH  11  30
ATOM     30  O   UNL     1      -3.573  14.589  25.432  0.00  0.00    +0.000 OA
ATOM     31  H   UNL     1      -3.216  15.504  25.445  0.00  0.00    +0.000 HD
ENDBRANCH  11  30
BRANCH  12  32
ATOM     32  C   UNL     1      -1.523  16.055  24.307  0.00  0.00    +0.000 C 
BRANCH  32  33
ATOM     33  O   UNL     1      -2.672  16.804  23.930  0.00  0.00    +0.000 OA
ATOM     34  H   UNL     1      -2.429  17.748  24.023  0.00  0.00    +0.000 HD
ENDBRANCH  32  33
ENDBRANCH  12  32
TORSDOF 7
ENDMDL
MODEL 4
REMARK VINA RESULT:      -5.6      3.174      6.498
REMARK  Name = 
REMARK  7 active torsions:
REMARK  status: ('A' for Active; 'I' for Inactive)
REMARK    1  A    between atoms: C_2  and  C_3
REMARK    2  A    between atoms: C_6  and  C_7
REMARK    3  A    between atoms: C_16  and  O_17
REMARK    4  A    between atoms: C_18  and  O_19
REMARK    5  A    between atoms: C_20  and  C_21
REMARK    6  A    between atoms: C_21  and  O_22
REMARK    7  A    between atoms: C_23  and  C_24
REMARK                            x       y       z     vdW  Elec       q    Type
REMARK                         _______ _______ _______ _____ _____    ______ ____
ROOT
ATOM      1  C   UNL     1      -2.769  13.233  22.176  0.00  0.00    +0.000 C 
ATOM      2  O   UNL     1      -3.609  13.439  20.985  0.00  0.00    +0.000 OA
ATOM      3  C   UNL     1      -4.471  14.428  21.359  0.00  0.00    +0.000 A 
ATOM      4  C   UNL     1      -4.936  15.368  20.469  0.00  0.00    +0.000 A 
ATOM      5  C   UNL     1      -5.371  16.564  21.017  0.00  0.00    +0.000 A 
ATOM      6 CL   UNL     1      -5.781  17.873  19.984  0.00  0.00    +0.000 Cl
ATOM      7  C   UNL     1      -5.360  16.714  22.411  0.00  0.00    +0.000 A 
ATOM      8  N   UNL     1      -4.968  15.748  23.302  0.00  0.00    +0.000 NA
ATOM      9  C   UNL     1      -4.545  14.602  22.730  0.00  0.00    +0.000 A 
ATOM     10  C   UNL     1      -3.726  13.492  23.395  0.00  0.00    +0.000 C 
ATOM     11  C   UNL     1      -2.821  13.938  24.562  0.00  0.00    +0.000 C 
ATOM     12  C   UNL     1      -1.504  14.456  23.938  0.00  0.00    +0.000 C 
ATOM     13  C   UNL     1      -1.761  14.460  22.410  0.00  0.00    +0.000 C 
ENDROOT
BRANCH   1  17
ATOM     14  C   UNL     1      -0.073   9.933  21.213  0.00  0.00    +0.000 A 
ATOM     15  C   UNL     1      -0.734  10.635  20.215  0.00  0.00    +0.000 A 
ATOM     16  C   UNL     1      -1.672  11.611  20.564  0.00  0.00    +0.000 A 
ATOM     17  C   UNL     1      -1.978  11.938  21.912  0.00  0.00    +0.000 A 
ATOM     18  C   UNL     1      -1.356  11.165  22.900  0.00  0.00    +0.000 A 
ATOM     19  C   UNL     1      -0.402  10.184  22.551  0.00  0.00    +0.000 A 
BRANCH  14  21
ATOM     20  N   UNL     1       1.772   8.221  20.575  0.00  0.00    +0.000 NA
ATOM     21  C   UNL     1       0.959   8.995  20.859  0.00  0.00    +0.000 C 
ENDBRANCH  14  21
ENDBRANCH   1  17
BRANCH  13  22
ATOM     22  C   UNL     1      -0.581  14.546  21.477  0.00  0.00    +0.000 A 
ATOM     23  C   UNL     1       0.698  14.098  21.820  0.00  0.00    +0.000 A 
ATOM     24  C   UNL     1       1.747  14.203  20.907  0.00  0.00    +0.000 A 
ATOM     25  C   UNL     1       1.531  14.760  19.649  0.00  0.00    +0.000 A 
ATOM     26  C   UNL     1       0.265  15.214  19.296  0.00  0.00    +0.000 A 
ATOM     27  C   UNL     1      -0.784  15.109  20.204  0.00  0.00    +0.000 A 
ENDBRANCH  13  22
BRANCH  10  28
ATOM     28  O   UNL     1      -4.591  12.426  23.763  0.00  0.00    +0.000 OA
ATOM     29  H   UNL     1      -5.420  12.829  24.086  0.00  0.00    +0.000 HD
ENDBRANCH  10  28
BRANCH  11  30
ATOM     30  O   UNL     1      -3.423  14.861  25.473  0.00  0.00    +0.000 OA
ATOM     31  H   UNL     1      -3.234  14.563  26.390  0.00  0.00    +0.000 HD
ENDBRANCH  11  30
BRANCH  12  32
ATOM     32  C   UNL     1      -1.029  15.804  24.474  0.00  0.00    +0.000 C 
BRANCH  32  33
ATOM     33  O   UNL     1      -0.475  15.636  25.773  0.00  0.00    +0.000 OA
ATOM     34  H   UNL     1      -0.593  16.490  26.236  0.00  0.00    +0.000 HD
ENDBRANCH  32  33
ENDBRANCH  12  32
TORSDOF 7
ENDMDL
MODEL 5
REMARK VINA RESULT:      -5.6      2.976      6.697
REMARK  Name = 
REMARK  7 active torsions:
REMARK  status: ('A' for Active; 'I' for Inactive)
REMARK    1  A    between atoms: C_2  and  C_3
REMARK    2  A    between atoms: C_6  and  C_7
REMARK    3  A    between atoms: C_16  and  O_17
REMARK    4  A    between atoms: C_18  and  O_19
REMARK    5  A    between atoms: C_20  and  C_21
REMARK    6  A    between atoms: C_21  and  O_22
REMARK    7  A    between atoms: C_23  and  C_24
REMARK                            x       y       z     vdW  Elec       q    Type
REMARK                         _______ _______ _______ _____ _____    ______ ____
ROOT
ATOM      1  C   UNL     1       0.298  12.468  20.556  0.00  0.00    +0.000 C 
ATOM      2  O   UNL     1      -0.323  12.053  21.825  0.00  0.00    +0.000 OA
ATOM      3  C   UNL     1      -0.396  13.209  22.547  0.00  0.00    +0.000 A 
ATOM      4  C   UNL     1      -1.428  13.460  23.421  0.00  0.00    +0.000 A 
ATOM      5  C   UNL     1      -1.675  14.794  23.702  0.00  0.00    +0.000 A 
ATOM      6 CL   UNL     1      -3.062  15.226  24.619  0.00  0.00    +0.000 Cl
ATOM      7  C   UNL     1      -0.846  15.772  23.137  0.00  0.00    +0.000 A 
ATOM      8  N   UNL     1       0.231  15.516  22.326  0.00  0.00    +0.000 NA
ATOM      9  C   UNL     1       0.435  14.208  22.069  0.00  0.00    +0.000 A 
ATOM     10  C   UNL     1       1.297  13.615  20.951  0.00  0.00    +0.000 C 
ATOM     11  C   UNL     1       1.454  14.495  19.693  0.00  0.00    +0.000 C 
ATOM     12  C   UNL     1       0.218  14.232  18.801  0.00  0.00    +0.000 C 
ATOM     13  C   UNL     1      -0.710  13.337  19.659  0.00  0.00    +0.000 C 
ENDROOT
BRANCH   1  17
ATOM     14  C   UNL     1       1.938   8.893  18.654  0.00  0.00    +0.000 A 
ATOM     15  C   UNL     1       2.125  10.152  18.100  0.00  0.00    +0.000 A 
ATOM     16  C   UNL     1       1.495  11.259  18.675  0.00  0.00    +0.000 A 
ATOM     17  C   UNL     1       0.669  11.163  19.826  0.00  0.00    +0.000 A 
ATOM     18  C   UNL     1       0.432   9.875  20.322  0.00  0.00    +0.000 A 
ATOM     19  C   UNL     1       1.075   8.755  19.748  0.00  0.00    +0.000 A 
BRANCH  14  21
ATOM     20  N   UNL     1       3.242   6.851  17.719  0.00  0.00    +0.000 NA
ATOM     21  C   UNL     1       2.658   7.767  18.123  0.00  0.00    +0.000 C 
ENDBRANCH  14  21
ENDBRANCH   1  17
BRANCH  13  22
ATOM     22  C   UNL     1      -1.823  12.584  18.978  0.00  0.00    +0.000 A 
ATOM     23  C   UNL     1      -1.679  11.975  17.728  0.00  0.00    +0.000 A 
ATOM     24  C   UNL     1      -2.748  11.289  17.154  0.00  0.00    +0.000 A 
ATOM     25  C   UNL     1      -3.970  11.208  17.819  0.00  0.00    +0.000 A 
ATOM     26  C   UNL     1      -4.129  11.813  19.061  0.00  0.00    +0.000 A 
ATOM     27  C   UNL     1      -3.063  12.497  19.636  0.00  0.00    +0.000 A 
ENDBRANCH  13  22
BRANCH  10  28
ATOM     28  O   UNL     1       2.550  13.212  21.486  0.00  0.00    +0.000 OA
ATOM     29  H   UNL     1       3.062  14.025  21.656  0.00  0.00    +0.000 HD
ENDBRANCH  10  28
BRANCH  11  30
ATOM     30  O   UNL     1       1.687  15.881  19.953  0.00  0.00    +0.000 OA
ATOM     31  H   UNL     1       1.950  15.983  20.894  0.00  0.00    +0.000 HD
ENDBRANCH  11  30
BRANCH  12  32
ATOM     32  C   UNL     1      -0.470  15.490  18.277  0.00  0.00    +0.000 C 
BRANCH  32  33
ATOM     33  O   UNL     1      -1.193  16.115  19.329  0.00  0.00    +0.000 OA
ATOM     34  H   UNL     1      -2.087  15.716  19.325  0.00  0.00    +0.000 HD
ENDBRANCH  32  33
ENDBRANCH  12  32
TORSDOF 7
ENDMDL
MODEL 6
REMARK VINA RESULT:      -5.6      2.561      3.634
REMARK  Name = 
REMARK  7 active torsions:
REMARK  status: ('A' for Active; 'I' for Inactive)
REMARK    1  A    between atoms: C_2  and  C_3
REMARK    2  A    between atoms: C_6  and  C_7
REMARK    3  A    between atoms: C_16  and  O_17
REMARK    4  A    between atoms: C_18  and  O_19
REMARK    5  A    between atoms: C_20  and  C_21
REMARK    6  A    between atoms: C_21  and  O_22
REMARK    7  A    between atoms: C_23  and  C_24
REMARK                            x       y       z     vdW  Elec       q    Type
REMARK                         _______ _______ _______ _____ _____    ______ ____
ROOT
ATOM      1  C   UNL     1       0.193  12.590  19.157  0.00  0.00    +0.000 C 
ATOM      2  O   UNL     1      -0.728  12.996  18.082  0.00  0.00    +0.000 OA
ATOM      3  C   UNL     1      -1.466  11.874  17.843  0.00  0.00    +0.000 A 
ATOM      4  C   UNL     1      -2.788  11.935  17.467  0.00  0.00    +0.000 A 
ATOM      5  C   UNL     1      -3.549  10.807  17.733  0.00  0.00    +0.000 A 
ATOM      6 CL   UNL     1      -5.248  10.853  17.489  0.00  0.00    +0.000 Cl
ATOM      7  C   UNL     1      -2.926   9.688  18.301  0.00  0.00    +0.000 A 
ATOM      8  N   UNL     1      -1.591   9.600  18.603  0.00  0.00    +0.000 NA
ATOM      9  C   UNL     1      -0.886  10.719  18.338  0.00  0.00    +0.000 A 
ATOM     10  C   UNL     1       0.504  11.077  18.872  0.00  0.00    +0.000 C 
ATOM     11  C   UNL     1       0.876  10.454  20.234  0.00  0.00    +0.000 C 
ATOM     12  C   UNL     1       0.283  11.373  21.327  0.00  0.00    +0.000 C 
ATOM     13  C   UNL     1      -0.572  12.409  20.557  0.00  0.00    +0.000 C 
ENDROOT
BRANCH   1  17
ATOM     14  C   UNL     1       2.757  16.056  19.866  0.00  0.00    +0.000 A 
ATOM     15  C   UNL     1       1.598  16.162  19.110  0.00  0.00    +0.000 A 
ATOM     16  C   UNL     1       0.861  15.013  18.811  0.00  0.00    +0.000 A 
ATOM     17  C   UNL     1       1.235  13.719  19.263  0.00  0.00    +0.000 A 
ATOM     18  C   UNL     1       2.447  13.625  19.959  0.00  0.00    +0.000 A 
ATOM     19  C   UNL     1       3.190  14.786  20.269  0.00  0.00    +0.000 A 
BRANCH  14  21
ATOM     20  N   UNL     1       4.036  18.213  20.539  0.00  0.00    +0.000 NA
ATOM     21  C   UNL     1       3.466  17.246  20.253  0.00  0.00    +0.000 C 
ENDBRANCH  14  21
ENDBRANCH   1  17
BRANCH  13  22
ATOM     22  C   UNL     1      -0.989  13.674  21.262  0.00  0.00    +0.000 A 
ATOM     23  C   UNL     1      -0.269  14.226  22.326  0.00  0.00    +0.000 A 
ATOM     24  C   UNL     1      -0.708  15.402  22.933  0.00  0.00    +0.000 A 
ATOM     25  C   UNL     1      -1.867  16.033  22.489  0.00  0.00    +0.000 A 
ATOM     26  C   UNL     1      -2.595  15.492  21.435  0.00  0.00    +0.000 A 
ATOM     27  C   UNL     1      -2.160  14.320  20.826  0.00  0.00    +0.000 A 
ENDBRANCH  13  22
BRANCH  10  28
ATOM     28  O   UNL     1       1.476  10.804  17.872  0.00  0.00    +0.000 OA
ATOM     29  H   UNL     1       1.039  10.257  17.191  0.00  0.00    +0.000 HD
ENDBRANCH  10  28
BRANCH  11  30
ATOM     30  O   UNL     1       0.516   9.078  20.386  0.00  0.00    +0.000 OA
ATOM     31  H   UNL     1       1.335   8.536  20.361  0.00  0.00    +0.000 HD
ENDBRANCH  11  30
BRANCH  12  32
ATOM     32  C   UNL     1      -0.491  10.645  22.423  0.00  0.00    +0.000 C 
BRANCH  32  33
ATOM     33  O   UNL     1       0.417   9.974  23.287  0.00  0.00    +0.000 OA
ATOM     34  H   UNL     1       0.381   9.026  23.043  0.00  0.00    +0.000 HD
ENDBRANCH  32  33
ENDBRANCH  12  32
TORSDOF 7
ENDMDL
MODEL 7
REMARK VINA RESULT:      -5.6      2.875      6.442
REMARK  Name = 
REMARK  7 active torsions:
REMARK  status: ('A' for Active; 'I' for Inactive)
REMARK    1  A    between atoms: C_2  and  C_3
REMARK    2  A    between atoms: C_6  and  C_7
REMARK    3  A    between atoms: C_16  and  O_17
REMARK    4  A    between atoms: C_18  and  O_19
REMARK    5  A    between atoms: C_20  and  C_21
REMARK    6  A    between atoms: C_21  and  O_22
REMARK    7  A    between atoms: C_23  and  C_24
REMARK                            x       y       z     vdW  Elec       q    Type
REMARK                         _______ _______ _______ _____ _____    ______ ____
ROOT
ATOM      1  C   UNL     1      -1.784  13.344  22.545  0.00  0.00    +0.000 C 
ATOM      2  O   UNL     1      -2.977  12.806  23.221  0.00  0.00    +0.000 OA
ATOM      3  C   UNL     1      -3.670  13.919  23.595  0.00  0.00    +0.000 A 
ATOM      4  C   UNL     1      -5.045  13.948  23.626  0.00  0.00    +0.000 A 
ATOM      5  C   UNL     1      -5.630  15.200  23.526  0.00  0.00    +0.000 A 
ATOM      6 CL   UNL     1      -7.334  15.329  23.353  0.00  0.00    +0.000 Cl
ATOM      7  C   UNL     1      -4.805  16.331  23.457  0.00  0.00    +0.000 A 
ATOM      8  N   UNL     1      -3.435  16.308  23.504  0.00  0.00    +0.000 NA
ATOM      9  C   UNL     1      -2.902  15.071  23.593  0.00  0.00    +0.000 A 
ATOM     10  C   UNL     1      -1.450  14.674  23.311  0.00  0.00    +0.000 C 
ATOM     11  C   UNL     1      -0.698  15.569  22.305  0.00  0.00    +0.000 C 
ATOM     12  C   UNL     1      -1.053  15.054  20.890  0.00  0.00    +0.000 C 
ATOM     13  C   UNL     1      -2.148  13.984  21.119  0.00  0.00    +0.000 C 
ENDROOT
BRANCH   1  17
ATOM     14  C   UNL     1       0.457   9.691  21.693  0.00  0.00    +0.000 A 
ATOM     15  C   UNL     1      -0.588   9.697  22.607  0.00  0.00    +0.000 A 
ATOM     16  C   UNL     1      -1.210  10.904  22.936  0.00  0.00    +0.000 A 
ATOM     17  C   UNL     1      -0.831  12.147  22.362  0.00  0.00    +0.000 A 
ATOM     18  C   UNL     1       0.274  12.129  21.502  0.00  0.00    +0.000 A 
ATOM     19  C   UNL     1       0.899  10.909  21.161  0.00  0.00    +0.000 A 
BRANCH  14  21
ATOM     20  N   UNL     1       1.499   7.439  20.927  0.00  0.00    +0.000 NA
ATOM     21  C   UNL     1       1.037   8.441  21.283  0.00  0.00    +0.000 C 
ENDBRANCH  14  21
ENDBRANCH   1  17
BRANCH  13  22
ATOM     22  C   UNL     1      -2.458  13.014  20.007  0.00  0.00    +0.000 A 
ATOM     23  C   UNL     1      -1.509  12.605  19.066  0.00  0.00    +0.000 A 
ATOM     24  C   UNL     1      -1.859  11.701  18.064  0.00  0.00    +0.000 A 
ATOM     25  C   UNL     1      -3.158  11.203  17.989  0.00  0.00    +0.000 A 
ATOM     26  C   UNL     1      -4.113  11.605  18.916  0.00  0.00    +0.000 A 
ATOM     27  C   UNL     1      -3.766  12.506  19.917  0.00  0.00    +0.000 A 
ENDBRANCH  13  22
BRANCH  10  28
ATOM     28  O   UNL     1      -0.751  14.542  24.541  0.00  0.00    +0.000 OA
ATOM     29  H   UNL     1      -0.774  15.416  24.978  0.00  0.00    +0.000 HD
ENDBRANCH  10  28
BRANCH  11  30
ATOM     30  O   UNL     1      -0.909  16.974  22.472  0.00  0.00    +0.000 OA
ATOM     31  H   UNL     1      -1.873  17.153  22.415  0.00  0.00    +0.000 HD
ENDBRANCH  11  30
BRANCH  12  32
ATOM     32  C   UNL     1      -1.466  16.141  19.900  0.00  0.00    +0.000 C 
BRANCH  32  33
ATOM     33  O   UNL     1      -2.799  16.556  20.172  0.00  0.00    +0.000 OA
ATOM     34  H   UNL     1      -2.976  17.318  19.584  0.00  0.00    +0.000 HD
ENDBRANCH  32  33
ENDBRANCH  12  32
TORSDOF 7
ENDMDL
MODEL 8
REMARK VINA RESULT:      -5.5      2.704      3.989
REMARK  Name = 
REMARK  7 active torsions:
REMARK  status: ('A' for Active; 'I' for Inactive)
REMARK    1  A    between atoms: C_2  and  C_3
REMARK    2  A    between atoms: C_6  and  C_7
REMARK    3  A    between atoms: C_16  and  O_17
REMARK    4  A    between atoms: C_18  and  O_19
REMARK    5  A    between atoms: C_20  and  C_21
REMARK    6  A    between atoms: C_21  and  O_22
REMARK    7  A    between atoms: C_23  and  C_24
REMARK                            x       y       z     vdW  Elec       q    Type
REMARK                         _______ _______ _______ _____ _____    ______ ____
ROOT
ATOM      1  C   UNL     1       0.178  12.700  19.261  0.00  0.00    +0.000 C 
ATOM      2  O   UNL     1      -0.740  13.106  18.183  0.00  0.00    +0.000 OA
ATOM      3  C   UNL     1      -1.422  11.963  17.887  0.00  0.00    +0.000 A 
ATOM      4  C   UNL     1      -2.739  11.980  17.488  0.00  0.00    +0.000 A 
ATOM      5  C   UNL     1      -3.453  10.811  17.696  0.00  0.00    +0.000 A 
ATOM      6 CL   UNL     1      -5.148  10.791  17.419  0.00  0.00    +0.000 Cl
ATOM      7  C   UNL     1      -2.792   9.699  18.235  0.00  0.00    +0.000 A 
ATOM      8  N   UNL     1      -1.461   9.658  18.561  0.00  0.00    +0.000 NA
ATOM      9  C   UNL     1      -0.801  10.816  18.352  0.00  0.00    +0.000 A 
ATOM     10  C   UNL     1       0.562  11.214  18.926  0.00  0.00    +0.000 C 
ATOM     11  C   UNL     1       0.935  10.557  20.272  0.00  0.00    +0.000 C 
ATOM     12  C   UNL     1       0.282  11.407  21.386  0.00  0.00    +0.000 C 
ATOM     13  C   UNL     1      -0.604  12.433  20.637  0.00  0.00    +0.000 C 
ENDROOT
BRANCH   1  17
ATOM     14  C   UNL     1       3.307  15.750  19.275  0.00  0.00    +0.000 A 
ATOM     15  C   UNL     1       3.538  14.480  19.786  0.00  0.00    +0.000 A 
ATOM     16  C   UNL     1       2.484  13.566  19.866  0.00  0.00    +0.000 A 
ATOM     17  C   UNL     1       1.167  13.869  19.430  0.00  0.00    +0.000 A 
ATOM     18  C   UNL     1       0.939  15.179  18.989  0.00  0.00    +0.000 A 
ATOM     19  C   UNL     1       2.004  16.103  18.900  0.00  0.00    +0.000 A 
BRANCH  14  21
ATOM     20  N   UNL     1       5.286  17.407  18.990  0.00  0.00    +0.000 NA
ATOM     21  C   UNL     1       4.407  16.660  19.105  0.00  0.00    +0.000 C 
ENDBRANCH  14  21
ENDBRANCH   1  17
BRANCH  13  22
ATOM     22  C   UNL     1      -1.090  13.651  21.380  0.00  0.00    +0.000 A 
ATOM     23  C   UNL     1      -0.414  14.196  22.476  0.00  0.00    +0.000 A 
ATOM     24  C   UNL     1      -0.916  15.328  23.117  0.00  0.00    +0.000 A 
ATOM     25  C   UNL     1      -2.096  15.922  22.675  0.00  0.00    +0.000 A 
ATOM     26  C   UNL     1      -2.781  15.387  21.589  0.00  0.00    +0.000 A 
ATOM     27  C   UNL     1      -2.282  14.259  20.947  0.00  0.00    +0.000 A 
ENDBRANCH  13  22
BRANCH  10  28
ATOM     28  O   UNL     1       1.563  11.022  17.937  0.00  0.00    +0.000 OA
ATOM     29  H   UNL     1       2.427  11.118  18.382  0.00  0.00    +0.000 HD
ENDBRANCH  10  28
BRANCH  11  30
ATOM     30  O   UNL     1       0.634   9.162  20.365  0.00  0.00    +0.000 OA
ATOM     31  H   UNL     1      -0.343   9.055  20.391  0.00  0.00    +0.000 HD
ENDBRANCH  11  30
BRANCH  12  32
ATOM     32  C   UNL     1      -0.480  10.605  22.438  0.00  0.00    +0.000 C 
BRANCH  32  33
ATOM     33  O   UNL     1       0.441   9.958  23.307  0.00  0.00    +0.000 OA
ATOM     34  H   UNL     1       0.021   9.116  23.577  0.00  0.00    +0.000 HD
ENDBRANCH  32  33
ENDBRANCH  12  32
TORSDOF 7
ENDMDL
MODEL 9
REMARK VINA RESULT:      -5.5      3.285      5.837
REMARK  Name = 
REMARK  7 active torsions:
REMARK  status: ('A' for Active; 'I' for Inactive)
REMARK    1  A    between atoms: C_2  and  C_3
REMARK    2  A    between atoms: C_6  and  C_7
REMARK    3  A    between atoms: C_16  and  O_17
REMARK    4  A    between atoms: C_18  and  O_19
REMARK    5  A    between atoms: C_20  and  C_21
REMARK    6  A    between atoms: C_21  and  O_22
REMARK    7  A    between atoms: C_23  and  C_24
REMARK                            x       y       z     vdW  Elec       q    Type
REMARK                         _______ _______ _______ _____ _____    ______ ____
ROOT
ATOM      1  C   UNL     1      -1.509  14.194  20.343  0.00  0.00    +0.000 C 
ATOM      2  O   UNL     1      -0.541  14.094  19.238  0.00  0.00    +0.000 OA
ATOM      3  C   UNL     1       0.275  15.171  19.418  0.00  0.00    +0.000 A 
ATOM      4  C   UNL     1       1.614  15.133  19.105  0.00  0.00    +0.000 A 
ATOM      5  C   UNL     1       2.420  16.048  19.764  0.00  0.00    +0.000 A 
ATOM      6 CL   UNL     1       4.126  15.953  19.596  0.00  0.00    +0.000 Cl
ATOM      7  C   UNL     1       1.826  16.964  20.643  0.00  0.00    +0.000 A 
ATOM      8  N   UNL     1       0.481  17.052  20.897  0.00  0.00    +0.000 NA
ATOM      9  C   UNL     1      -0.268  16.140  20.243  0.00  0.00    +0.000 A 
ATOM     10  C   UNL     1      -1.711  15.737  20.564  0.00  0.00    +0.000 C 
ATOM     11  C   UNL     1      -2.138  15.905  22.037  0.00  0.00    +0.000 C 
ATOM     12  C   UNL     1      -1.676  14.634  22.788  0.00  0.00    +0.000 C 
ATOM     13  C   UNL     1      -0.833  13.845  21.756  0.00  0.00    +0.000 C 
ENDROOT
BRANCH   1  17
ATOM     14  C   UNL     1      -4.959  11.791  19.156  0.00  0.00    +0.000 A 
ATOM     15  C   UNL     1      -5.041  12.699  20.203  0.00  0.00    +0.000 A 
ATOM     16  C   UNL     1      -3.891  13.369  20.626  0.00  0.00    +0.000 A 
ATOM     17  C   UNL     1      -2.620  13.178  20.021  0.00  0.00    +0.000 A 
ATOM     18  C   UNL     1      -2.546  12.203  19.018  0.00  0.00    +0.000 A 
ATOM     19  C   UNL     1      -3.708  11.529  18.583  0.00  0.00    +0.000 A 
BRANCH  14  21
ATOM     20  N   UNL     1      -7.134  10.680  18.274  0.00  0.00    +0.000 NA
ATOM     21  C   UNL     1      -6.156  11.169  18.657  0.00  0.00    +0.000 C 
ENDBRANCH  14  21
ENDBRANCH   1  17
BRANCH  13  22
ATOM     22  C   UNL     1      -0.540  12.390  22.019  0.00  0.00    +0.000 A 
ATOM     23  C   UNL     1      -1.231  11.633  22.970  0.00  0.00    +0.000 A 
ATOM     24  C   UNL     1      -0.914  10.289  23.161  0.00  0.00    +0.000 A 
ATOM     25  C   UNL     1       0.097   9.691  22.412  0.00  0.00    +0.000 A 
ATOM     26  C   UNL     1       0.796  10.434  21.466  0.00  0.00    +0.000 A 
ATOM     27  C   UNL     1       0.480  11.775  21.272  0.00  0.00    +0.000 A 
ENDBRANCH  13  22
BRANCH  10  28
ATOM     28  O   UNL     1      -2.594  16.398  19.669  0.00  0.00    +0.000 OA
ATOM     29  H   UNL     1      -3.496  16.293  20.028  0.00  0.00    +0.000 HD
ENDBRANCH  10  28
BRANCH  11  30
ATOM     30  O   UNL     1      -1.708  17.121  22.654  0.00  0.00    +0.000 OA
ATOM     31  H   UNL     1      -0.777  17.011  22.946  0.00  0.00    +0.000 HD
ENDBRANCH  11  30
BRANCH  12  32
ATOM     32  C   UNL     1      -0.938  14.899  24.098  0.00  0.00    +0.000 C 
BRANCH  32  33
ATOM     33  O   UNL     1       0.255  15.629  23.837  0.00  0.00    +0.000 OA
ATOM     34  H   UNL     1       0.989  15.102  24.213  0.00  0.00    +0.000 HD
ENDBRANCH  32  33
ENDBRANCH  12  32
TORSDOF 7
ENDMDL
