MODEL 1
REMARK VINA RESULT:      -7.7      0.000      0.000
REMARK  Name = 
REMARK  10 active torsions:
REMARK  status: ('A' for Active; 'I' for Inactive)
REMARK    1  A    between atoms: C_1  and  C_2
REMARK    2  A    between atoms: C_2  and  C_3
REMARK    3  A    between atoms: C_2  and  N_4
REMARK    4  A    between atoms: N_4  and  C_5
REMARK    5  A    between atoms: C_7  and  N_8
REMARK    6  A    between atoms: C_13  and  C_14
REMARK    7  A    between atoms: C_22  and  C_23
REMARK    8  A    between atoms: N_25  and  C_26
REMARK    9  A    between atoms: C_26  and  C_27
REMARK   10  A    between atoms: C_27  and  C_28
REMARK                            x       y       z     vdW  Elec       q    Type
REMARK                         _______ _______ _______ _____ _____    ______ ____
ROOT
ATOM      1  C   UNL     1       2.349   6.735  19.806  0.00  0.00    +0.000 A 
ATOM      2  C   UNL     1       1.497   7.839  19.999  0.00  0.00    +0.000 A 
ATOM      3  C   UNL     1       1.338   8.855  19.034  0.00  0.00    +0.000 A 
ATOM      4  N   UNL     1       2.066   8.835  17.894  0.00  0.00    +0.000 NA
ATOM      5  C   UNL     1       2.987   7.814  17.769  0.00  0.00    +0.000 A 
ATOM      6  C   UNL     1       3.185   6.765  18.680  0.00  0.00    +0.000 A 
ENDROOT
BRANCH   3   7
ATOM      7  N   UNL     1       0.240   9.780  19.255  0.00  0.00    +0.000 N 
ATOM      8  N   UNL     1      -0.423  10.267  18.140  0.00  0.00    +0.000 NA
ATOM      9  C   UNL     1      -0.635  11.545  18.453  0.00  0.00    +0.000 A 
ATOM     10  C   UNL     1      -0.345  11.820  19.795  0.00  0.00    +0.000 A 
ATOM     11  C   UNL     1      -0.363  12.944  20.623  0.00  0.00    +0.000 A 
ATOM     12  C   UNL     1      -0.549  12.695  21.979  0.00  0.00    +0.000 A 
ATOM     13  C   UNL     1      -0.784  11.372  22.387  0.00  0.00    +0.000 A 
ATOM     14  N   UNL     1      -1.752  11.163  23.378  0.00  0.00    +0.000 N 
ATOM     15  N   UNL     1      -0.407  10.268  21.664  0.00  0.00    +0.000 NA
ATOM     16  C   UNL     1      -0.150  10.560  20.362  0.00  0.00    +0.000 A 
ATOM     17  H   UNL     1      -1.780  11.790  24.172  0.00  0.00    +0.000 HD
ATOM     18  H   UNL     1      -1.949  10.188  23.565  0.00  0.00    +0.000 HD
BRANCH  12  19
ATOM     19  C   UNL     1      -0.607  13.794  22.895  0.00  0.00    +0.000 C 
ATOM     20  N   UNL     1      -0.681  14.704  23.617  0.00  0.00    +0.000 NA
ENDBRANCH  12  19
ENDBRANCH   3   7
BRANCH   6  21
ATOM     21  C   UNL     1       4.276   5.765  18.400  0.00  0.00    +0.000 C 
ATOM     22  O   UNL     1       4.950   5.312  19.319  0.00  0.00    +0.000 OA
ATOM     23  N   UNL     1       4.461   5.376  17.087  0.00  0.00    +0.000 N 
ATOM     24  H   UNL     1       3.868   5.821  16.389  0.00  0.00    +0.000 HD
BRANCH  23  25
ATOM     25  C   UNL     1       5.456   4.400  16.644  0.00  0.00    +0.000 C 
BRANCH  25  26
ATOM     26  C   UNL     1       6.885   4.934  16.477  0.00  0.00    +0.000 C 
ATOM     27  C   UNL     1       7.815   4.545  17.614  0.00  0.00    +0.000 C 
ATOM     28  F   UNL     1       7.407   4.397  15.332  0.00  0.00    +0.000 F 
ENDBRANCH  25  26
ENDBRANCH  23  25
ENDBRANCH   6  21
BRANCH   1  29
ATOM     29  N   UNL     1       2.438   5.702  20.768  0.00  0.00    +0.000 N 
ATOM     30  H   UNL     1       2.489   6.121  21.701  0.00  0.00    +0.000 HD
BRANCH  29  32
ATOM     31  C   UNL     1       1.369   4.106  19.267  0.00  0.00    +0.000 C 
ATOM     32  C   UNL     1       1.477   4.581  20.715  0.00  0.00    +0.000 C 
ATOM     33  C   UNL     1       1.941   3.443  21.621  0.00  0.00    +0.000 C 
ENDBRANCH  29  32
ENDBRANCH   1  29
TORSDOF 7
ENDMDL
MODEL 2
REMARK VINA RESULT:      -7.6      0.823      1.057
REMARK  Name = 
REMARK  10 active torsions:
REMARK  status: ('A' for Active; 'I' for Inactive)
REMARK    1  A    between atoms: C_1  and  C_2
REMARK    2  A    between atoms: C_2  and  C_3
REMARK    3  A    between atoms: C_2  and  N_4
REMARK    4  A    between atoms: N_4  and  C_5
REMARK    5  A    between atoms: C_7  and  N_8
REMARK    6  A    between atoms: C_13  and  C_14
REMARK    7  A    between atoms: C_22  and  C_23
REMARK    8  A    between atoms: N_25  and  C_26
REMARK    9  A    between atoms: C_26  and  C_27
REMARK   10  A    between atoms: C_27  and  C_28
REMARK                            x       y       z     vdW  Elec       q    Type
REMARK                         _______ _______ _______ _____ _____    ______ ____
ROOT
ATOM      1  C   UNL     1       2.876   6.265  19.595  0.00  0.00    +0.000 A 
ATOM      2  C   UNL     1       1.958   7.315  19.794  0.00  0.00    +0.000 A 
ATOM      3  C   UNL     1       1.832   8.396  18.897  0.00  0.00    +0.000 A 
ATOM      4  N   UNL     1       2.654   8.496  17.828  0.00  0.00    +0.000 NA
ATOM      5  C   UNL     1       3.630   7.527  17.707  0.00  0.00    +0.000 A 
ATOM      6  C   UNL     1       3.802   6.418  18.552  0.00  0.00    +0.000 A 
ENDROOT
BRANCH   3   7
ATOM      7  N   UNL     1       0.676   9.254  19.090  0.00  0.00    +0.000 N 
ATOM      8  N   UNL     1      -0.054   9.608  17.967  0.00  0.00    +0.000 NA
ATOM      9  C   UNL     1      -0.349  10.888  18.194  0.00  0.00    +0.000 A 
ATOM     10  C   UNL     1      -0.041  11.281  19.502  0.00  0.00    +0.000 A 
ATOM     11  C   UNL     1      -0.117  12.460  20.248  0.00  0.00    +0.000 A 
ATOM     12  C   UNL     1      -0.244  12.299  21.624  0.00  0.00    +0.000 A 
ATOM     13  C   UNL     1      -0.368  10.996  22.134  0.00  0.00    +0.000 A 
ATOM     14  N   UNL     1      -1.289  10.793  23.170  0.00  0.00    +0.000 N 
ATOM     15  N   UNL     1       0.067   9.872  21.479  0.00  0.00    +0.000 NA
ATOM     16  C   UNL     1       0.263  10.084  20.151  0.00  0.00    +0.000 A 
ATOM     17  H   UNL     1      -1.339  11.474  23.918  0.00  0.00    +0.000 HD
ATOM     18  H   UNL     1      -1.408   9.823  23.434  0.00  0.00    +0.000 HD
BRANCH  12  19
ATOM     19  C   UNL     1      -0.355  13.455  22.460  0.00  0.00    +0.000 C 
ATOM     20  N   UNL     1      -0.419  14.414  23.119  0.00  0.00    +0.000 NA
ENDBRANCH  12  19
ENDBRANCH   3   7
BRANCH   6  21
ATOM     21  C   UNL     1       4.959   5.490  18.295  0.00  0.00    +0.000 C 
ATOM     22  O   UNL     1       5.265   4.640  19.123  0.00  0.00    +0.000 OA
ATOM     23  N   UNL     1       5.631   5.627  17.094  0.00  0.00    +0.000 N 
ATOM     24  H   UNL     1       5.318   6.376  16.477  0.00  0.00    +0.000 HD
BRANCH  23  25
ATOM     25  C   UNL     1       6.758   4.796  16.675  0.00  0.00    +0.000 C 
BRANCH  25  26
ATOM     26  C   UNL     1       6.751   4.354  15.206  0.00  0.00    +0.000 C 
ATOM     27  C   UNL     1       5.375   4.402  14.564  0.00  0.00    +0.000 C 
ATOM     28  F   UNL     1       7.551   5.214  14.502  0.00  0.00    +0.000 F 
ENDBRANCH  25  26
ENDBRANCH  23  25
ENDBRANCH   6  21
BRANCH   1  29
ATOM     29  N   UNL     1       2.933   5.165  20.481  0.00  0.00    +0.000 N 
ATOM     30  H   UNL     1       3.326   5.478  21.373  0.00  0.00    +0.000 HD
BRANCH  29  32
ATOM     31  C   UNL     1       1.379   3.685  19.325  0.00  0.00    +0.000 C 
ATOM     32  C   UNL     1       1.733   4.325  20.667  0.00  0.00    +0.000 C 
ATOM     33  C   UNL     1       1.996   3.251  21.721  0.00  0.00    +0.000 C 
ENDBRANCH  29  32
ENDBRANCH   1  29
TORSDOF 7
ENDMDL
MODEL 3
REMARK VINA RESULT:      -7.5      2.453      3.121
REMARK  Name = 
REMARK  10 active torsions:
REMARK  status: ('A' for Active; 'I' for Inactive)
REMARK    1  A    between atoms: C_1  and  C_2
REMARK    2  A    between atoms: C_2  and  C_3
REMARK    3  A    between atoms: C_2  and  N_4
REMARK    4  A    between atoms: N_4  and  C_5
REMARK    5  A    between atoms: C_7  and  N_8
REMARK    6  A    between atoms: C_13  and  C_14
REMARK    7  A    between atoms: C_22  and  C_23
REMARK    8  A    between atoms: N_25  and  C_26
REMARK    9  A    between atoms: C_26  and  C_27
REMARK   10  A    between atoms: C_27  and  C_28
REMARK                            x       y       z     vdW  Elec       q    Type
REMARK                         _______ _______ _______ _____ _____    ______ ____
ROOT
ATOM      1  C   UNL     1       2.814   5.129  18.975  0.00  0.00    +0.000 A 
ATOM      2  C   UNL     1       2.342   6.250  19.684  0.00  0.00    +0.000 A 
ATOM      3  C   UNL     1       2.473   7.568  19.198  0.00  0.00    +0.000 A 
ATOM      4  N   UNL     1       3.131   7.808  18.041  0.00  0.00    +0.000 NA
ATOM      5  C   UNL     1       3.695   6.714  17.415  0.00  0.00    +0.000 A 
ATOM      6  C   UNL     1       3.590   5.378  17.833  0.00  0.00    +0.000 A 
ENDROOT
BRANCH   3   7
ATOM      7  N   UNL     1       1.713   8.587  19.902  0.00  0.00    +0.000 N 
ATOM      8  N   UNL     1       1.541   8.430  21.268  0.00  0.00    +0.000 NA
ATOM      9  C   UNL     1       0.280   8.816  21.456  0.00  0.00    +0.000 A 
ATOM     10  C   UNL     1      -0.266   9.423  20.319  0.00  0.00    +0.000 A 
ATOM     11  C   UNL     1      -1.499   9.974  19.960  0.00  0.00    +0.000 A 
ATOM     12  C   UNL     1      -1.462  10.952  18.972  0.00  0.00    +0.000 A 
ATOM     13  C   UNL     1      -0.208  11.361  18.486  0.00  0.00    +0.000 A 
ATOM     14  N   UNL     1      -0.020  12.729  18.254  0.00  0.00    +0.000 N 
ATOM     15  N   UNL     1       0.927  10.594  18.555  0.00  0.00    +0.000 NA
ATOM     16  C   UNL     1       0.827   9.594  19.470  0.00  0.00    +0.000 A 
ATOM     17  H   UNL     1      -0.762  13.255  17.810  0.00  0.00    +0.000 HD
ATOM     18  H   UNL     1       0.926  12.979  17.998  0.00  0.00    +0.000 HD
BRANCH  12  19
ATOM     19  C   UNL     1      -2.678  11.587  18.563  0.00  0.00    +0.000 C 
ATOM     20  N   UNL     1      -3.686  12.086  18.261  0.00  0.00    +0.000 NA
ENDBRANCH  12  19
ENDBRANCH   3   7
BRANCH   6  21
ATOM     21  C   UNL     1       4.319   4.319  17.049  0.00  0.00    +0.000 C 
ATOM     22  O   UNL     1       4.010   3.139  17.168  0.00  0.00    +0.000 OA
ATOM     23  N   UNL     1       5.317   4.738  16.189  0.00  0.00    +0.000 N 
ATOM     24  H   UNL     1       5.518   5.736  16.172  0.00  0.00    +0.000 HD
BRANCH  23  25
ATOM     25  C   UNL     1       6.106   3.848  15.338  0.00  0.00    +0.000 C 
BRANCH  25  26
ATOM     26  C   UNL     1       6.182   4.237  13.856  0.00  0.00    +0.000 C 
ATOM     27  C   UNL     1       7.491   4.904  13.470  0.00  0.00    +0.000 C 
ATOM     28  F   UNL     1       6.081   3.092  13.112  0.00  0.00    +0.000 F 
ENDBRANCH  25  26
ENDBRANCH  23  25
ENDBRANCH   6  21
BRANCH   1  29
ATOM     29  N   UNL     1       2.611   3.817  19.462  0.00  0.00    +0.000 N 
ATOM     30  H   UNL     1       3.316   3.615  20.176  0.00  0.00    +0.000 HD
BRANCH  29  32
ATOM     31  C   UNL     1       0.724   2.386  18.882  0.00  0.00    +0.000 C 
ATOM     32  C   UNL     1       1.257   3.406  19.886  0.00  0.00    +0.000 C 
ATOM     33  C   UNL     1       1.302   2.805  21.290  0.00  0.00    +0.000 C 
ENDBRANCH  29  32
ENDBRANCH   1  29
TORSDOF 7
ENDMDL
MODEL 4
REMARK VINA RESULT:      -7.5      3.601      9.208
REMARK  Name = 
REMARK  10 active torsions:
REMARK  status: ('A' for Active; 'I' for Inactive)
REMARK    1  A    between atoms: C_1  and  C_2
REMARK    2  A    between atoms: C_2  and  C_3
REMARK    3  A    between atoms: C_2  and  N_4
REMARK    4  A    between atoms: N_4  and  C_5
REMARK    5  A    between atoms: C_7  and  N_8
REMARK    6  A    between atoms: C_13  and  C_14
REMARK    7  A    between atoms: C_22  and  C_23
REMARK    8  A    between atoms: N_25  and  C_26
REMARK    9  A    between atoms: C_26  and  C_27
REMARK   10  A    between atoms: C_27  and  C_28
REMARK                            x       y       z     vdW  Elec       q    Type
REMARK                         _______ _______ _______ _____ _____    ______ ____
ROOT
ATOM      1  C   UNL     1       0.537   9.851  19.777  0.00  0.00    +0.000 A 
ATOM      2  C   UNL     1       1.222   8.696  19.353  0.00  0.00    +0.000 A 
ATOM      3  C   UNL     1       1.785   7.771  20.256  0.00  0.00    +0.000 A 
ATOM      4  N   UNL     1       1.742   8.002  21.588  0.00  0.00    +0.000 NA
ATOM      5  C   UNL     1       1.174   9.196  21.988  0.00  0.00    +0.000 A 
ATOM      6  C   UNL     1       0.583  10.152  21.146  0.00  0.00    +0.000 A 
ENDROOT
BRANCH   3   7
ATOM      7  N   UNL     1       2.225   6.509  19.687  0.00  0.00    +0.000 N 
ATOM      8  N   UNL     1       1.696   5.345  20.221  0.00  0.00    +0.000 NA
ATOM      9  C   UNL     1       2.746   4.524  20.245  0.00  0.00    +0.000 A 
ATOM     10  C   UNL     1       3.841   5.039  19.541  0.00  0.00    +0.000 A 
ATOM     11  C   UNL     1       5.149   4.632  19.267  0.00  0.00    +0.000 A 
ATOM     12  C   UNL     1       5.709   5.138  18.099  0.00  0.00    +0.000 A 
ATOM     13  C   UNL     1       4.905   5.929  17.263  0.00  0.00    +0.000 A 
ATOM     14  N   UNL     1       5.016   5.729  15.881  0.00  0.00    +0.000 N 
ATOM     15  N   UNL     1       3.795   6.613  17.691  0.00  0.00    +0.000 NA
ATOM     16  C   UNL     1       3.322   6.151  18.877  0.00  0.00    +0.000 A 
ATOM     17  H   UNL     1       5.937   5.608  15.478  0.00  0.00    +0.000 HD
ATOM     18  H   UNL     1       4.348   6.255  15.331  0.00  0.00    +0.000 HD
BRANCH  12  19
ATOM     19  C   UNL     1       7.037   4.750  17.730  0.00  0.00    +0.000 C 
ATOM     20  N   UNL     1       8.123   4.472  17.417  0.00  0.00    +0.000 NA
ENDBRANCH  12  19
ENDBRANCH   3   7
BRANCH   6  21
ATOM     21  C   UNL     1       0.059  11.424  21.759  0.00  0.00    +0.000 C 
ATOM     22  O   UNL     1       0.533  12.507  21.434  0.00  0.00    +0.000 OA
ATOM     23  N   UNL     1      -0.975  11.313  22.670  0.00  0.00    +0.000 N 
ATOM     24  H   UNL     1      -1.290  10.370  22.893  0.00  0.00    +0.000 HD
BRANCH  23  25
ATOM     25  C   UNL     1      -1.615  12.445  23.339  0.00  0.00    +0.000 C 
BRANCH  25  26
ATOM     26  C   UNL     1      -3.114  12.622  23.062  0.00  0.00    +0.000 C 
ATOM     27  C   UNL     1      -3.615  14.034  23.318  0.00  0.00    +0.000 C 
ATOM     28  F   UNL     1      -3.335  12.353  21.738  0.00  0.00    +0.000 F 
ENDBRANCH  25  26
ENDBRANCH  23  25
ENDBRANCH   6  21
BRANCH   1  29
ATOM     29  N   UNL     1      -0.069  10.725  18.846  0.00  0.00    +0.000 N 
ATOM     30  H   UNL     1       0.485  10.730  17.985  0.00  0.00    +0.000 HD
BRANCH  29  32
ATOM     31  C   UNL     1      -2.153  11.984  18.706  0.00  0.00    +0.000 C 
ATOM     32  C   UNL     1      -1.516  10.601  18.575  0.00  0.00    +0.000 C 
ATOM     33  C   UNL     1      -1.746  10.035  17.176  0.00  0.00    +0.000 C 
ENDBRANCH  29  32
ENDBRANCH   1  29
TORSDOF 7
ENDMDL
MODEL 5
REMARK VINA RESULT:      -7.4      1.721      2.168
REMARK  Name = 
REMARK  10 active torsions:
REMARK  status: ('A' for Active; 'I' for Inactive)
REMARK    1  A    between atoms: C_1  and  C_2
REMARK    2  A    between atoms: C_2  and  C_3
REMARK    3  A    between atoms: C_2  and  N_4
REMARK    4  A    between atoms: N_4  and  C_5
REMARK    5  A    between atoms: C_7  and  N_8
REMARK    6  A    between atoms: C_13  and  C_14
REMARK    7  A    between atoms: C_22  and  C_23
REMARK    8  A    between atoms: N_25  and  C_26
REMARK    9  A    between atoms: C_26  and  C_27
REMARK   10  A    between atoms: C_27  and  C_28
REMARK                            x       y       z     vdW  Elec       q    Type
REMARK                         _______ _______ _______ _____ _____    ______ ____
ROOT
ATOM      1  C   UNL     1       2.615   6.749  19.586  0.00  0.00    +0.000 A 
ATOM      2  C   UNL     1       1.836   7.887  19.869  0.00  0.00    +0.000 A 
ATOM      3  C   UNL     1       1.652   8.933  18.941  0.00  0.00    +0.000 A 
ATOM      4  N   UNL     1       2.287   8.908  17.747  0.00  0.00    +0.000 NA
ATOM      5  C   UNL     1       3.144   7.848  17.528  0.00  0.00    +0.000 A 
ATOM      6  C   UNL     1       3.362   6.768  18.398  0.00  0.00    +0.000 A 
ENDROOT
BRANCH   3   7
ATOM      7  N   UNL     1       0.621   9.903  19.268  0.00  0.00    +0.000 N 
ATOM      8  N   UNL     1      -0.695   9.549  19.022  0.00  0.00    +0.000 NA
ATOM      9  C   UNL     1      -1.225  10.676  18.547  0.00  0.00    +0.000 A 
ATOM     10  C   UNL     1      -0.368  11.773  18.703  0.00  0.00    +0.000 A 
ATOM     11  C   UNL     1      -0.398  13.132  18.382  0.00  0.00    +0.000 A 
ATOM     12  C   UNL     1       0.374  13.962  19.188  0.00  0.00    +0.000 A 
ATOM     13  C   UNL     1       1.038  13.393  20.287  0.00  0.00    +0.000 A 
ATOM     14  N   UNL     1       1.047  14.121  21.485  0.00  0.00    +0.000 N 
ATOM     15  N   UNL     1       1.364  12.064  20.382  0.00  0.00    +0.000 NA
ATOM     16  C   UNL     1       0.653  11.289  19.521  0.00  0.00    +0.000 A 
ATOM     17  H   UNL     1       1.211  15.119  21.447  0.00  0.00    +0.000 HD
ATOM     18  H   UNL     1       1.454  13.625  22.267  0.00  0.00    +0.000 HD
BRANCH  12  19
ATOM     19  C   UNL     1       0.380  15.373  18.944  0.00  0.00    +0.000 C 
ATOM     20  N   UNL     1       0.389  16.526  18.785  0.00  0.00    +0.000 NA
ENDBRANCH  12  19
ENDBRANCH   3   7
BRANCH   6  21
ATOM     21  C   UNL     1       4.377   5.725  18.012  0.00  0.00    +0.000 C 
ATOM     22  O   UNL     1       5.247   5.386  18.806  0.00  0.00    +0.000 OA
ATOM     23  N   UNL     1       4.269   5.167  16.752  0.00  0.00    +0.000 N 
ATOM     24  H   UNL     1       3.527   5.527  16.154  0.00  0.00    +0.000 HD
BRANCH  23  25
ATOM     25  C   UNL     1       5.154   4.129  16.226  0.00  0.00    +0.000 C 
BRANCH  25  26
ATOM     26  C   UNL     1       6.089   4.563  15.090  0.00  0.00    +0.000 C 
ATOM     27  C   UNL     1       5.877   3.788  13.800  0.00  0.00    +0.000 C 
ATOM     28  F   UNL     1       5.836   5.879  14.813  0.00  0.00    +0.000 F 
ENDBRANCH  25  26
ENDBRANCH  23  25
ENDBRANCH   6  21
BRANCH   1  29
ATOM     29  N   UNL     1       2.728   5.690  20.516  0.00  0.00    +0.000 N 
ATOM     30  H   UNL     1       2.983   6.075  21.429  0.00  0.00    +0.000 HD
BRANCH  29  32
ATOM     31  C   UNL     1       1.384   4.117  19.226  0.00  0.00    +0.000 C 
ATOM     32  C   UNL     1       1.638   4.698  20.616  0.00  0.00    +0.000 C 
ATOM     33  C   UNL     1       2.017   3.592  21.599  0.00  0.00    +0.000 C 
ENDBRANCH  29  32
ENDBRANCH   1  29
TORSDOF 7
ENDMDL
MODEL 6
REMARK VINA RESULT:      -7.4      1.579      2.008
REMARK  Name = 
REMARK  10 active torsions:
REMARK  status: ('A' for Active; 'I' for Inactive)
REMARK    1  A    between atoms: C_1  and  C_2
REMARK    2  A    between atoms: C_2  and  C_3
REMARK    3  A    between atoms: C_2  and  N_4
REMARK    4  A    between atoms: N_4  and  C_5
REMARK    5  A    between atoms: C_7  and  N_8
REMARK    6  A    between atoms: C_13  and  C_14
REMARK    7  A    between atoms: C_22  and  C_23
REMARK    8  A    between atoms: N_25  and  C_26
REMARK    9  A    between atoms: C_26  and  C_27
REMARK   10  A    between atoms: C_27  and  C_28
REMARK                            x       y       z     vdW  Elec       q    Type
REMARK                         _______ _______ _______ _____ _____    ______ ____
ROOT
ATOM      1  C   UNL     1       2.491   6.621  19.834  0.00  0.00    +0.000 A 
ATOM      2  C   UNL     1       1.721   7.766  20.116  0.00  0.00    +0.000 A 
ATOM      3  C   UNL     1       1.593   8.839  19.210  0.00  0.00    +0.000 A 
ATOM      4  N   UNL     1       2.276   8.833  18.042  0.00  0.00    +0.000 NA
ATOM      5  C   UNL     1       3.121   7.763  17.828  0.00  0.00    +0.000 A 
ATOM      6  C   UNL     1       3.284   6.657  18.678  0.00  0.00    +0.000 A 
ENDROOT
BRANCH   3   7
ATOM      7  N   UNL     1       0.568   9.820  19.522  0.00  0.00    +0.000 N 
ATOM      8  N   UNL     1      -0.754   9.444  19.347  0.00  0.00    +0.000 NA
ATOM      9  C   UNL     1      -1.311  10.539  18.831  0.00  0.00    +0.000 A 
ATOM     10  C   UNL     1      -0.458  11.648  18.891  0.00  0.00    +0.000 A 
ATOM     11  C   UNL     1      -0.511  12.987  18.495  0.00  0.00    +0.000 A 
ATOM     12  C   UNL     1       0.284  13.866  19.223  0.00  0.00    +0.000 A 
ATOM     13  C   UNL     1       0.995  13.364  20.326  0.00  0.00    +0.000 A 
ATOM     14  N   UNL     1       1.043  14.159  21.479  0.00  0.00    +0.000 N 
ATOM     15  N   UNL     1       1.335  12.045  20.482  0.00  0.00    +0.000 NA
ATOM     16  C   UNL     1       0.598  11.218  19.695  0.00  0.00    +0.000 A 
ATOM     17  H   UNL     1       1.198  15.154  21.379  0.00  0.00    +0.000 HD
ATOM     18  H   UNL     1       1.484  13.710  22.272  0.00  0.00    +0.000 HD
BRANCH  12  19
ATOM     19  C   UNL     1       0.269  15.261  18.900  0.00  0.00    +0.000 C 
ATOM     20  N   UNL     1       0.281  16.402  18.668  0.00  0.00    +0.000 NA
ENDBRANCH  12  19
ENDBRANCH   3   7
BRANCH   6  21
ATOM     21  C   UNL     1       4.296   5.605  18.304  0.00  0.00    +0.000 C 
ATOM     22  O   UNL     1       4.765   4.866  19.162  0.00  0.00    +0.000 OA
ATOM     23  N   UNL     1       4.645   5.503  16.970  0.00  0.00    +0.000 N 
ATOM     24  H   UNL     1       4.219   6.174  16.333  0.00  0.00    +0.000 HD
BRANCH  23  25
ATOM     25  C   UNL     1       5.590   4.526  16.434  0.00  0.00    +0.000 C 
BRANCH  25  26
ATOM     26  C   UNL     1       7.072   4.920  16.509  0.00  0.00    +0.000 C 
ATOM     27  C   UNL     1       7.294   6.379  16.870  0.00  0.00    +0.000 C 
ATOM     28  F   UNL     1       7.659   4.171  17.492  0.00  0.00    +0.000 F 
ENDBRANCH  25  26
ENDBRANCH  23  25
ENDBRANCH   6  21
BRANCH   1  29
ATOM     29  N   UNL     1       2.547   5.537  20.739  0.00  0.00    +0.000 N 
ATOM     30  H   UNL     1       2.717   5.898  21.681  0.00  0.00    +0.000 HD
BRANCH  29  32
ATOM     31  C   UNL     1       1.271   4.062  19.276  0.00  0.00    +0.000 C 
ATOM     32  C   UNL     1       1.474   4.522  20.718  0.00  0.00    +0.000 C 
ATOM     33  C   UNL     1       1.843   3.341  21.612  0.00  0.00    +0.000 C 
ENDBRANCH  29  32
ENDBRANCH   1  29
TORSDOF 7
ENDMDL
MODEL 7
REMARK VINA RESULT:      -7.4      1.258      1.330
REMARK  Name = 
REMARK  10 active torsions:
REMARK  status: ('A' for Active; 'I' for Inactive)
REMARK    1  A    between atoms: C_1  and  C_2
REMARK    2  A    between atoms: C_2  and  C_3
REMARK    3  A    between atoms: C_2  and  N_4
REMARK    4  A    between atoms: N_4  and  C_5
REMARK    5  A    between atoms: C_7  and  N_8
REMARK    6  A    between atoms: C_13  and  C_14
REMARK    7  A    between atoms: C_22  and  C_23
REMARK    8  A    between atoms: N_25  and  C_26
REMARK    9  A    between atoms: C_26  and  C_27
REMARK   10  A    between atoms: C_27  and  C_28
REMARK                            x       y       z     vdW  Elec       q    Type
REMARK                         _______ _______ _______ _____ _____    ______ ____
ROOT
ATOM      1  C   UNL     1       2.450   6.804  19.372  0.00  0.00    +0.000 A 
ATOM      2  C   UNL     1       1.565   7.861  19.659  0.00  0.00    +0.000 A 
ATOM      3  C   UNL     1       1.340   8.928  18.764  0.00  0.00    +0.000 A 
ATOM      4  N   UNL     1       2.034   9.007  17.606  0.00  0.00    +0.000 NA
ATOM      5  C   UNL     1       2.987   8.031  17.390  0.00  0.00    +0.000 A 
ATOM      6  C   UNL     1       3.251   6.936  18.228  0.00  0.00    +0.000 A 
ENDROOT
BRANCH   3   7
ATOM      7  N   UNL     1       0.217   9.795  19.074  0.00  0.00    +0.000 N 
ATOM      8  N   UNL     1      -0.560  10.241  18.017  0.00  0.00    +0.000 NA
ATOM      9  C   UNL     1      -0.813  11.508  18.345  0.00  0.00    +0.000 A 
ATOM     10  C   UNL     1      -0.429  11.804  19.659  0.00  0.00    +0.000 A 
ATOM     11  C   UNL     1      -0.440  12.930  20.486  0.00  0.00    +0.000 A 
ATOM     12  C   UNL     1      -0.501  12.677  21.853  0.00  0.00    +0.000 A 
ATOM     13  C   UNL     1      -0.631  11.345  22.279  0.00  0.00    +0.000 A 
ATOM     14  N   UNL     1      -1.503  11.090  23.346  0.00  0.00    +0.000 N 
ATOM     15  N   UNL     1      -0.257  10.260  21.528  0.00  0.00    +0.000 NA
ATOM     16  C   UNL     1      -0.122  10.559  20.209  0.00  0.00    +0.000 A 
ATOM     17  H   UNL     1      -1.499  11.719  24.139  0.00  0.00    +0.000 HD
ATOM     18  H   UNL     1      -1.632  10.107  23.549  0.00  0.00    +0.000 HD
BRANCH  12  19
ATOM     19  C   UNL     1      -0.542  13.775  22.770  0.00  0.00    +0.000 C 
ATOM     20  N   UNL     1      -0.613  14.673  23.508  0.00  0.00    +0.000 NA
ENDBRANCH  12  19
ENDBRANCH   3   7
BRANCH   6  21
ATOM     21  C   UNL     1       4.368   5.998  17.855  0.00  0.00    +0.000 C 
ATOM     22  O   UNL     1       4.390   5.472  16.747  0.00  0.00    +0.000 OA
ATOM     23  N   UNL     1       5.359   5.781  18.795  0.00  0.00    +0.000 N 
ATOM     24  H   UNL     1       5.245   6.245  19.695  0.00  0.00    +0.000 HD
BRANCH  23  25
ATOM     25  C   UNL     1       6.523   4.922  18.589  0.00  0.00    +0.000 C 
BRANCH  25  26
ATOM     26  C   UNL     1       7.863   5.649  18.407  0.00  0.00    +0.000 C 
ATOM     27  C   UNL     1       7.714   7.105  17.998  0.00  0.00    +0.000 C 
ATOM     28  F   UNL     1       8.518   5.635  19.609  0.00  0.00    +0.000 F 
ENDBRANCH  25  26
ENDBRANCH  23  25
ENDBRANCH   6  21
BRANCH   1  29
ATOM     29  N   UNL     1       2.606   5.718  20.264  0.00  0.00    +0.000 N 
ATOM     30  H   UNL     1       2.856   6.080  21.188  0.00  0.00    +0.000 HD
BRANCH  29  32
ATOM     31  C   UNL     1       1.444   4.004  18.977  0.00  0.00    +0.000 C 
ATOM     32  C   UNL     1       1.549   4.688  20.339  0.00  0.00    +0.000 C 
ATOM     33  C   UNL     1       1.878   3.670  21.428  0.00  0.00    +0.000 C 
ENDBRANCH  29  32
ENDBRANCH   1  29
TORSDOF 7
ENDMDL
MODEL 8
REMARK VINA RESULT:      -7.4      3.649      9.086
REMARK  Name = 
REMARK  10 active torsions:
REMARK  status: ('A' for Active; 'I' for Inactive)
REMARK    1  A    between atoms: C_1  and  C_2
REMARK    2  A    between atoms: C_2  and  C_3
REMARK    3  A    between atoms: C_2  and  N_4
REMARK    4  A    between atoms: N_4  and  C_5
REMARK    5  A    between atoms: C_7  and  N_8
REMARK    6  A    between atoms: C_13  and  C_14
REMARK    7  A    between atoms: C_22  and  C_23
REMARK    8  A    between atoms: N_25  and  C_26
REMARK    9  A    between atoms: C_26  and  C_27
REMARK   10  A    between atoms: C_27  and  C_28
REMARK                            x       y       z     vdW  Elec       q    Type
REMARK                         _______ _______ _______ _____ _____    ______ ____
ROOT
ATOM      1  C   UNL     1       0.120   9.838  18.326  0.00  0.00    +0.000 A 
ATOM      2  C   UNL     1       0.910   8.782  17.833  0.00  0.00    +0.000 A 
ATOM      3  C   UNL     1       1.734   7.995  18.664  0.00  0.00    +0.000 A 
ATOM      4  N   UNL     1       1.847   8.280  19.981  0.00  0.00    +0.000 NA
ATOM      5  C   UNL     1       1.164   9.392  20.432  0.00  0.00    +0.000 A 
ATOM      6  C   UNL     1       0.316  10.207  19.666  0.00  0.00    +0.000 A 
ENDROOT
BRANCH   3   7
ATOM      7  N   UNL     1       2.280   6.789  18.066  0.00  0.00    +0.000 N 
ATOM      8  N   UNL     1       1.496   5.647  18.096  0.00  0.00    +0.000 NA
ATOM      9  C   UNL     1       2.379   4.685  18.361  0.00  0.00    +0.000 A 
ATOM     10  C   UNL     1       3.701   5.136  18.267  0.00  0.00    +0.000 A 
ATOM     11  C   UNL     1       4.972   4.587  18.453  0.00  0.00    +0.000 A 
ATOM     12  C   UNL     1       6.001   5.183  17.732  0.00  0.00    +0.000 A 
ATOM     13  C   UNL     1       5.675   6.209  16.830  0.00  0.00    +0.000 A 
ATOM     14  N   UNL     1       6.334   6.217  15.594  0.00  0.00    +0.000 N 
ATOM     15  N   UNL     1       4.539   6.974  16.917  0.00  0.00    +0.000 NA
ATOM     16  C   UNL     1       3.585   6.405  17.699  0.00  0.00    +0.000 A 
ATOM     17  H   UNL     1       7.328   6.026  15.570  0.00  0.00    +0.000 HD
ATOM     18  H   UNL     1       5.994   6.918  14.947  0.00  0.00    +0.000 HD
BRANCH  12  19
ATOM     19  C   UNL     1       7.331   4.665  17.843  0.00  0.00    +0.000 C 
ATOM     20  N   UNL     1       8.402   4.213  17.913  0.00  0.00    +0.000 NA
ENDBRANCH  12  19
ENDBRANCH   3   7
BRANCH   6  21
ATOM     21  C   UNL     1      -0.307  11.413  20.319  0.00  0.00    +0.000 C 
ATOM     22  O   UNL     1      -0.888  12.252  19.640  0.00  0.00    +0.000 OA
ATOM     23  N   UNL     1      -0.211  11.513  21.694  0.00  0.00    +0.000 N 
ATOM     24  H   UNL     1       0.310  10.778  22.172  0.00  0.00    +0.000 HD
BRANCH  23  25
ATOM     25  C   UNL     1      -0.777  12.602  22.487  0.00  0.00    +0.000 C 
BRANCH  25  26
ATOM     26  C   UNL     1      -2.032  12.253  23.300  0.00  0.00    +0.000 C 
ATOM     27  C   UNL     1      -3.330  12.589  22.586  0.00  0.00    +0.000 C 
ATOM     28  F   UNL     1      -2.033  10.901  23.517  0.00  0.00    +0.000 F 
ENDBRANCH  25  26
ENDBRANCH  23  25
ENDBRANCH   6  21
BRANCH   1  29
ATOM     29  N   UNL     1      -0.742  10.566  17.475  0.00  0.00    +0.000 N 
ATOM     30  H   UNL     1      -0.183  11.037  16.759  0.00  0.00    +0.000 HD
BRANCH  29  32
ATOM     31  C   UNL     1      -2.950   9.686  18.017  0.00  0.00    +0.000 C 
ATOM     32  C   UNL     1      -1.927   9.895  16.903  0.00  0.00    +0.000 C 
ATOM     33  C   UNL     1      -2.522  10.739  15.778  0.00  0.00    +0.000 C 
ENDBRANCH  29  32
ENDBRANCH   1  29
TORSDOF 7
ENDMDL
MODEL 9
REMARK VINA RESULT:      -7.3      2.429      3.166
REMARK  Name = 
REMARK  10 active torsions:
REMARK  status: ('A' for Active; 'I' for Inactive)
REMARK    1  A    between atoms: C_1  and  C_2
REMARK    2  A    between atoms: C_2  and  C_3
REMARK    3  A    between atoms: C_2  and  N_4
REMARK    4  A    between atoms: N_4  and  C_5
REMARK    5  A    between atoms: C_7  and  N_8
REMARK    6  A    between atoms: C_13  and  C_14
REMARK    7  A    between atoms: C_22  and  C_23
REMARK    8  A    between atoms: N_25  and  C_26
REMARK    9  A    between atoms: C_26  and  C_27
REMARK   10  A    between atoms: C_27  and  C_28
REMARK                            x       y       z     vdW  Elec       q    Type
REMARK                         _______ _______ _______ _____ _____    ______ ____
ROOT
ATOM      1  C   UNL     1       2.559   5.065  19.007  0.00  0.00    +0.000 A 
ATOM      2  C   UNL     1       2.144   6.206  19.721  0.00  0.00    +0.000 A 
ATOM      3  C   UNL     1       2.392   7.519  19.267  0.00  0.00    +0.000 A 
ATOM      4  N   UNL     1       3.110   7.729  18.141  0.00  0.00    +0.000 NA
ATOM      5  C   UNL     1       3.615   6.607  17.514  0.00  0.00    +0.000 A 
ATOM      6  C   UNL     1       3.395   5.275  17.901  0.00  0.00    +0.000 A 
ENDROOT
BRANCH   3   7
ATOM      7  N   UNL     1       1.684   8.579  19.963  0.00  0.00    +0.000 N 
ATOM      8  N   UNL     1       1.563   8.475  21.339  0.00  0.00    +0.000 NA
ATOM      9  C   UNL     1       0.318   8.897  21.563  0.00  0.00    +0.000 A 
ATOM     10  C   UNL     1      -0.259   9.476  20.426  0.00  0.00    +0.000 A 
ATOM     11  C   UNL     1      -1.493  10.043  20.096  0.00  0.00    +0.000 A 
ATOM     12  C   UNL     1      -1.473  10.985  19.073  0.00  0.00    +0.000 A 
ATOM     13  C   UNL     1      -0.231  11.346  18.525  0.00  0.00    +0.000 A 
ATOM     14  N   UNL     1      -0.022  12.701  18.236  0.00  0.00    +0.000 N 
ATOM     15  N   UNL     1       0.890  10.556  18.577  0.00  0.00    +0.000 NA
ATOM     16  C   UNL     1       0.804   9.591  19.530  0.00  0.00    +0.000 A 
ATOM     17  H   UNL     1      -0.769  13.228  17.803  0.00  0.00    +0.000 HD
ATOM     18  H   UNL     1       0.919  12.920  17.934  0.00  0.00    +0.000 HD
BRANCH  12  19
ATOM     19  C   UNL     1      -2.690  11.633  18.689  0.00  0.00    +0.000 C 
ATOM     20  N   UNL     1      -3.696  12.149  18.411  0.00  0.00    +0.000 NA
ENDBRANCH  12  19
ENDBRANCH   3   7
BRANCH   6  21
ATOM     21  C   UNL     1       4.073   4.179  17.122  0.00  0.00    +0.000 C 
ATOM     22  O   UNL     1       3.601   3.047  17.110  0.00  0.00    +0.000 OA
ATOM     23  N   UNL     1       5.217   4.510  16.420  0.00  0.00    +0.000 N 
ATOM     24  H   UNL     1       5.545   5.470  16.507  0.00  0.00    +0.000 HD
BRANCH  23  25
ATOM     25  C   UNL     1       5.983   3.576  15.597  0.00  0.00    +0.000 C 
BRANCH  25  26
ATOM     26  C   UNL     1       6.568   4.155  14.301  0.00  0.00    +0.000 C 
ATOM     27  C   UNL     1       5.910   3.611  13.043  0.00  0.00    +0.000 C 
ATOM     28  F   UNL     1       6.359   5.507  14.309  0.00  0.00    +0.000 F 
ENDBRANCH  25  26
ENDBRANCH  23  25
ENDBRANCH   6  21
BRANCH   1  29
ATOM     29  N   UNL     1       2.240   3.764  19.459  0.00  0.00    +0.000 N 
ATOM     30  H   UNL     1       2.432   3.095  18.708  0.00  0.00    +0.000 HD
BRANCH  29  32
ATOM     31  C   UNL     1       1.622   2.657  21.541  0.00  0.00    +0.000 C 
ATOM     32  C   UNL     1       2.765   3.304  20.761  0.00  0.00    +0.000 C 
ATOM     33  C   UNL     1       3.903   2.307  20.551  0.00  0.00    +0.000 C 
ENDBRANCH  29  32
ENDBRANCH   1  29
TORSDOF 7
ENDMDL
