MODEL 1
REMARK VINA RESULT:      -8.9      0.000      0.000
REMARK  Name = 
REMARK  6 active torsions:
REMARK  status: ('A' for Active; 'I' for Inactive)
REMARK    1  A    between atoms: C_2  and  C_3
REMARK    2  A    between atoms: C_3  and  C_4
REMARK    3  A    between atoms: C_4  and  C_5
REMARK    4  A    between atoms: C_4  and  C_12
REMARK    5  A    between atoms: N_22  and  C_23
REMARK    6  A    between atoms: C_23  and  C_24
REMARK                            x       y       z     vdW  Elec       q    Type
REMARK                         _______ _______ _______ _____ _____    ______ ____
ROOT
ATOM      1  C   UNL     1       2.924   5.751  18.615  0.00  0.00    +0.000 C 
ENDROOT
BRANCH   1   2
ATOM      2  C   UNL     1       4.403   5.438  18.537  0.00  0.00    +0.000 A 
ATOM      3  C   UNL     1       5.346   5.457  19.554  0.00  0.00    +0.000 A 
ATOM      4  N   UNL     1       6.581   5.206  19.021  0.00  0.00    +0.000 N 
ATOM      5  C   UNL     1       6.476   4.944  17.677  0.00  0.00    +0.000 A 
ATOM      6  C   UNL     1       7.471   4.615  16.750  0.00  0.00    +0.000 A 
ATOM      7  C   UNL     1       7.074   4.358  15.434  0.00  0.00    +0.000 A 
ATOM      8  C   UNL     1       5.732   4.439  15.075  0.00  0.00    +0.000 A 
ATOM      9 CL   UNL     1       5.272   4.082  13.452  0.00  0.00    +0.000 Cl
ATOM     10  C   UNL     1       4.750   4.794  16.006  0.00  0.00    +0.000 A 
ATOM     11  C   UNL     1       5.124   5.055  17.344  0.00  0.00    +0.000 A 
ATOM     12  H   UNL     1       7.449   5.192  19.539  0.00  0.00    +0.000 HD
ENDBRANCH   1   2
BRANCH   1  13
ATOM     13  C   UNL     1       2.201   4.517  19.123  0.00  0.00    +0.000 A 
ATOM     14  C   UNL     1       1.914   4.294  20.478  0.00  0.00    +0.000 A 
ATOM     15  C   UNL     1       1.130   3.208  20.880  0.00  0.00    +0.000 A 
ATOM     16  C   UNL     1       0.639   2.309  19.938  0.00  0.00    +0.000 A 
ATOM     17  C   UNL     1       0.953   2.484  18.594  0.00  0.00    +0.000 A 
ATOM     18  C   UNL     1       1.726   3.574  18.200  0.00  0.00    +0.000 A 
ATOM     19  F   UNL     1       1.982   3.729  16.892  0.00  0.00    +0.000 F 
ENDBRANCH   1  13
BRANCH   1  20
ATOM     20  C   UNL     1       2.533   7.088  19.268  0.00  0.00    +0.000 C 
BRANCH  20  22
ATOM     21  O   UNL     1       2.677   8.371  17.237  0.00  0.00    +0.000 OA
ATOM     22  C   UNL     1       2.240   8.282  18.379  0.00  0.00    +0.000 C 
ATOM     23  N   UNL     1       1.506   9.275  18.970  0.00  0.00    +0.000 N 
ATOM     24  H   UNL     1       1.064   9.091  19.861  0.00  0.00    +0.000 HD
BRANCH  23  25
ATOM     25  C   UNL     1       1.132  10.486  18.276  0.00  0.00    +0.000 C 
BRANCH  25  26
ATOM     26  C   UNL     1      -0.363  10.649  18.311  0.00  0.00    +0.000 A 
ATOM     27  C   UNL     1      -1.173   9.809  17.540  0.00  0.00    +0.000 A 
ATOM     28  C   UNL     1      -2.543   9.997  17.560  0.00  0.00    +0.000 A 
ATOM     29  N   UNL     1      -3.155  10.947  18.297  0.00  0.00    +0.000 NA
ATOM     30  C   UNL     1      -2.360  11.737  19.050  0.00  0.00    +0.000 A 
ATOM     31  C   UNL     1      -0.977  11.631  19.090  0.00  0.00    +0.000 A 
ENDBRANCH  25  26
ENDBRANCH  23  25
ENDBRANCH  20  22
ENDBRANCH   1  20
TORSDOF 6
ENDMDL
MODEL 2
REMARK VINA RESULT:      -8.9      3.275      7.576
REMARK  Name = 
REMARK  6 active torsions:
REMARK  status: ('A' for Active; 'I' for Inactive)
REMARK    1  A    between atoms: C_2  and  C_3
REMARK    2  A    between atoms: C_3  and  C_4
REMARK    3  A    between atoms: C_4  and  C_5
REMARK    4  A    between atoms: C_4  and  C_12
REMARK    5  A    between atoms: N_22  and  C_23
REMARK    6  A    between atoms: C_23  and  C_24
REMARK                            x       y       z     vdW  Elec       q    Type
REMARK                         _______ _______ _______ _____ _____    ______ ____
ROOT
ATOM      1  C   UNL     1       3.284   6.109  19.549  0.00  0.00    +0.000 C 
ENDROOT
BRANCH   1   2
ATOM      2  C   UNL     1       2.588   7.334  18.995  0.00  0.00    +0.000 A 
ATOM      3  C   UNL     1       2.646   7.854  17.711  0.00  0.00    +0.000 A 
ATOM      4  N   UNL     1       1.944   9.029  17.674  0.00  0.00    +0.000 N 
ATOM      5  C   UNL     1       1.354   9.269  18.891  0.00  0.00    +0.000 A 
ATOM      6  C   UNL     1       0.531  10.329  19.292  0.00  0.00    +0.000 A 
ATOM      7  C   UNL     1       0.029  10.303  20.597  0.00  0.00    +0.000 A 
ATOM      8  C   UNL     1       0.351   9.257  21.455  0.00  0.00    +0.000 A 
ATOM      9 CL   UNL     1      -0.312   9.238  23.046  0.00  0.00    +0.000 Cl
ATOM     10  C   UNL     1       1.196   8.217  21.050  0.00  0.00    +0.000 A 
ATOM     11  C   UNL     1       1.714   8.217  19.735  0.00  0.00    +0.000 A 
ATOM     12  H   UNL     1       1.850   9.629  16.866  0.00  0.00    +0.000 HD
ENDBRANCH   1   2
BRANCH   1  13
ATOM     13  C   UNL     1       2.331   4.932  19.445  0.00  0.00    +0.000 A 
ATOM     14  C   UNL     1       1.826   4.454  18.226  0.00  0.00    +0.000 A 
ATOM     15  C   UNL     1       1.060   3.286  18.172  0.00  0.00    +0.000 A 
ATOM     16  C   UNL     1       0.760   2.587  19.337  0.00  0.00    +0.000 A 
ATOM     17  C   UNL     1       1.209   3.071  20.562  0.00  0.00    +0.000 A 
ATOM     18  C   UNL     1       1.983   4.229  20.607  0.00  0.00    +0.000 A 
ATOM     19  F   UNL     1       2.426   4.649  21.802  0.00  0.00    +0.000 F 
ENDBRANCH   1  13
BRANCH   1  20
ATOM     20  C   UNL     1       4.728   5.861  19.081  0.00  0.00    +0.000 C 
BRANCH  20  22
ATOM     21  O   UNL     1       5.415   3.560  18.934  0.00  0.00    +0.000 OA
ATOM     22  C   UNL     1       5.053   4.574  18.347  0.00  0.00    +0.000 C 
ATOM     23  N   UNL     1       4.972   4.651  16.983  0.00  0.00    +0.000 N 
ATOM     24  H   UNL     1       4.543   5.467  16.565  0.00  0.00    +0.000 HD
BRANCH  23  25
ATOM     25  C   UNL     1       5.247   3.525  16.121  0.00  0.00    +0.000 C 
BRANCH  25  26
ATOM     26  C   UNL     1       6.000   3.991  14.905  0.00  0.00    +0.000 A 
ATOM     27  C   UNL     1       5.692   3.459  13.648  0.00  0.00    +0.000 A 
ATOM     28  C   UNL     1       6.420   3.876  12.549  0.00  0.00    +0.000 A 
ATOM     29  N   UNL     1       7.414   4.785  12.613  0.00  0.00    +0.000 NA
ATOM     30  C   UNL     1       7.686   5.302  13.830  0.00  0.00    +0.000 A 
ATOM     31  C   UNL     1       7.019   4.942  14.992  0.00  0.00    +0.000 A 
ENDBRANCH  25  26
ENDBRANCH  23  25
ENDBRANCH  20  22
ENDBRANCH   1  20
TORSDOF 6
ENDMDL
MODEL 3
REMARK VINA RESULT:      -8.8      2.023      2.405
REMARK  Name = 
REMARK  6 active torsions:
REMARK  status: ('A' for Active; 'I' for Inactive)
REMARK    1  A    between atoms: C_2  and  C_3
REMARK    2  A    between atoms: C_3  and  C_4
REMARK    3  A    between atoms: C_4  and  C_5
REMARK    4  A    between atoms: C_4  and  C_12
REMARK    5  A    between atoms: N_22  and  C_23
REMARK    6  A    between atoms: C_23  and  C_24
REMARK                            x       y       z     vdW  Elec       q    Type
REMARK                         _______ _______ _______ _____ _____    ______ ____
ROOT
ATOM      1  C   UNL     1       3.610   5.757  17.790  0.00  0.00    +0.000 C 
ENDROOT
BRANCH   1   2
ATOM      2  C   UNL     1       5.037   5.682  17.290  0.00  0.00    +0.000 A 
ATOM      3  C   UNL     1       6.200   6.075  17.933  0.00  0.00    +0.000 A 
ATOM      4  N   UNL     1       7.257   5.922  17.077  0.00  0.00    +0.000 N 
ATOM      5  C   UNL     1       6.834   5.363  15.895  0.00  0.00    +0.000 A 
ATOM      6  C   UNL     1       7.572   5.009  14.759  0.00  0.00    +0.000 A 
ATOM      7  C   UNL     1       6.885   4.413  13.698  0.00  0.00    +0.000 A 
ATOM      8  C   UNL     1       5.514   4.192  13.782  0.00  0.00    +0.000 A 
ATOM      9 CL   UNL     1       4.703   3.423  12.470  0.00  0.00    +0.000 Cl
ATOM     10  C   UNL     1       4.783   4.574  14.913  0.00  0.00    +0.000 A 
ATOM     11  C   UNL     1       5.455   5.176  16.002  0.00  0.00    +0.000 A 
ATOM     12  H   UNL     1       8.216   6.163  17.283  0.00  0.00    +0.000 HD
ENDBRANCH   1   2
BRANCH   1  13
ATOM     13  C   UNL     1       3.142   4.349  18.110  0.00  0.00    +0.000 A 
ATOM     14  C   UNL     1       3.963   3.381  18.708  0.00  0.00    +0.000 A 
ATOM     15  C   UNL     1       3.448   2.143  19.104  0.00  0.00    +0.000 A 
ATOM     16  C   UNL     1       2.107   1.839  18.888  0.00  0.00    +0.000 A 
ATOM     17  C   UNL     1       1.287   2.766  18.252  0.00  0.00    +0.000 A 
ATOM     18  C   UNL     1       1.805   4.001  17.871  0.00  0.00    +0.000 A 
ATOM     19  F   UNL     1       0.977   4.883  17.290  0.00  0.00    +0.000 F 
ENDBRANCH   1  13
BRANCH   1  20
ATOM     20  C   UNL     1       3.301   6.835  18.844  0.00  0.00    +0.000 C 
BRANCH  20  22
ATOM     21  O   UNL     1       2.348   8.447  17.332  0.00  0.00    +0.000 OA
ATOM     22  C   UNL     1       2.391   7.990  18.470  0.00  0.00    +0.000 C 
ATOM     23  N   UNL     1       1.674   8.520  19.508  0.00  0.00    +0.000 N 
ATOM     24  H   UNL     1       1.649   8.022  20.389  0.00  0.00    +0.000 HD
BRANCH  23  25
ATOM     25  C   UNL     1       0.758   9.624  19.339  0.00  0.00    +0.000 C 
BRANCH  25  26
ATOM     26  C   UNL     1       0.280  10.096  20.686  0.00  0.00    +0.000 A 
ATOM     27  C   UNL     1       0.200   9.193  21.752  0.00  0.00    +0.000 A 
ATOM     28  C   UNL     1      -0.273   9.640  22.972  0.00  0.00    +0.000 A 
ATOM     29  N   UNL     1      -0.656  10.912  23.204  0.00  0.00    +0.000 NA
ATOM     30  C   UNL     1      -0.554  11.774  22.170  0.00  0.00    +0.000 A 
ATOM     31  C   UNL     1      -0.100  11.421  20.908  0.00  0.00    +0.000 A 
ENDBRANCH  25  26
ENDBRANCH  23  25
ENDBRANCH  20  22
ENDBRANCH   1  20
TORSDOF 6
ENDMDL
MODEL 4
REMARK VINA RESULT:      -8.7      0.936      1.207
REMARK  Name = 
REMARK  6 active torsions:
REMARK  status: ('A' for Active; 'I' for Inactive)
REMARK    1  A    between atoms: C_2  and  C_3
REMARK    2  A    between atoms: C_3  and  C_4
REMARK    3  A    between atoms: C_4  and  C_5
REMARK    4  A    between atoms: C_4  and  C_12
REMARK    5  A    between atoms: N_22  and  C_23
REMARK    6  A    between atoms: C_23  and  C_24
REMARK                            x       y       z     vdW  Elec       q    Type
REMARK                         _______ _______ _______ _____ _____    ______ ____
ROOT
ATOM      1  C   UNL     1       3.066   5.826  18.604  0.00  0.00    +0.000 C 
ENDROOT
BRANCH   1   2
ATOM      2  C   UNL     1       4.527   5.448  18.487  0.00  0.00    +0.000 A 
ATOM      3  C   UNL     1       5.495   5.419  19.480  0.00  0.00    +0.000 A 
ATOM      4  N   UNL     1       6.704   5.117  18.915  0.00  0.00    +0.000 N 
ATOM      5  C   UNL     1       6.554   4.869  17.572  0.00  0.00    +0.000 A 
ATOM      6  C   UNL     1       7.510   4.502  16.618  0.00  0.00    +0.000 A 
ATOM      7  C   UNL     1       7.069   4.271  15.312  0.00  0.00    +0.000 A 
ATOM      8  C   UNL     1       5.724   4.413  14.987  0.00  0.00    +0.000 A 
ATOM      9 CL   UNL     1       5.207   4.088  13.375  0.00  0.00    +0.000 Cl
ATOM     10  C   UNL     1       4.781   4.806  15.945  0.00  0.00    +0.000 A 
ATOM     11  C   UNL     1       5.201   5.042  17.274  0.00  0.00    +0.000 A 
ATOM     12  H   UNL     1       7.584   5.062  19.410  0.00  0.00    +0.000 HD
ENDBRANCH   1   2
BRANCH   1  13
ATOM     13  C   UNL     1       2.308   4.634  19.161  0.00  0.00    +0.000 A 
ATOM     14  C   UNL     1       2.123   4.411  20.534  0.00  0.00    +0.000 A 
ATOM     15  C   UNL     1       1.306   3.373  20.992  0.00  0.00    +0.000 A 
ATOM     16  C   UNL     1       0.677   2.522  20.087  0.00  0.00    +0.000 A 
ATOM     17  C   UNL     1       0.887   2.696  18.723  0.00  0.00    +0.000 A 
ATOM     18  C   UNL     1       1.694   3.740  18.274  0.00  0.00    +0.000 A 
ATOM     19  F   UNL     1       1.847   3.897  16.950  0.00  0.00    +0.000 F 
ENDBRANCH   1  13
BRANCH   1  20
ATOM     20  C   UNL     1       2.752   7.192  19.240  0.00  0.00    +0.000 C 
BRANCH  20  22
ATOM     21  O   UNL     1       2.499   8.504  17.238  0.00  0.00    +0.000 OA
ATOM     22  C   UNL     1       2.123   8.275  18.383  0.00  0.00    +0.000 C 
ATOM     23  N   UNL     1       1.153   9.012  19.005  0.00  0.00    +0.000 N 
ATOM     24  H   UNL     1       0.795   8.695  19.897  0.00  0.00    +0.000 HD
BRANCH  23  25
ATOM     25  C   UNL     1       0.446  10.085  18.345  0.00  0.00    +0.000 C 
BRANCH  25  26
ATOM     26  C   UNL     1      -0.409  10.817  19.343  0.00  0.00    +0.000 A 
ATOM     27  C   UNL     1      -1.454  11.634  18.898  0.00  0.00    +0.000 A 
ATOM     28  C   UNL     1      -2.207  12.324  19.831  0.00  0.00    +0.000 A 
ATOM     29  N   UNL     1      -2.000  12.248  21.161  0.00  0.00    +0.000 NA
ATOM     30  C   UNL     1      -1.001  11.440  21.575  0.00  0.00    +0.000 A 
ATOM     31  C   UNL     1      -0.186  10.715  20.717  0.00  0.00    +0.000 A 
ENDBRANCH  25  26
ENDBRANCH  23  25
ENDBRANCH  20  22
ENDBRANCH   1  20
TORSDOF 6
ENDMDL
MODEL 5
REMARK VINA RESULT:      -8.7      1.741      2.572
REMARK  Name = 
REMARK  6 active torsions:
REMARK  status: ('A' for Active; 'I' for Inactive)
REMARK    1  A    between atoms: C_2  and  C_3
REMARK    2  A    between atoms: C_3  and  C_4
REMARK    3  A    between atoms: C_4  and  C_5
REMARK    4  A    between atoms: C_4  and  C_12
REMARK    5  A    between atoms: N_22  and  C_23
REMARK    6  A    between atoms: C_23  and  C_24
REMARK                            x       y       z     vdW  Elec       q    Type
REMARK                         _______ _______ _______ _____ _____    ______ ____
ROOT
ATOM      1  C   UNL     1       2.902   5.962  18.550  0.00  0.00    +0.000 C 
ENDROOT
BRANCH   1   2
ATOM      2  C   UNL     1       4.358   5.546  18.530  0.00  0.00    +0.000 A 
ATOM      3  C   UNL     1       5.261   5.510  19.581  0.00  0.00    +0.000 A 
ATOM      4  N   UNL     1       6.496   5.169  19.097  0.00  0.00    +0.000 N 
ATOM      5  C   UNL     1       6.422   4.903  17.752  0.00  0.00    +0.000 A 
ATOM      6  C   UNL     1       7.426   4.496  16.865  0.00  0.00    +0.000 A 
ATOM      7  C   UNL     1       7.060   4.253  15.538  0.00  0.00    +0.000 A 
ATOM      8  C   UNL     1       5.742   4.423  15.128  0.00  0.00    +0.000 A 
ATOM      9 CL   UNL     1       5.318   4.083  13.492  0.00  0.00    +0.000 Cl
ATOM     10  C   UNL     1       4.752   4.855  16.019  0.00  0.00    +0.000 A 
ATOM     11  C   UNL     1       5.095   5.103  17.368  0.00  0.00    +0.000 A 
ATOM     12  H   UNL     1       7.341   5.101  19.647  0.00  0.00    +0.000 HD
ENDBRANCH   1   2
BRANCH   1  13
ATOM     13  C   UNL     1       2.067   4.753  18.929  0.00  0.00    +0.000 A 
ATOM     14  C   UNL     1       1.620   3.802  17.999  0.00  0.00    +0.000 A 
ATOM     15  C   UNL     1       0.968   2.637  18.415  0.00  0.00    +0.000 A 
ATOM     16  C   UNL     1       0.727   2.411  19.767  0.00  0.00    +0.000 A 
ATOM     17  C   UNL     1       1.118   3.364  20.702  0.00  0.00    +0.000 A 
ATOM     18  C   UNL     1       1.777   4.517  20.280  0.00  0.00    +0.000 A 
ATOM     19  F   UNL     1       2.169   5.400  21.212  0.00  0.00    +0.000 F 
ENDBRANCH   1  13
BRANCH   1  20
ATOM     20  C   UNL     1       2.567   7.277  19.275  0.00  0.00    +0.000 C 
BRANCH  20  22
ATOM     21  O   UNL     1       2.380   8.639  17.299  0.00  0.00    +0.000 OA
ATOM     22  C   UNL     1       2.050   8.451  18.466  0.00  0.00    +0.000 C 
ATOM     23  N   UNL     1       1.240   9.314  19.153  0.00  0.00    +0.000 N 
ATOM     24  H   UNL     1       0.898   9.040  20.066  0.00  0.00    +0.000 HD
BRANCH  23  25
ATOM     25  C   UNL     1       0.657  10.488  18.545  0.00  0.00    +0.000 C 
BRANCH  25  26
ATOM     26  C   UNL     1       1.414  11.713  18.980  0.00  0.00    +0.000 A 
ATOM     27  C   UNL     1       2.277  12.353  18.084  0.00  0.00    +0.000 A 
ATOM     28  C   UNL     1       2.988  13.458  18.515  0.00  0.00    +0.000 A 
ATOM     29  N   UNL     1       2.892  13.970  19.759  0.00  0.00    +0.000 NA
ATOM     30  C   UNL     1       2.041  13.352  20.605  0.00  0.00    +0.000 A 
ATOM     31  C   UNL     1       1.291  12.234  20.270  0.00  0.00    +0.000 A 
ENDBRANCH  25  26
ENDBRANCH  23  25
ENDBRANCH  20  22
ENDBRANCH   1  20
TORSDOF 6
ENDMDL
MODEL 6
REMARK VINA RESULT:      -8.7      1.308      1.831
REMARK  Name = 
REMARK  6 active torsions:
REMARK  status: ('A' for Active; 'I' for Inactive)
REMARK    1  A    between atoms: C_2  and  C_3
REMARK    2  A    between atoms: C_3  and  C_4
REMARK    3  A    between atoms: C_4  and  C_5
REMARK    4  A    between atoms: C_4  and  C_12
REMARK    5  A    between atoms: N_22  and  C_23
REMARK    6  A    between atoms: C_23  and  C_24
REMARK                            x       y       z     vdW  Elec       q    Type
REMARK                         _______ _______ _______ _____ _____    ______ ____
ROOT
ATOM      1  C   UNL     1       2.899   5.919  18.522  0.00  0.00    +0.000 C 
ENDROOT
BRANCH   1   2
ATOM      2  C   UNL     1       4.356   5.507  18.494  0.00  0.00    +0.000 A 
ATOM      3  C   UNL     1       5.263   5.466  19.542  0.00  0.00    +0.000 A 
ATOM      4  N   UNL     1       6.496   5.131  19.051  0.00  0.00    +0.000 N 
ATOM      5  C   UNL     1       6.418   4.873  17.704  0.00  0.00    +0.000 A 
ATOM      6  C   UNL     1       7.419   4.473  16.811  0.00  0.00    +0.000 A 
ATOM      7  C   UNL     1       7.049   4.239  15.483  0.00  0.00    +0.000 A 
ATOM      8  C   UNL     1       5.728   4.408  15.080  0.00  0.00    +0.000 A 
ATOM      9 CL   UNL     1       5.299   4.077  13.443  0.00  0.00    +0.000 Cl
ATOM     10  C   UNL     1       4.742   4.832  15.977  0.00  0.00    +0.000 A 
ATOM     11  C   UNL     1       5.089   5.073  17.326  0.00  0.00    +0.000 A 
ATOM     12  H   UNL     1       7.343   5.061  19.597  0.00  0.00    +0.000 HD
ENDBRANCH   1   2
BRANCH   1  13
ATOM     13  C   UNL     1       2.069   4.711  18.918  0.00  0.00    +0.000 A 
ATOM     14  C   UNL     1       1.632   3.742  18.003  0.00  0.00    +0.000 A 
ATOM     15  C   UNL     1       0.986   2.580  18.437  0.00  0.00    +0.000 A 
ATOM     16  C   UNL     1       0.741   2.376  19.792  0.00  0.00    +0.000 A 
ATOM     17  C   UNL     1       1.123   3.347  20.712  0.00  0.00    +0.000 A 
ATOM     18  C   UNL     1       1.776   4.497  20.273  0.00  0.00    +0.000 A 
ATOM     19  F   UNL     1       2.159   5.398  21.191  0.00  0.00    +0.000 F 
ENDBRANCH   1  13
BRANCH   1  20
ATOM     20  C   UNL     1       2.567   7.240  19.238  0.00  0.00    +0.000 C 
BRANCH  20  22
ATOM     21  O   UNL     1       2.406   8.655  17.298  0.00  0.00    +0.000 OA
ATOM     22  C   UNL     1       2.007   8.394  18.429  0.00  0.00    +0.000 C 
ATOM     23  N   UNL     1       1.074   9.156  19.077  0.00  0.00    +0.000 N 
ATOM     24  H   UNL     1       0.689   8.818  19.951  0.00  0.00    +0.000 HD
BRANCH  23  25
ATOM     25  C   UNL     1       0.433  10.296  18.463  0.00  0.00    +0.000 C 
BRANCH  25  26
ATOM     26  C   UNL     1      -0.427  11.000  19.476  0.00  0.00    +0.000 A 
ATOM     27  C   UNL     1      -0.148  10.867  20.841  0.00  0.00    +0.000 A 
ATOM     28  C   UNL     1      -0.971  11.495  21.757  0.00  0.00    +0.000 A 
ATOM     29  N   UNL     1      -2.034  12.249  21.410  0.00  0.00    +0.000 NA
ATOM     30  C   UNL     1      -2.279  12.383  20.090  0.00  0.00    +0.000 A 
ATOM     31  C   UNL     1      -1.517  11.786  19.096  0.00  0.00    +0.000 A 
ENDBRANCH  25  26
ENDBRANCH  23  25
ENDBRANCH  20  22
ENDBRANCH   1  20
TORSDOF 6
ENDMDL
MODEL 7
REMARK VINA RESULT:      -8.7      1.443      2.187
REMARK  Name = 
REMARK  6 active torsions:
REMARK  status: ('A' for Active; 'I' for Inactive)
REMARK    1  A    between atoms: C_2  and  C_3
REMARK    2  A    between atoms: C_3  and  C_4
REMARK    3  A    between atoms: C_4  and  C_5
REMARK    4  A    between atoms: C_4  and  C_12
REMARK    5  A    between atoms: N_22  and  C_23
REMARK    6  A    between atoms: C_23  and  C_24
REMARK                            x       y       z     vdW  Elec       q    Type
REMARK                         _______ _______ _______ _____ _____    ______ ____
ROOT
ATOM      1  C   UNL     1       3.018   5.864  18.637  0.00  0.00    +0.000 C 
ENDROOT
BRANCH   1   2
ATOM      2  C   UNL     1       4.485   5.502  18.541  0.00  0.00    +0.000 A 
ATOM      3  C   UNL     1       5.442   5.498  19.544  0.00  0.00    +0.000 A 
ATOM      4  N   UNL     1       6.661   5.202  18.997  0.00  0.00    +0.000 N 
ATOM      5  C   UNL     1       6.528   4.934  17.656  0.00  0.00    +0.000 A 
ATOM      6  C   UNL     1       7.499   4.565  16.718  0.00  0.00    +0.000 A 
ATOM      7  C   UNL     1       7.075   4.311  15.410  0.00  0.00    +0.000 A 
ATOM      8  C   UNL     1       5.732   4.433  15.069  0.00  0.00    +0.000 A 
ATOM      9 CL   UNL     1       5.237   4.080  13.456  0.00  0.00    +0.000 Cl
ATOM     10  C   UNL     1       4.775   4.828  16.011  0.00  0.00    +0.000 A 
ATOM     11  C   UNL     1       5.176   5.087  17.341  0.00  0.00    +0.000 A 
ATOM     12  H   UNL     1       7.535   5.164  19.503  0.00  0.00    +0.000 HD
ENDBRANCH   1   2
BRANCH   1  13
ATOM     13  C   UNL     1       2.258   4.648  19.135  0.00  0.00    +0.000 A 
ATOM     14  C   UNL     1       1.991   4.407  20.491  0.00  0.00    +0.000 A 
ATOM     15  C   UNL     1       1.173   3.345  20.887  0.00  0.00    +0.000 A 
ATOM     16  C   UNL     1       0.628   2.486  19.937  0.00  0.00    +0.000 A 
ATOM     17  C   UNL     1       0.920   2.677  18.591  0.00  0.00    +0.000 A 
ATOM     18  C   UNL     1       1.726   3.745  18.203  0.00  0.00    +0.000 A 
ATOM     19  F   UNL     1       1.961   3.919  16.893  0.00  0.00    +0.000 F 
ENDBRANCH   1  13
BRANCH   1  20
ATOM     20  C   UNL     1       2.678   7.204  19.311  0.00  0.00    +0.000 C 
BRANCH  20  22
ATOM     21  O   UNL     1       2.486   8.502  17.293  0.00  0.00    +0.000 OA
ATOM     22  C   UNL     1       2.144   8.341  18.460  0.00  0.00    +0.000 C 
ATOM     23  N   UNL     1       1.303   9.203  19.110  0.00  0.00    +0.000 N 
ATOM     24  H   UNL     1       0.955   8.948  20.026  0.00  0.00    +0.000 HD
BRANCH  23  25
ATOM     25  C   UNL     1       0.700  10.343  18.460  0.00  0.00    +0.000 C 
BRANCH  25  26
ATOM     26  C   UNL     1       1.370  11.607  18.927  0.00  0.00    +0.000 A 
ATOM     27  C   UNL     1       2.342  12.217  18.127  0.00  0.00    +0.000 A 
ATOM     28  C   UNL     1       2.970  13.358  18.589  0.00  0.00    +0.000 A 
ATOM     29  N   UNL     1       2.691  13.934  19.777  0.00  0.00    +0.000 NA
ATOM     30  C   UNL     1       1.738  13.344  20.529  0.00  0.00    +0.000 A 
ATOM     31  C   UNL     1       1.058  12.194  20.155  0.00  0.00    +0.000 A 
ENDBRANCH  25  26
ENDBRANCH  23  25
ENDBRANCH  20  22
ENDBRANCH   1  20
TORSDOF 6
ENDMDL
MODEL 8
REMARK VINA RESULT:      -8.5      1.716      1.994
REMARK  Name = 
REMARK  6 active torsions:
REMARK  status: ('A' for Active; 'I' for Inactive)
REMARK    1  A    between atoms: C_2  and  C_3
REMARK    2  A    between atoms: C_3  and  C_4
REMARK    3  A    between atoms: C_4  and  C_5
REMARK    4  A    between atoms: C_4  and  C_12
REMARK    5  A    between atoms: N_22  and  C_23
REMARK    6  A    between atoms: C_23  and  C_24
REMARK                            x       y       z     vdW  Elec       q    Type
REMARK                         _______ _______ _______ _____ _____    ______ ____
ROOT
ATOM      1  C   UNL     1       3.241   5.873  18.630  0.00  0.00    +0.000 C 
ENDROOT
BRANCH   1   2
ATOM      2  C   UNL     1       4.668   5.401  18.442  0.00  0.00    +0.000 A 
ATOM      3  C   UNL     1       5.671   5.279  19.391  0.00  0.00    +0.000 A 
ATOM      4  N   UNL     1       6.833   4.913  18.767  0.00  0.00    +0.000 N 
ATOM      5  C   UNL     1       6.611   4.714  17.426  0.00  0.00    +0.000 A 
ATOM      6  C   UNL     1       7.500   4.310  16.423  0.00  0.00    +0.000 A 
ATOM      7  C   UNL     1       6.991   4.146  15.132  0.00  0.00    +0.000 A 
ATOM      8  C   UNL     1       5.646   4.387  14.868  0.00  0.00    +0.000 A 
ATOM      9 CL   UNL     1       5.043   4.142  13.272  0.00  0.00    +0.000 Cl
ATOM     10  C   UNL     1       4.773   4.815  15.875  0.00  0.00    +0.000 A 
ATOM     11  C   UNL     1       5.262   4.985  17.191  0.00  0.00    +0.000 A 
ATOM     12  H   UNL     1       7.726   4.785  19.223  0.00  0.00    +0.000 HD
ENDBRANCH   1   2
BRANCH   1  13
ATOM     13  C   UNL     1       2.423   4.712  19.167  0.00  0.00    +0.000 A 
ATOM     14  C   UNL     1       2.206   4.489  20.536  0.00  0.00    +0.000 A 
ATOM     15  C   UNL     1       1.336   3.486  20.973  0.00  0.00    +0.000 A 
ATOM     16  C   UNL     1       0.685   2.669  20.053  0.00  0.00    +0.000 A 
ATOM     17  C   UNL     1       0.924   2.842  18.694  0.00  0.00    +0.000 A 
ATOM     18  C   UNL     1       1.784   3.851  18.265  0.00  0.00    +0.000 A 
ATOM     19  F   UNL     1       1.966   4.009  16.945  0.00  0.00    +0.000 F 
ENDBRANCH   1  13
BRANCH   1  20
ATOM     20  C   UNL     1       3.047   7.228  19.333  0.00  0.00    +0.000 C 
BRANCH  20  22
ATOM     21  O   UNL     1       1.731   8.348  17.658  0.00  0.00    +0.000 OA
ATOM     22  C   UNL     1       1.948   8.155  18.850  0.00  0.00    +0.000 C 
ATOM     23  N   UNL     1       1.264   8.804  19.841  0.00  0.00    +0.000 N 
ATOM     24  H   UNL     1       1.396   8.508  20.800  0.00  0.00    +0.000 HD
BRANCH  23  25
ATOM     25  C   UNL     1       0.185   9.726  19.569  0.00  0.00    +0.000 C 
BRANCH  25  26
ATOM     26  C   UNL     1      -0.158  10.488  20.821  0.00  0.00    +0.000 A 
ATOM     27  C   UNL     1      -0.461   9.794  21.997  0.00  0.00    +0.000 A 
ATOM     28  C   UNL     1      -0.806  10.512  23.127  0.00  0.00    +0.000 A 
ATOM     29  N   UNL     1      -0.858  11.859  23.168  0.00  0.00    +0.000 NA
ATOM     30  C   UNL     1      -0.544  12.514  22.030  0.00  0.00    +0.000 A 
ATOM     31  C   UNL     1      -0.194  11.883  20.845  0.00  0.00    +0.000 A 
ENDBRANCH  25  26
ENDBRANCH  23  25
ENDBRANCH  20  22
ENDBRANCH   1  20
TORSDOF 6
ENDMDL
MODEL 9
REMARK VINA RESULT:      -8.5      2.490      3.105
REMARK  Name = 
REMARK  6 active torsions:
REMARK  status: ('A' for Active; 'I' for Inactive)
REMARK    1  A    between atoms: C_2  and  C_3
REMARK    2  A    between atoms: C_3  and  C_4
REMARK    3  A    between atoms: C_4  and  C_5
REMARK    4  A    between atoms: C_4  and  C_12
REMARK    5  A    between atoms: N_22  and  C_23
REMARK    6  A    between atoms: C_23  and  C_24
REMARK                            x       y       z     vdW  Elec       q    Type
REMARK                         _______ _______ _______ _____ _____    ______ ____
ROOT
ATOM      1  C   UNL     1       4.254   5.669  16.944  0.00  0.00    +0.000 C 
ENDROOT
BRANCH   1   2
ATOM      2  C   UNL     1       5.566   5.495  16.208  0.00  0.00    +0.000 A 
ATOM      3  C   UNL     1       6.841   5.854  16.616  0.00  0.00    +0.000 A 
ATOM      4  N   UNL     1       7.722   5.606  15.598  0.00  0.00    +0.000 N 
ATOM      5  C   UNL     1       7.073   5.016  14.541  0.00  0.00    +0.000 A 
ATOM      6  C   UNL     1       7.582   4.572  13.315  0.00  0.00    +0.000 A 
ATOM      7  C   UNL     1       6.692   3.964  12.424  0.00  0.00    +0.000 A 
ATOM      8  C   UNL     1       5.349   3.821  12.757  0.00  0.00    +0.000 A 
ATOM      9 CL   UNL     1       4.285   3.037  11.651  0.00  0.00    +0.000 Cl
ATOM     10  C   UNL     1       4.848   4.293  13.976  0.00  0.00    +0.000 A 
ATOM     11  C   UNL     1       5.727   4.908  14.897  0.00  0.00    +0.000 A 
ATOM     12  H   UNL     1       8.712   5.805  15.620  0.00  0.00    +0.000 HD
ENDBRANCH   1   2
BRANCH   1  13
ATOM     13  C   UNL     1       3.929   4.367  17.652  0.00  0.00    +0.000 A 
ATOM     14  C   UNL     1       3.040   3.410  17.138  0.00  0.00    +0.000 A 
ATOM     15  C   UNL     1       2.876   2.169  17.761  0.00  0.00    +0.000 A 
ATOM     16  C   UNL     1       3.579   1.869  18.925  0.00  0.00    +0.000 A 
ATOM     17  C   UNL     1       4.428   2.822  19.478  0.00  0.00    +0.000 A 
ATOM     18  C   UNL     1       4.595   4.052  18.845  0.00  0.00    +0.000 A 
ATOM     19  F   UNL     1       5.447   4.934  19.389  0.00  0.00    +0.000 F 
ENDBRANCH   1  13
BRANCH   1  20
ATOM     20  C   UNL     1       4.091   6.955  17.772  0.00  0.00    +0.000 C 
BRANCH  20  22
ATOM     21  O   UNL     1       1.959   6.742  18.868  0.00  0.00    +0.000 OA
ATOM     22  C   UNL     1       2.695   7.413  18.152  0.00  0.00    +0.000 C 
ATOM     23  N   UNL     1       2.301   8.595  17.587  0.00  0.00    +0.000 N 
ATOM     24  H   UNL     1       2.992   9.166  17.116  0.00  0.00    +0.000 HD
BRANCH  23  25
ATOM     25  C   UNL     1       1.005   9.184  17.835  0.00  0.00    +0.000 C 
BRANCH  25  26
ATOM     26  C   UNL     1       1.107  10.181  18.957  0.00  0.00    +0.000 A 
ATOM     27  C   UNL     1       0.754   9.805  20.257  0.00  0.00    +0.000 A 
ATOM     28  C   UNL     1       0.823  10.746  21.268  0.00  0.00    +0.000 A 
ATOM     29  N   UNL     1       1.228  12.018  21.076  0.00  0.00    +0.000 NA
ATOM     30  C   UNL     1       1.584  12.359  19.820  0.00  0.00    +0.000 A 
ATOM     31  C   UNL     1       1.540  11.490  18.739  0.00  0.00    +0.000 A 
ENDBRANCH  25  26
ENDBRANCH  23  25
ENDBRANCH  20  22
ENDBRANCH   1  20
TORSDOF 6
ENDMDL
