MODEL 1
REMARK VINA RESULT:      -6.9      0.000      0.000
REMARK  Name = 
REMARK  3 active torsions:
REMARK  status: ('A' for Active; 'I' for Inactive)
REMARK    1  A    between atoms: C_1  and  C_2
REMARK    2  A    between atoms: C_2  and  C_3
REMARK    3  A    between atoms: C_3  and  C_4
REMARK                            x       y       z     vdW  Elec       q    Type
REMARK                         _______ _______ _______ _____ _____    ______ ____
ROOT
ATOM      1  C   UNL     1       6.343   3.623  12.272  0.00  0.00    +0.000 C 
ATOM      2  C   UNL     1       7.236   3.968  11.108  0.00  0.00    +0.000 C 
ATOM      3  C   UNL     1       6.524   4.164  13.495  0.00  0.00    +0.000 C 
ATOM      4  S   UNL     1       5.587   3.786  14.888  0.00  0.00    +0.000 S 
ATOM      5  C   UNL     1       6.743   4.612  15.909  0.00  0.00    +0.000 C 
ATOM      6  N   UNL     1       6.612   4.537  17.273  0.00  0.00    +0.000 N 
ATOM      7  C   UNL     1       5.401   4.121  17.991  0.00  0.00    +0.000 C 
ATOM      8  C   UNL     1       5.100   5.134  19.107  0.00  0.00    +0.000 C 
ATOM      9  O   UNL     1       6.217   5.277  19.996  0.00  0.00    +0.000 OA
ATOM     10  C   UNL     1       7.374   5.738  19.277  0.00  0.00    +0.000 C 
ATOM     11  C   UNL     1       7.761   4.762  18.160  0.00  0.00    +0.000 C 
ATOM     12  N   UNL     1       7.687   5.233  15.280  0.00  0.00    +0.000 NA
ATOM     13  C   UNL     1       7.594   5.132  13.909  0.00  0.00    +0.000 C 
ATOM     14  O   UNL     1       8.291   5.759  13.124  0.00  0.00    +0.000 OA
ENDROOT
BRANCH   1  16
ATOM     15  C   UNL     1       4.067   3.237  11.251  0.00  0.00    +0.000 C 
ATOM     16  C   UNL     1       5.254   2.609  11.971  0.00  0.00    +0.000 C 
ENDBRANCH   1  16
TORSDOF 1
ENDMDL
MODEL 2
REMARK VINA RESULT:      -6.8      3.064      4.523
REMARK  Name = 
REMARK  3 active torsions:
REMARK  status: ('A' for Active; 'I' for Inactive)
REMARK    1  A    between atoms: C_1  and  C_2
REMARK    2  A    between atoms: C_2  and  C_3
REMARK    3  A    between atoms: C_3  and  C_4
REMARK                            x       y       z     vdW  Elec       q    Type
REMARK                         _______ _______ _______ _____ _____    ______ ____
ROOT
ATOM      1  C   UNL     1       6.169   4.657  15.701  0.00  0.00    +0.000 C 
ATOM      2  C   UNL     1       7.651   4.920  15.627  0.00  0.00    +0.000 C 
ATOM      3  C   UNL     1       5.536   4.469  16.878  0.00  0.00    +0.000 C 
ATOM      4  S   UNL     1       3.861   4.111  17.048  0.00  0.00    +0.000 S 
ATOM      5  C   UNL     1       4.104   3.705  18.733  0.00  0.00    +0.000 C 
ATOM      6  N   UNL     1       3.068   3.163  19.451  0.00  0.00    +0.000 N 
ATOM      7  C   UNL     1       1.653   3.196  19.064  0.00  0.00    +0.000 C 
ATOM      8  C   UNL     1       0.809   3.656  20.263  0.00  0.00    +0.000 C 
ATOM      9  O   UNL     1       1.023   2.814  21.405  0.00  0.00    +0.000 OA
ATOM     10  C   UNL     1       2.407   2.842  21.796  0.00  0.00    +0.000 C 
ATOM     11  C   UNL     1       3.317   2.364  20.659  0.00  0.00    +0.000 C 
ATOM     12  N   UNL     1       5.294   3.928  19.186  0.00  0.00    +0.000 NA
ATOM     13  C   UNL     1       6.150   4.460  18.247  0.00  0.00    +0.000 C 
ATOM     14  O   UNL     1       7.271   4.881  18.497  0.00  0.00    +0.000 OA
ENDROOT
BRANCH   1  16
ATOM     15  C   UNL     1       6.166   3.678  13.374  0.00  0.00    +0.000 C 
ATOM     16  C   UNL     1       5.457   4.596  14.361  0.00  0.00    +0.000 C 
ENDBRANCH   1  16
TORSDOF 1
ENDMDL
MODEL 3
REMARK VINA RESULT:      -6.4      3.644      5.522
REMARK  Name = 
REMARK  3 active torsions:
REMARK  status: ('A' for Active; 'I' for Inactive)
REMARK    1  A    between atoms: C_1  and  C_2
REMARK    2  A    between atoms: C_2  and  C_3
REMARK    3  A    between atoms: C_3  and  C_4
REMARK                            x       y       z     vdW  Elec       q    Type
REMARK                         _______ _______ _______ _____ _____    ______ ____
ROOT
ATOM      1  C   UNL     1       6.979   5.740  17.177  0.00  0.00    +0.000 C 
ATOM      2  C   UNL     1       7.509   5.652  15.769  0.00  0.00    +0.000 C 
ATOM      3  C   UNL     1       5.907   5.026  17.581  0.00  0.00    +0.000 C 
ATOM      4  S   UNL     1       5.206   5.107  19.152  0.00  0.00    +0.000 S 
ATOM      5  C   UNL     1       3.807   4.219  18.589  0.00  0.00    +0.000 C 
ATOM      6  N   UNL     1       2.727   4.066  19.421  0.00  0.00    +0.000 N 
ATOM      7  C   UNL     1       2.735   4.270  20.875  0.00  0.00    +0.000 C 
ATOM      8  C   UNL     1       2.056   3.074  21.559  0.00  0.00    +0.000 C 
ATOM      9  O   UNL     1       0.725   2.876  21.062  0.00  0.00    +0.000 OA
ATOM     10  C   UNL     1       0.750   2.624  19.646  0.00  0.00    +0.000 C 
ATOM     11  C   UNL     1       1.387   3.792  18.884  0.00  0.00    +0.000 C 
ATOM     12  N   UNL     1       3.887   3.779  17.376  0.00  0.00    +0.000 NA
ATOM     13  C   UNL     1       5.077   4.089  16.754  0.00  0.00    +0.000 C 
ATOM     14  O   UNL     1       5.420   3.649  15.666  0.00  0.00    +0.000 OA
ENDROOT
BRANCH   1  16
ATOM     15  C   UNL     1       7.707   8.128  17.550  0.00  0.00    +0.000 C 
ATOM     16  C   UNL     1       7.721   6.702  18.086  0.00  0.00    +0.000 C 
ENDBRANCH   1  16
TORSDOF 1
ENDMDL
MODEL 4
REMARK VINA RESULT:      -6.1      3.448      6.771
REMARK  Name = 
REMARK  3 active torsions:
REMARK  status: ('A' for Active; 'I' for Inactive)
REMARK    1  A    between atoms: C_1  and  C_2
REMARK    2  A    between atoms: C_2  and  C_3
REMARK    3  A    between atoms: C_3  and  C_4
REMARK                            x       y       z     vdW  Elec       q    Type
REMARK                         _______ _______ _______ _____ _____    ______ ____
ROOT
ATOM      1  C   UNL     1       1.732   3.713  20.124  0.00  0.00    +0.000 C 
ATOM      2  C   UNL     1       0.295   3.293  19.954  0.00  0.00    +0.000 C 
ATOM      3  C   UNL     1       2.504   4.057  19.072  0.00  0.00    +0.000 C 
ATOM      4  S   UNL     1       4.165   4.497  19.171  0.00  0.00    +0.000 S 
ATOM      5  C   UNL     1       4.317   4.376  17.432  0.00  0.00    +0.000 C 
ATOM      6  N   UNL     1       5.557   4.489  16.855  0.00  0.00    +0.000 N 
ATOM      7  C   UNL     1       6.750   5.047  17.501  0.00  0.00    +0.000 C 
ATOM      8  C   UNL     1       7.415   6.058  16.553  0.00  0.00    +0.000 C 
ATOM      9  O   UNL     1       7.733   5.456  15.290  0.00  0.00    +0.000 OA
ATOM     10  C   UNL     1       6.539   4.966  14.654  0.00  0.00    +0.000 C 
ATOM     11  C   UNL     1       5.830   3.924  15.526  0.00  0.00    +0.000 C 
ATOM     12  N   UNL     1       3.212   4.154  16.798  0.00  0.00    +0.000 NA
ATOM     13  C   UNL     1       2.112   4.064  17.623  0.00  0.00    +0.000 C 
ATOM     14  O   UNL     1       0.957   4.004  17.226  0.00  0.00    +0.000 OA
ENDROOT
BRANCH   1  16
ATOM     15  C   UNL     1       1.819   2.436  22.300  0.00  0.00    +0.000 C 
ATOM     16  C   UNL     1       2.245   3.694  21.553  0.00  0.00    +0.000 C 
ENDBRANCH   1  16
TORSDOF 1
ENDMDL
MODEL 5
REMARK VINA RESULT:      -6.0      2.905      6.758
REMARK  Name = 
REMARK  3 active torsions:
REMARK  status: ('A' for Active; 'I' for Inactive)
REMARK    1  A    between atoms: C_1  and  C_2
REMARK    2  A    between atoms: C_2  and  C_3
REMARK    3  A    between atoms: C_3  and  C_4
REMARK                            x       y       z     vdW  Elec       q    Type
REMARK                         _______ _______ _______ _____ _____    ______ ____
ROOT
ATOM      1  C   UNL     1       2.198   3.727  20.632  0.00  0.00    +0.000 C 
ATOM      2  C   UNL     1       2.237   2.835  21.847  0.00  0.00    +0.000 C 
ATOM      3  C   UNL     1       3.201   3.746  19.730  0.00  0.00    +0.000 C 
ATOM      4  S   UNL     1       3.262   4.770  18.347  0.00  0.00    +0.000 S 
ATOM      5  C   UNL     1       4.943   4.356  18.096  0.00  0.00    +0.000 C 
ATOM      6  N   UNL     1       5.664   5.019  17.134  0.00  0.00    +0.000 N 
ATOM      7  C   UNL     1       5.095   5.813  16.039  0.00  0.00    +0.000 C 
ATOM      8  C   UNL     1       5.766   5.407  14.717  0.00  0.00    +0.000 C 
ATOM      9  O   UNL     1       7.191   5.555  14.789  0.00  0.00    +0.000 OA
ATOM     10  C   UNL     1       7.729   4.726  15.835  0.00  0.00    +0.000 C 
ATOM     11  C   UNL     1       7.130   5.090  17.198  0.00  0.00    +0.000 C 
ATOM     12  N   UNL     1       5.408   3.441  18.882  0.00  0.00    +0.000 NA
ATOM     13  C   UNL     1       4.476   2.954  19.772  0.00  0.00    +0.000 C 
ATOM     14  O   UNL     1       4.658   1.989  20.501  0.00  0.00    +0.000 OA
ENDROOT
BRANCH   1  16
ATOM     15  C   UNL     1       1.276   6.067  20.839  0.00  0.00    +0.000 C 
ATOM     16  C   UNL     1       0.969   4.610  20.519  0.00  0.00    +0.000 C 
ENDBRANCH   1  16
TORSDOF 1
ENDMDL
MODEL 6
REMARK VINA RESULT:      -6.0      3.517      6.357
REMARK  Name = 
REMARK  3 active torsions:
REMARK  status: ('A' for Active; 'I' for Inactive)
REMARK    1  A    between atoms: C_1  and  C_2
REMARK    2  A    between atoms: C_2  and  C_3
REMARK    3  A    between atoms: C_3  and  C_4
REMARK                            x       y       z     vdW  Elec       q    Type
REMARK                         _______ _______ _______ _____ _____    ______ ____
ROOT
ATOM      1  C   UNL     1       1.505   3.236  19.503  0.00  0.00    +0.000 C 
ATOM      2  C   UNL     1       0.585   2.120  19.077  0.00  0.00    +0.000 C 
ATOM      3  C   UNL     1       2.486   3.696  18.700  0.00  0.00    +0.000 C 
ATOM      4  S   UNL     1       3.611   4.927  19.127  0.00  0.00    +0.000 S 
ATOM      5  C   UNL     1       4.587   4.543  17.726  0.00  0.00    +0.000 C 
ATOM      6  N   UNL     1       5.809   5.146  17.570  0.00  0.00    +0.000 N 
ATOM      7  C   UNL     1       6.260   6.352  18.274  0.00  0.00    +0.000 C 
ATOM      8  C   UNL     1       6.860   7.338  17.259  0.00  0.00    +0.000 C 
ATOM      9  O   UNL     1       7.926   6.734  16.513  0.00  0.00    +0.000 OA
ATOM     10  C   UNL     1       7.444   5.587  15.790  0.00  0.00    +0.000 C 
ATOM     11  C   UNL     1       6.857   4.537  16.739  0.00  0.00    +0.000 C 
ATOM     12  N   UNL     1       4.076   3.666  16.925  0.00  0.00    +0.000 NA
ATOM     13  C   UNL     1       2.843   3.203  17.328  0.00  0.00    +0.000 C 
ATOM     14  O   UNL     1       2.121   2.486  16.650  0.00  0.00    +0.000 OA
ENDROOT
BRANCH   1  16
ATOM     15  C   UNL     1       1.883   2.894  21.975  0.00  0.00    +0.000 C 
ATOM     16  C   UNL     1       1.260   3.775  20.901  0.00  0.00    +0.000 C 
ENDBRANCH   1  16
TORSDOF 1
ENDMDL
MODEL 7
REMARK VINA RESULT:      -5.8      1.066      1.198
REMARK  Name = 
REMARK  3 active torsions:
REMARK  status: ('A' for Active; 'I' for Inactive)
REMARK    1  A    between atoms: C_1  and  C_2
REMARK    2  A    between atoms: C_2  and  C_3
REMARK    3  A    between atoms: C_3  and  C_4
REMARK                            x       y       z     vdW  Elec       q    Type
REMARK                         _______ _______ _______ _____ _____    ______ ____
ROOT
ATOM      1  C   UNL     1       6.301   3.528  12.375  0.00  0.00    +0.000 C 
ATOM      2  C   UNL     1       7.483   3.862  11.502  0.00  0.00    +0.000 C 
ATOM      3  C   UNL     1       6.158   4.048  13.611  0.00  0.00    +0.000 C 
ATOM      4  S   UNL     1       4.870   3.679  14.693  0.00  0.00    +0.000 S 
ATOM      5  C   UNL     1       5.728   4.459  16.004  0.00  0.00    +0.000 C 
ATOM      6  N   UNL     1       5.231   4.370  17.280  0.00  0.00    +0.000 N 
ATOM      7  C   UNL     1       3.862   3.981  17.637  0.00  0.00    +0.000 C 
ATOM      8  C   UNL     1       3.295   4.987  18.650  0.00  0.00    +0.000 C 
ATOM      9  O   UNL     1       4.134   5.087  19.810  0.00  0.00    +0.000 OA
ATOM     10  C   UNL     1       5.453   5.523  19.439  0.00  0.00    +0.000 C 
ATOM     11  C   UNL     1       6.104   4.550  18.449  0.00  0.00    +0.000 C 
ATOM     12  N   UNL     1       6.821   5.060  15.665  0.00  0.00    +0.000 NA
ATOM     13  C   UNL     1       7.100   4.979  14.318  0.00  0.00    +0.000 C 
ATOM     14  O   UNL     1       7.998   5.596  13.763  0.00  0.00    +0.000 OA
ENDROOT
BRANCH   1  16
ATOM     15  C   UNL     1       4.108   3.256  11.155  0.00  0.00    +0.000 C 
ATOM     16  C   UNL     1       5.308   2.550  11.771  0.00  0.00    +0.000 C 
ENDBRANCH   1  16
TORSDOF 1
ENDMDL
MODEL 8
REMARK VINA RESULT:      -5.7      3.092      6.565
REMARK  Name = 
REMARK  3 active torsions:
REMARK  status: ('A' for Active; 'I' for Inactive)
REMARK    1  A    between atoms: C_1  and  C_2
REMARK    2  A    between atoms: C_2  and  C_3
REMARK    3  A    between atoms: C_3  and  C_4
REMARK                            x       y       z     vdW  Elec       q    Type
REMARK                         _______ _______ _______ _____ _____    ______ ____
ROOT
ATOM      1  C   UNL     1       2.125   3.101  20.489  0.00  0.00    +0.000 C 
ATOM      2  C   UNL     1       2.219   2.422  21.832  0.00  0.00    +0.000 C 
ATOM      3  C   UNL     1       3.207   3.273  19.701  0.00  0.00    +0.000 C 
ATOM      4  S   UNL     1       3.198   4.083  18.182  0.00  0.00    +0.000 S 
ATOM      5  C   UNL     1       4.948   4.112  18.171  0.00  0.00    +0.000 C 
ATOM      6  N   UNL     1       5.603   4.814  17.191  0.00  0.00    +0.000 N 
ATOM      7  C   UNL     1       5.011   5.271  15.928  0.00  0.00    +0.000 C 
ATOM      8  C   UNL     1       5.941   4.893  14.765  0.00  0.00    +0.000 C 
ATOM      9  O   UNL     1       7.257   5.431  14.954  0.00  0.00    +0.000 OA
ATOM     10  C   UNL     1       7.836   4.924  16.169  0.00  0.00    +0.000 C 
ATOM     11  C   UNL     1       6.980   5.289  17.388  0.00  0.00    +0.000 C 
ATOM     12  N   UNL     1       5.515   3.470  19.140  0.00  0.00    +0.000 NA
ATOM     13  C   UNL     1       4.621   2.870  20.000  0.00  0.00    +0.000 C 
ATOM     14  O   UNL     1       4.938   2.096  20.892  0.00  0.00    +0.000 OA
ENDROOT
BRANCH   1  16
ATOM     15  C   UNL     1       0.157   2.823  18.934  0.00  0.00    +0.000 C 
ATOM     16  C   UNL     1       0.740   3.594  20.111  0.00  0.00    +0.000 C 
ENDBRANCH   1  16
TORSDOF 1
ENDMDL
MODEL 9
REMARK VINA RESULT:      -5.5      5.575      7.985
REMARK  Name = 
REMARK  3 active torsions:
REMARK  status: ('A' for Active; 'I' for Inactive)
REMARK    1  A    between atoms: C_1  and  C_2
REMARK    2  A    between atoms: C_2  and  C_3
REMARK    3  A    between atoms: C_3  and  C_4
REMARK                            x       y       z     vdW  Elec       q    Type
REMARK                         _______ _______ _______ _____ _____    ______ ____
ROOT
ATOM      1  C   UNL     1       1.173   9.073  20.103  0.00  0.00    +0.000 C 
ATOM      2  C   UNL     1       0.982  10.307  19.259  0.00  0.00    +0.000 C 
ATOM      3  C   UNL     1       1.770   7.964  19.618  0.00  0.00    +0.000 C 
ATOM      4  S   UNL     1       1.981   6.497  20.494  0.00  0.00    +0.000 S 
ATOM      5  C   UNL     1       2.435   5.666  19.023  0.00  0.00    +0.000 C 
ATOM      6  N   UNL     1       2.609   4.305  19.044  0.00  0.00    +0.000 N 
ATOM      7  C   UNL     1       2.796   3.489  20.249  0.00  0.00    +0.000 C 
ATOM      8  C   UNL     1       3.993   2.547  20.044  0.00  0.00    +0.000 C 
ATOM      9  O   UNL     1       3.820   1.731  18.876  0.00  0.00    +0.000 OA
ATOM     10  C   UNL     1       3.694   2.555  17.704  0.00  0.00    +0.000 C 
ATOM     11  C   UNL     1       2.497   3.506  17.816  0.00  0.00    +0.000 C 
ATOM     12  N   UNL     1       2.550   6.420  17.979  0.00  0.00    +0.000 NA
ATOM     13  C   UNL     1       2.301   7.752  18.230  0.00  0.00    +0.000 C 
ATOM     14  O   UNL     1       2.494   8.653  17.427  0.00  0.00    +0.000 OA
ENDROOT
BRANCH   1  16
ATOM     15  C   UNL     1       0.014  10.530  21.807  0.00  0.00    +0.000 C 
ATOM     16  C   UNL     1       0.625   9.166  21.516  0.00  0.00    +0.000 C 
ENDBRANCH   1  16
TORSDOF 1
ENDMDL
