MODEL 1
REMARK VINA RESULT:      -8.4      0.000      0.000
REMARK  Name = 
REMARK  5 active torsions:
REMARK  status: ('A' for Active; 'I' for Inactive)
REMARK    1  A    between atoms: C_1  and  O_2
REMARK    2  A    between atoms: O_2  and  C_3
REMARK    3  A    between atoms: C_6  and  C_7
REMARK    4  A    between atoms: N_9  and  C_10
REMARK    5  A    between atoms: C_20  and  C_21
REMARK                            x       y       z     vdW  Elec       q    Type
REMARK                         _______ _______ _______ _____ _____    ______ ____
ROOT
ATOM      1  C   UNL     1       7.125   4.984  14.466  0.00  0.00    +0.000 A 
ATOM      2  C   UNL     1       6.292   3.955  14.200  0.00  0.00    +0.000 A 
ATOM      3  C   UNL     1       5.313   3.530  15.190  0.00  0.00    +0.000 A 
ATOM      4  C   UNL     1       5.227   4.110  16.407  0.00  0.00    +0.000 A 
ATOM      5  C   UNL     1       6.105   5.203  16.709  0.00  0.00    +0.000 A 
ATOM      6  C   UNL     1       6.286   6.027  17.796  0.00  0.00    +0.000 A 
ATOM      7  C   UNL     1       7.315   6.920  17.428  0.00  0.00    +0.000 A 
ATOM      8  N   UNL     1       7.766   6.665  16.193  0.00  0.00    +0.000 NA
ATOM      9  N   UNL     1       7.020   5.613  15.734  0.00  0.00    +0.000 N 
ENDROOT
BRANCH   4  10
ATOM     10  C   UNL     1       4.166   3.689  17.394  0.00  0.00    +0.000 C 
ATOM     11  O   UNL     1       3.094   3.232  17.005  0.00  0.00    +0.000 OA
ATOM     12  N   UNL     1       4.436   3.994  18.718  0.00  0.00    +0.000 N 
ATOM     13  H   UNL     1       5.045   4.793  18.862  0.00  0.00    +0.000 HD
BRANCH  12  14
ATOM     14  C   UNL     1       3.450   3.779  19.729  0.00  0.00    +0.000 A 
ATOM     15  C   UNL     1       3.456   2.667  20.588  0.00  0.00    +0.000 A 
ATOM     16 CL   UNL     1       4.796   1.587  20.741  0.00  0.00    +0.000 Cl
ATOM     17  C   UNL     1       2.387   2.503  21.463  0.00  0.00    +0.000 A 
ATOM     18  N   UNL     1       1.345   3.363  21.562  0.00  0.00    +0.000 NA
ATOM     19  C   UNL     1       1.389   4.455  20.765  0.00  0.00    +0.000 A 
ATOM     20  C   UNL     1       2.413   4.714  19.863  0.00  0.00    +0.000 A 
ATOM     21 CL   UNL     1       2.351   6.143  18.898  0.00  0.00    +0.000 Cl
ENDBRANCH  12  14
ENDBRANCH   4  10
BRANCH   7  22
ATOM     22  C   UNL     1       7.877   8.028  18.261  0.00  0.00    +0.000 C 
ATOM     23  F   UNL     1       8.884   7.579  19.063  0.00  0.00    +0.000 F 
ATOM     24  F   UNL     1       8.430   8.997  17.477  0.00  0.00    +0.000 F 
ENDBRANCH   7  22
BRANCH   1  26
ATOM     25  C   UNL     1       7.845   5.417  12.208  0.00  0.00    +0.000 C 
ATOM     26  O   UNL     1       8.083   5.489  13.606  0.00  0.00    +0.000 OA
ENDBRANCH   1  26
TORSDOF 4
ENDMDL
MODEL 2
REMARK VINA RESULT:      -8.2      0.298      1.820
REMARK  Name = 
REMARK  5 active torsions:
REMARK  status: ('A' for Active; 'I' for Inactive)
REMARK    1  A    between atoms: C_1  and  O_2
REMARK    2  A    between atoms: O_2  and  C_3
REMARK    3  A    between atoms: C_6  and  C_7
REMARK    4  A    between atoms: N_9  and  C_10
REMARK    5  A    between atoms: C_20  and  C_21
REMARK                            x       y       z     vdW  Elec       q    Type
REMARK                         _______ _______ _______ _____ _____    ______ ____
ROOT
ATOM      1  C   UNL     1       7.075   5.066  14.425  0.00  0.00    +0.000 A 
ATOM      2  C   UNL     1       6.237   4.037  14.177  0.00  0.00    +0.000 A 
ATOM      3  C   UNL     1       5.278   3.613  15.187  0.00  0.00    +0.000 A 
ATOM      4  C   UNL     1       5.217   4.193  16.405  0.00  0.00    +0.000 A 
ATOM      5  C   UNL     1       6.100   5.286  16.689  0.00  0.00    +0.000 A 
ATOM      6  C   UNL     1       6.303   6.112  17.771  0.00  0.00    +0.000 A 
ATOM      7  C   UNL     1       7.324   7.004  17.381  0.00  0.00    +0.000 A 
ATOM      8  N   UNL     1       7.750   6.749  16.138  0.00  0.00    +0.000 NA
ATOM      9  N   UNL     1       6.995   5.696  15.695  0.00  0.00    +0.000 N 
ENDROOT
BRANCH   4  10
ATOM     10  C   UNL     1       4.177   3.773  17.414  0.00  0.00    +0.000 C 
ATOM     11  O   UNL     1       3.067   3.391  17.048  0.00  0.00    +0.000 OA
ATOM     12  N   UNL     1       4.515   3.992  18.739  0.00  0.00    +0.000 N 
ATOM     13  H   UNL     1       5.170   4.751  18.898  0.00  0.00    +0.000 HD
BRANCH  12  14
ATOM     14  C   UNL     1       3.561   3.771  19.779  0.00  0.00    +0.000 A 
ATOM     15  C   UNL     1       2.618   4.734  20.177  0.00  0.00    +0.000 A 
ATOM     16 CL   UNL     1       2.287   6.172  19.280  0.00  0.00    +0.000 Cl
ATOM     17  C   UNL     1       1.810   4.452  21.274  0.00  0.00    +0.000 A 
ATOM     18  N   UNL     1       1.852   3.293  21.973  0.00  0.00    +0.000 NA
ATOM     19  C   UNL     1       2.729   2.360  21.537  0.00  0.00    +0.000 A 
ATOM     20  C   UNL     1       3.574   2.540  20.450  0.00  0.00    +0.000 A 
ATOM     21 CL   UNL     1       4.652   1.271  19.996  0.00  0.00    +0.000 Cl
ENDBRANCH  12  14
ENDBRANCH   4  10
BRANCH   7  22
ATOM     22  C   UNL     1       7.904   8.113  18.202  0.00  0.00    +0.000 C 
ATOM     23  F   UNL     1       8.878   7.652  19.036  0.00  0.00    +0.000 F 
ATOM     24  F   UNL     1       8.503   9.046  17.409  0.00  0.00    +0.000 F 
ENDBRANCH   7  22
BRANCH   1  26
ATOM     25  C   UNL     1       7.846   5.324  12.157  0.00  0.00    +0.000 C 
ATOM     26  O   UNL     1       8.015   5.570  13.546  0.00  0.00    +0.000 OA
ENDBRANCH   1  26
TORSDOF 4
ENDMDL
MODEL 3
REMARK VINA RESULT:      -8.1      5.330      7.044
REMARK  Name = 
REMARK  5 active torsions:
REMARK  status: ('A' for Active; 'I' for Inactive)
REMARK    1  A    between atoms: C_1  and  O_2
REMARK    2  A    between atoms: O_2  and  C_3
REMARK    3  A    between atoms: C_6  and  C_7
REMARK    4  A    between atoms: N_9  and  C_10
REMARK    5  A    between atoms: C_20  and  C_21
REMARK                            x       y       z     vdW  Elec       q    Type
REMARK                         _______ _______ _______ _____ _____    ______ ____
ROOT
ATOM      1  C   UNL     1       1.355  10.440  18.640  0.00  0.00    +0.000 A 
ATOM      2  C   UNL     1       2.077   9.785  17.705  0.00  0.00    +0.000 A 
ATOM      3  C   UNL     1       2.492   8.408  17.932  0.00  0.00    +0.000 A 
ATOM      4  C   UNL     1       2.213   7.756  19.081  0.00  0.00    +0.000 A 
ATOM      5  C   UNL     1       1.449   8.436  20.087  0.00  0.00    +0.000 A 
ATOM      6  C   UNL     1       0.968   8.097  21.332  0.00  0.00    +0.000 A 
ATOM      7  C   UNL     1       0.270   9.234  21.790  0.00  0.00    +0.000 A 
ATOM      8  N   UNL     1       0.320  10.233  20.899  0.00  0.00    +0.000 NA
ATOM      9  N   UNL     1       1.037   9.749  19.838  0.00  0.00    +0.000 N 
ENDROOT
BRANCH   4  10
ATOM     10  C   UNL     1       2.605   6.311  19.269  0.00  0.00    +0.000 C 
ATOM     11  O   UNL     1       3.403   5.987  20.145  0.00  0.00    +0.000 OA
ATOM     12  N   UNL     1       2.123   5.438  18.308  0.00  0.00    +0.000 N 
ATOM     13  H   UNL     1       1.943   5.852  17.399  0.00  0.00    +0.000 HD
BRANCH  12  14
ATOM     14  C   UNL     1       2.540   4.071  18.292  0.00  0.00    +0.000 A 
ATOM     15  C   UNL     1       1.914   3.065  19.047  0.00  0.00    +0.000 A 
ATOM     16 CL   UNL     1       0.396   3.276  19.844  0.00  0.00    +0.000 Cl
ATOM     17  C   UNL     1       2.472   1.791  19.039  0.00  0.00    +0.000 A 
ATOM     18  N   UNL     1       3.571   1.444  18.326  0.00  0.00    +0.000 NA
ATOM     19  C   UNL     1       4.123   2.416  17.564  0.00  0.00    +0.000 A 
ATOM     20  C   UNL     1       3.640   3.717  17.498  0.00  0.00    +0.000 A 
ATOM     21 CL   UNL     1       4.439   4.866  16.489  0.00  0.00    +0.000 Cl
ENDBRANCH  12  14
ENDBRANCH   4  10
BRANCH   7  22
ATOM     22  C   UNL     1      -0.453   9.374  23.093  0.00  0.00    +0.000 C 
ATOM     23  F   UNL     1       0.414   9.342  24.143  0.00  0.00    +0.000 F 
ATOM     24  F   UNL     1      -1.090  10.578  23.172  0.00  0.00    +0.000 F 
ENDBRANCH   7  22
BRANCH   1  26
ATOM     25  C   UNL     1       1.820  12.804  18.670  0.00  0.00    +0.000 C 
ATOM     26  O   UNL     1       0.891  11.738  18.536  0.00  0.00    +0.000 OA
ENDBRANCH   1  26
TORSDOF 4
ENDMDL
MODEL 4
REMARK VINA RESULT:      -8.1      5.449      7.259
REMARK  Name = 
REMARK  5 active torsions:
REMARK  status: ('A' for Active; 'I' for Inactive)
REMARK    1  A    between atoms: C_1  and  O_2
REMARK    2  A    between atoms: O_2  and  C_3
REMARK    3  A    between atoms: C_6  and  C_7
REMARK    4  A    between atoms: N_9  and  C_10
REMARK    5  A    between atoms: C_20  and  C_21
REMARK                            x       y       z     vdW  Elec       q    Type
REMARK                         _______ _______ _______ _____ _____    ______ ____
ROOT
ATOM      1  C   UNL     1       1.074  10.634  18.702  0.00  0.00    +0.000 A 
ATOM      2  C   UNL     1       1.782  10.025  17.727  0.00  0.00    +0.000 A 
ATOM      3  C   UNL     1       2.281   8.671  17.922  0.00  0.00    +0.000 A 
ATOM      4  C   UNL     1       2.097   7.999  19.078  0.00  0.00    +0.000 A 
ATOM      5  C   UNL     1       1.350   8.630  20.127  0.00  0.00    +0.000 A 
ATOM      6  C   UNL     1       0.952   8.260  21.391  0.00  0.00    +0.000 A 
ATOM      7  C   UNL     1       0.218   9.355  21.894  0.00  0.00    +0.000 A 
ATOM      8  N   UNL     1       0.168  10.359  21.010  0.00  0.00    +0.000 NA
ATOM      9  N   UNL     1       0.855   9.921  19.910  0.00  0.00    +0.000 N 
ENDROOT
BRANCH   4  10
ATOM     10  C   UNL     1       2.575   6.577  19.234  0.00  0.00    +0.000 C 
ATOM     11  O   UNL     1       3.457   6.297  20.042  0.00  0.00    +0.000 OA
ATOM     12  N   UNL     1       2.061   5.676  18.316  0.00  0.00    +0.000 N 
ATOM     13  H   UNL     1       1.787   6.076  17.424  0.00  0.00    +0.000 HD
BRANCH  12  14
ATOM     14  C   UNL     1       2.545   4.332  18.266  0.00  0.00    +0.000 A 
ATOM     15  C   UNL     1       3.583   3.917  17.416  0.00  0.00    +0.000 A 
ATOM     16 CL   UNL     1       4.604   5.011  16.553  0.00  0.00    +0.000 Cl
ATOM     17  C   UNL     1       3.899   2.563  17.372  0.00  0.00    +0.000 A 
ATOM     18  N   UNL     1       3.286   1.613  18.119  0.00  0.00    +0.000 NA
ATOM     19  C   UNL     1       2.328   2.044  18.971  0.00  0.00    +0.000 A 
ATOM     20  C   UNL     1       1.943   3.373  19.095  0.00  0.00    +0.000 A 
ATOM     21 CL   UNL     1       0.702   3.795  20.218  0.00  0.00    +0.000 Cl
ENDBRANCH  12  14
ENDBRANCH   4  10
BRANCH   7  22
ATOM     22  C   UNL     1      -0.445   9.448  23.233  0.00  0.00    +0.000 C 
ATOM     23  F   UNL     1       0.465   9.333  24.241  0.00  0.00    +0.000 F 
ATOM     24  F   UNL     1      -1.036  10.665  23.401  0.00  0.00    +0.000 F 
ENDBRANCH   7  22
BRANCH   1  26
ATOM     25  C   UNL     1      -0.814  12.049  18.215  0.00  0.00    +0.000 C 
ATOM     26  O   UNL     1       0.536  11.906  18.633  0.00  0.00    +0.000 OA
ENDBRANCH   1  26
TORSDOF 4
ENDMDL
MODEL 5
REMARK VINA RESULT:      -7.8      5.174      6.884
REMARK  Name = 
REMARK  5 active torsions:
REMARK  status: ('A' for Active; 'I' for Inactive)
REMARK    1  A    between atoms: C_1  and  O_2
REMARK    2  A    between atoms: O_2  and  C_3
REMARK    3  A    between atoms: C_6  and  C_7
REMARK    4  A    between atoms: N_9  and  C_10
REMARK    5  A    between atoms: C_20  and  C_21
REMARK                            x       y       z     vdW  Elec       q    Type
REMARK                         _______ _______ _______ _____ _____    ______ ____
ROOT
ATOM      1  C   UNL     1       4.742   5.509  17.936  0.00  0.00    +0.000 A 
ATOM      2  C   UNL     1       4.696   6.634  17.191  0.00  0.00    +0.000 A 
ATOM      3  C   UNL     1       3.654   7.625  17.423  0.00  0.00    +0.000 A 
ATOM      4  C   UNL     1       2.685   7.442  18.345  0.00  0.00    +0.000 A 
ATOM      5  C   UNL     1       2.714   6.252  19.144  0.00  0.00    +0.000 A 
ATOM      6  C   UNL     1       1.936   5.750  20.162  0.00  0.00    +0.000 A 
ATOM      7  C   UNL     1       2.534   4.525  20.527  0.00  0.00    +0.000 A 
ATOM      8  N   UNL     1       3.611   4.262  19.776  0.00  0.00    +0.000 NA
ATOM      9  N   UNL     1       3.739   5.326  18.925  0.00  0.00    +0.000 N 
ENDROOT
BRANCH   4  10
ATOM     10  C   UNL     1       1.650   8.508  18.604  0.00  0.00    +0.000 C 
ATOM     11  O   UNL     1       0.861   8.844  17.724  0.00  0.00    +0.000 OA
ATOM     12  N   UNL     1       1.761   9.157  19.823  0.00  0.00    +0.000 N 
ATOM     13  H   UNL     1       2.698   9.183  20.215  0.00  0.00    +0.000 HD
BRANCH  12  14
ATOM     14  C   UNL     1       0.934  10.281  20.127  0.00  0.00    +0.000 A 
ATOM     15  C   UNL     1       1.153  11.565  19.602  0.00  0.00    +0.000 A 
ATOM     16 CL   UNL     1       2.246  11.890  18.303  0.00  0.00    +0.000 Cl
ATOM     17  C   UNL     1       0.350  12.609  20.051  0.00  0.00    +0.000 A 
ATOM     18  N   UNL     1      -0.654  12.465  20.949  0.00  0.00    +0.000 NA
ATOM     19  C   UNL     1      -0.882  11.210  21.399  0.00  0.00    +0.000 A 
ATOM     20  C   UNL     1      -0.143  10.101  21.008  0.00  0.00    +0.000 A 
ATOM     21 CL   UNL     1      -0.533   8.551  21.660  0.00  0.00    +0.000 Cl
ENDBRANCH  12  14
ENDBRANCH   4  10
BRANCH   7  22
ATOM     22  C   UNL     1       2.074   3.591  21.602  0.00  0.00    +0.000 C 
ATOM     23  F   UNL     1       0.877   3.024  21.283  0.00  0.00    +0.000 F 
ATOM     24  F   UNL     1       2.948   2.555  21.757  0.00  0.00    +0.000 F 
ENDBRANCH   7  22
BRANCH   1  26
ATOM     25  C   UNL     1       7.057   4.842  17.980  0.00  0.00    +0.000 C 
ATOM     26  O   UNL     1       5.685   4.506  17.824  0.00  0.00    +0.000 OA
ENDBRANCH   1  26
TORSDOF 4
ENDMDL
MODEL 6
REMARK VINA RESULT:      -7.8      1.227      2.078
REMARK  Name = 
REMARK  5 active torsions:
REMARK  status: ('A' for Active; 'I' for Inactive)
REMARK    1  A    between atoms: C_1  and  O_2
REMARK    2  A    between atoms: O_2  and  C_3
REMARK    3  A    between atoms: C_6  and  C_7
REMARK    4  A    between atoms: N_9  and  C_10
REMARK    5  A    between atoms: C_20  and  C_21
REMARK                            x       y       z     vdW  Elec       q    Type
REMARK                         _______ _______ _______ _____ _____    ______ ____
ROOT
ATOM      1  C   UNL     1       7.091   5.079  14.760  0.00  0.00    +0.000 A 
ATOM      2  C   UNL     1       6.314   3.977  14.821  0.00  0.00    +0.000 A 
ATOM      3  C   UNL     1       5.606   3.647  16.049  0.00  0.00    +0.000 A 
ATOM      4  C   UNL     1       5.728   4.393  17.168  0.00  0.00    +0.000 A 
ATOM      5  C   UNL     1       6.551   5.566  17.125  0.00  0.00    +0.000 A 
ATOM      6  C   UNL     1       6.885   6.550  18.028  0.00  0.00    +0.000 A 
ATOM      7  C   UNL     1       7.732   7.435  17.328  0.00  0.00    +0.000 A 
ATOM      8  N   UNL     1       7.933   7.029  16.068  0.00  0.00    +0.000 NA
ATOM      9  N   UNL     1       7.201   5.880  15.927  0.00  0.00    +0.000 N 
ENDROOT
BRANCH   4  10
ATOM     10  C   UNL     1       4.940   4.062  18.412  0.00  0.00    +0.000 C 
ATOM     11  O   UNL     1       5.489   3.547  19.383  0.00  0.00    +0.000 OA
ATOM     12  N   UNL     1       3.570   4.240  18.309  0.00  0.00    +0.000 N 
ATOM     13  H   UNL     1       3.192   4.154  17.371  0.00  0.00    +0.000 HD
BRANCH  12  14
ATOM     14  C   UNL     1       2.701   3.827  19.365  0.00  0.00    +0.000 A 
ATOM     15  C   UNL     1       2.127   4.719  20.286  0.00  0.00    +0.000 A 
ATOM     16 CL   UNL     1       2.145   6.435  20.088  0.00  0.00    +0.000 Cl
ATOM     17  C   UNL     1       1.384   4.195  21.338  0.00  0.00    +0.000 A 
ATOM     18  N   UNL     1       1.153   2.873  21.523  0.00  0.00    +0.000 NA
ATOM     19  C   UNL     1       1.669   2.037  20.593  0.00  0.00    +0.000 A 
ATOM     20  C   UNL     1       2.419   2.460  19.503  0.00  0.00    +0.000 A 
ATOM     21 CL   UNL     1       3.026   1.291  18.388  0.00  0.00    +0.000 Cl
ENDBRANCH  12  14
ENDBRANCH   4  10
BRANCH   7  22
ATOM     22  C   UNL     1       8.359   8.683  17.865  0.00  0.00    +0.000 C 
ATOM     23  F   UNL     1       7.447   9.691  17.960  0.00  0.00    +0.000 F 
ATOM     24  F   UNL     1       8.832   8.488  19.128  0.00  0.00    +0.000 F 
ENDBRANCH   7  22
BRANCH   1  26
ATOM     25  C   UNL     1       7.576   4.852  12.410  0.00  0.00    +0.000 C 
ATOM     26  O   UNL     1       7.798   5.506  13.652  0.00  0.00    +0.000 OA
ENDBRANCH   1  26
TORSDOF 4
ENDMDL
MODEL 7
REMARK VINA RESULT:      -7.7      5.540      7.204
REMARK  Name = 
REMARK  5 active torsions:
REMARK  status: ('A' for Active; 'I' for Inactive)
REMARK    1  A    between atoms: C_1  and  O_2
REMARK    2  A    between atoms: O_2  and  C_3
REMARK    3  A    between atoms: C_6  and  C_7
REMARK    4  A    between atoms: N_9  and  C_10
REMARK    5  A    between atoms: C_20  and  C_21
REMARK                            x       y       z     vdW  Elec       q    Type
REMARK                         _______ _______ _______ _____ _____    ______ ____
ROOT
ATOM      1  C   UNL     1       1.269  11.113  18.895  0.00  0.00    +0.000 A 
ATOM      2  C   UNL     1       1.955  10.638  17.834  0.00  0.00    +0.000 A 
ATOM      3  C   UNL     1       2.327   9.231  17.773  0.00  0.00    +0.000 A 
ATOM      4  C   UNL     1       2.042   8.372  18.774  0.00  0.00    +0.000 A 
ATOM      5  C   UNL     1       1.317   8.858  19.911  0.00  0.00    +0.000 A 
ATOM      6  C   UNL     1       0.843   8.292  21.073  0.00  0.00    +0.000 A 
ATOM      7  C   UNL     1       0.190   9.334  21.763  0.00  0.00    +0.000 A 
ATOM      8  N   UNL     1       0.261  10.489  21.089  0.00  0.00    +0.000 NA
ATOM      9  N   UNL     1       0.946  10.206  19.938  0.00  0.00    +0.000 N 
ENDROOT
BRANCH   4  10
ATOM     10  C   UNL     1       2.388   6.907  18.661  0.00  0.00    +0.000 C 
ATOM     11  O   UNL     1       1.889   6.211  17.780  0.00  0.00    +0.000 OA
ATOM     12  N   UNL     1       3.166   6.402  19.690  0.00  0.00    +0.000 N 
ATOM     13  H   UNL     1       3.076   6.885  20.578  0.00  0.00    +0.000 HD
BRANCH  12  14
ATOM     14  C   UNL     1       3.440   5.002  19.775  0.00  0.00    +0.000 A 
ATOM     15  C   UNL     1       2.539   4.071  20.318  0.00  0.00    +0.000 A 
ATOM     16 CL   UNL     1       0.888   4.437  20.670  0.00  0.00    +0.000 Cl
ATOM     17  C   UNL     1       2.954   2.750  20.450  0.00  0.00    +0.000 A 
ATOM     18  N   UNL     1       4.168   2.290  20.063  0.00  0.00    +0.000 NA
ATOM     19  C   UNL     1       4.997   3.193  19.491  0.00  0.00    +0.000 A 
ATOM     20  C   UNL     1       4.677   4.532  19.308  0.00  0.00    +0.000 A 
ATOM     21 CL   UNL     1       5.827   5.585  18.569  0.00  0.00    +0.000 Cl
ENDBRANCH  12  14
ENDBRANCH   4  10
BRANCH   7  22
ATOM     22  C   UNL     1      -0.509   9.232  23.083  0.00  0.00    +0.000 C 
ATOM     23  F   UNL     1       0.376   9.306  24.116  0.00  0.00    +0.000 F 
ATOM     24  F   UNL     1      -1.375  10.271  23.259  0.00  0.00    +0.000 F 
ENDBRANCH   7  22
BRANCH   1  26
ATOM     25  C   UNL     1       1.595  13.458  18.448  0.00  0.00    +0.000 C 
ATOM     26  O   UNL     1       0.848  12.419  19.063  0.00  0.00    +0.000 OA
ENDBRANCH   1  26
TORSDOF 4
ENDMDL
MODEL 8
REMARK VINA RESULT:      -7.7      5.639      7.342
REMARK  Name = 
REMARK  5 active torsions:
REMARK  status: ('A' for Active; 'I' for Inactive)
REMARK    1  A    between atoms: C_1  and  O_2
REMARK    2  A    between atoms: O_2  and  C_3
REMARK    3  A    between atoms: C_6  and  C_7
REMARK    4  A    between atoms: N_9  and  C_10
REMARK    5  A    between atoms: C_20  and  C_21
REMARK                            x       y       z     vdW  Elec       q    Type
REMARK                         _______ _______ _______ _____ _____    ______ ____
ROOT
ATOM      1  C   UNL     1       4.119   5.931  17.872  0.00  0.00    +0.000 A 
ATOM      2  C   UNL     1       3.994   7.148  17.302  0.00  0.00    +0.000 A 
ATOM      3  C   UNL     1       3.050   8.116  17.842  0.00  0.00    +0.000 A 
ATOM      4  C   UNL     1       2.247   7.826  18.888  0.00  0.00    +0.000 A 
ATOM      5  C   UNL     1       2.362   6.537  19.505  0.00  0.00    +0.000 A 
ATOM      6  C   UNL     1       1.751   5.913  20.569  0.00  0.00    +0.000 A 
ATOM      7  C   UNL     1       2.350   4.639  20.657  0.00  0.00    +0.000 A 
ATOM      8  N   UNL     1       3.271   4.463  19.701  0.00  0.00    +0.000 NA
ATOM      9  N   UNL     1       3.295   5.631  18.988  0.00  0.00    +0.000 N 
ENDROOT
BRANCH   4  10
ATOM     10  C   UNL     1       1.317   8.865  19.464  0.00  0.00    +0.000 C 
ATOM     11  O   UNL     1       0.832   8.720  20.584  0.00  0.00    +0.000 OA
ATOM     12  N   UNL     1       0.952   9.880  18.595  0.00  0.00    +0.000 N 
ATOM     13  H   UNL     1       0.969   9.633  17.610  0.00  0.00    +0.000 HD
BRANCH  12  14
ATOM     14  C   UNL     1      -0.034  10.843  18.973  0.00  0.00    +0.000 A 
ATOM     15  C   UNL     1       0.189  11.835  19.942  0.00  0.00    +0.000 A 
ATOM     16 CL   UNL     1       1.750  12.215  20.576  0.00  0.00    +0.000 Cl
ATOM     17  C   UNL     1      -0.877  12.650  20.309  0.00  0.00    +0.000 A 
ATOM     18  N   UNL     1      -2.118  12.569  19.773  0.00  0.00    +0.000 NA
ATOM     19  C   UNL     1      -2.294  11.642  18.803  0.00  0.00    +0.000 A 
ATOM     20  C   UNL     1      -1.294  10.786  18.361  0.00  0.00    +0.000 A 
ATOM     21 CL   UNL     1      -1.648   9.643  17.117  0.00  0.00    +0.000 Cl
ENDBRANCH  12  14
ENDBRANCH   4  10
BRANCH   7  22
ATOM     22  C   UNL     1       2.043   3.575  21.664  0.00  0.00    +0.000 C 
ATOM     23  F   UNL     1       0.887   2.924  21.355  0.00  0.00    +0.000 F 
ATOM     24  F   UNL     1       3.017   2.620  21.677  0.00  0.00    +0.000 F 
ENDBRANCH   7  22
BRANCH   1  26
ATOM     25  C   UNL     1       6.353   5.028  17.841  0.00  0.00    +0.000 C 
ATOM     26  O   UNL     1       4.987   4.935  17.463  0.00  0.00    +0.000 OA
ENDBRANCH   1  26
TORSDOF 4
ENDMDL
MODEL 9
REMARK VINA RESULT:      -7.7      1.201      1.336
REMARK  Name = 
REMARK  5 active torsions:
REMARK  status: ('A' for Active; 'I' for Inactive)
REMARK    1  A    between atoms: C_1  and  O_2
REMARK    2  A    between atoms: O_2  and  C_3
REMARK    3  A    between atoms: C_6  and  C_7
REMARK    4  A    between atoms: N_9  and  C_10
REMARK    5  A    between atoms: C_20  and  C_21
REMARK                            x       y       z     vdW  Elec       q    Type
REMARK                         _______ _______ _______ _____ _____    ______ ____
ROOT
ATOM      1  C   UNL     1       7.226   5.137  14.716  0.00  0.00    +0.000 A 
ATOM      2  C   UNL     1       6.459   4.026  14.749  0.00  0.00    +0.000 A 
ATOM      3  C   UNL     1       5.719   3.682  15.954  0.00  0.00    +0.000 A 
ATOM      4  C   UNL     1       5.800   4.423  17.080  0.00  0.00    +0.000 A 
ATOM      5  C   UNL     1       6.611   5.605  17.066  0.00  0.00    +0.000 A 
ATOM      6  C   UNL     1       6.908   6.587  17.984  0.00  0.00    +0.000 A 
ATOM      7  C   UNL     1       7.765   7.485  17.314  0.00  0.00    +0.000 A 
ATOM      8  N   UNL     1       8.008   7.088  16.059  0.00  0.00    +0.000 NA
ATOM      9  N   UNL     1       7.293   5.933  15.890  0.00  0.00    +0.000 N 
ENDROOT
BRANCH   4  10
ATOM     10  C   UNL     1       4.979   4.077  18.297  0.00  0.00    +0.000 C 
ATOM     11  O   UNL     1       5.512   3.616  19.303  0.00  0.00    +0.000 OA
ATOM     12  N   UNL     1       3.607   4.178  18.134  0.00  0.00    +0.000 N 
ATOM     13  H   UNL     1       3.274   4.049  17.183  0.00  0.00    +0.000 HD
BRANCH  12  14
ATOM     14  C   UNL     1       2.717   3.741  19.163  0.00  0.00    +0.000 A 
ATOM     15  C   UNL     1       2.413   2.389  19.397  0.00  0.00    +0.000 A 
ATOM     16 CL   UNL     1       3.287   1.079  18.688  0.00  0.00    +0.000 Cl
ATOM     17  C   UNL     1       1.451   2.085  20.354  0.00  0.00    +0.000 A 
ATOM     18  N   UNL     1       0.801   3.010  21.101  0.00  0.00    +0.000 NA
ATOM     19  C   UNL     1       1.151   4.300  20.898  0.00  0.00    +0.000 A 
ATOM     20  C   UNL     1       2.103   4.708  19.972  0.00  0.00    +0.000 A 
ATOM     21 CL   UNL     1       2.457   6.389  19.805  0.00  0.00    +0.000 Cl
ENDBRANCH  12  14
ENDBRANCH   4  10
BRANCH   7  22
ATOM     22  C   UNL     1       8.363   8.737  17.875  0.00  0.00    +0.000 C 
ATOM     23  F   UNL     1       7.429   9.723  17.984  0.00  0.00    +0.000 F 
ATOM     24  F   UNL     1       8.835   8.530  19.138  0.00  0.00    +0.000 F 
ENDBRANCH   7  22
BRANCH   1  26
ATOM     25  C   UNL     1       7.659   5.051  12.347  0.00  0.00    +0.000 C 
ATOM     26  O   UNL     1       7.962   5.577  13.632  0.00  0.00    +0.000 OA
ENDBRANCH   1  26
TORSDOF 4
ENDMDL
