MODEL 1
REMARK VINA RESULT:      -7.5      0.000      0.000
REMARK  Name = 
REMARK  2 active torsions:
REMARK  status: ('A' for Active; 'I' for Inactive)
REMARK    1  A    between atoms: C_4  and  C_5
REMARK    2  A    between atoms: C_5  and  C_6
REMARK                            x       y       z     vdW  Elec       q    Type
REMARK                         _______ _______ _______ _____ _____    ______ ____
ROOT
ATOM      1  C   UNL     1       3.524   5.964  18.284  0.00  0.00    +0.000 A 
ATOM      2  C   UNL     1       3.175   5.924  19.618  0.00  0.00    +0.000 A 
ATOM      3  C   UNL     1       2.332   4.791  19.785  0.00  0.00    +0.000 A 
ATOM      4  C   UNL     1       1.609   4.221  20.847  0.00  0.00    +0.000 A 
ATOM      5  C   UNL     1       0.829   3.083  20.591  0.00  0.00    +0.000 A 
ATOM      6  C   UNL     1       0.777   2.513  19.317  0.00  0.00    +0.000 A 
ATOM      7  C   UNL     1       1.503   3.054  18.253  0.00  0.00    +0.000 A 
ATOM      8  C   UNL     1       2.256   4.189  18.535  0.00  0.00    +0.000 A 
ATOM      9  O   UNL     1       2.998   4.885  17.631  0.00  0.00    +0.000 OA
ENDROOT
BRANCH   1  10
ATOM     10  C   UNL     1       4.281   6.928  17.449  0.00  0.00    +0.000 C 
BRANCH  10  14
ATOM     11  O   UNL     1       8.065   4.199  17.430  0.00  0.00    +0.000 OA
ATOM     12  S   UNL     1       7.238   4.668  16.272  0.00  0.00    +0.000 S 
ATOM     13  N   UNL     1       5.689   4.927  16.789  0.00  0.00    +0.000 N 
ATOM     14  C   UNL     1       5.515   6.288  16.835  0.00  0.00    +0.000 C 
ATOM     15  N   UNL     1       6.458   7.060  16.362  0.00  0.00    +0.000 NA
ATOM     16  O   UNL     1       7.555   6.228  15.987  0.00  0.00    +0.000 OA
ATOM     17  H   UNL     1       5.370   4.417  17.606  0.00  0.00    +0.000 HD
ENDBRANCH  10  14
ENDBRANCH   1  10
TORSDOF 2
ENDMDL
MODEL 2
REMARK VINA RESULT:      -7.4      1.590      2.213
REMARK  Name = 
REMARK  2 active torsions:
REMARK  status: ('A' for Active; 'I' for Inactive)
REMARK    1  A    between atoms: C_4  and  C_5
REMARK    2  A    between atoms: C_5  and  C_6
REMARK                            x       y       z     vdW  Elec       q    Type
REMARK                         _______ _______ _______ _____ _____    ______ ____
ROOT
ATOM      1  C   UNL     1       3.883   4.155  17.020  0.00  0.00    +0.000 A 
ATOM      2  C   UNL     1       2.932   3.156  16.995  0.00  0.00    +0.000 A 
ATOM      3  C   UNL     1       2.161   3.299  18.182  0.00  0.00    +0.000 A 
ATOM      4  C   UNL     1       1.101   2.600  18.783  0.00  0.00    +0.000 A 
ATOM      5  C   UNL     1       0.626   3.046  20.026  0.00  0.00    +0.000 A 
ATOM      6  C   UNL     1       1.177   4.167  20.652  0.00  0.00    +0.000 A 
ATOM      7  C   UNL     1       2.219   4.885  20.060  0.00  0.00    +0.000 A 
ATOM      8  C   UNL     1       2.677   4.411  18.835  0.00  0.00    +0.000 A 
ATOM      9  O   UNL     1       3.704   4.945  18.120  0.00  0.00    +0.000 OA
ENDROOT
BRANCH   1  10
ATOM     10  C   UNL     1       5.039   4.494  16.153  0.00  0.00    +0.000 C 
BRANCH  10  14
ATOM     11  O   UNL     1       7.324   5.573  20.074  0.00  0.00    +0.000 OA
ATOM     12  S   UNL     1       7.877   5.284  18.713  0.00  0.00    +0.000 S 
ATOM     13  N   UNL     1       6.844   4.268  17.917  0.00  0.00    +0.000 N 
ATOM     14  C   UNL     1       6.210   5.025  16.964  0.00  0.00    +0.000 C 
ATOM     15  N   UNL     1       6.606   6.255  16.768  0.00  0.00    +0.000 NA
ATOM     16  O   UNL     1       7.603   6.551  17.745  0.00  0.00    +0.000 OA
ATOM     17  H   UNL     1       6.241   3.672  18.476  0.00  0.00    +0.000 HD
ENDBRANCH  10  14
ENDBRANCH   1  10
TORSDOF 2
ENDMDL
MODEL 3
REMARK VINA RESULT:      -7.3      1.047      1.651
REMARK  Name = 
REMARK  2 active torsions:
REMARK  status: ('A' for Active; 'I' for Inactive)
REMARK    1  A    between atoms: C_4  and  C_5
REMARK    2  A    between atoms: C_5  and  C_6
REMARK                            x       y       z     vdW  Elec       q    Type
REMARK                         _______ _______ _______ _____ _____    ______ ____
ROOT
ATOM      1  C   UNL     1       3.119   5.820  18.198  0.00  0.00    +0.000 A 
ATOM      2  C   UNL     1       2.105   4.951  17.852  0.00  0.00    +0.000 A 
ATOM      3  C   UNL     1       1.777   4.219  19.027  0.00  0.00    +0.000 A 
ATOM      4  C   UNL     1       0.896   3.173  19.348  0.00  0.00    +0.000 A 
ATOM      5  C   UNL     1       0.899   2.675  20.659  0.00  0.00    +0.000 A 
ATOM      6  C   UNL     1       1.743   3.211  21.635  0.00  0.00    +0.000 A 
ATOM      7  C   UNL     1       2.613   4.264  21.339  0.00  0.00    +0.000 A 
ATOM      8  C   UNL     1       2.596   4.726  20.028  0.00  0.00    +0.000 A 
ATOM      9  O   UNL     1       3.392   5.713  19.533  0.00  0.00    +0.000 OA
ENDROOT
BRANCH   1  10
ATOM     10  C   UNL     1       3.965   6.768  17.431  0.00  0.00    +0.000 C 
BRANCH  10  14
ATOM     11  O   UNL     1       7.935   4.504  16.499  0.00  0.00    +0.000 OA
ATOM     12  S   UNL     1       6.630   4.455  15.765  0.00  0.00    +0.000 S 
ATOM     13  N   UNL     1       5.404   4.772  16.828  0.00  0.00    +0.000 N 
ATOM     14  C   UNL     1       4.959   6.039  16.543  0.00  0.00    +0.000 C 
ATOM     15  N   UNL     1       5.429   6.650  15.488  0.00  0.00    +0.000 NA
ATOM     16  O   UNL     1       6.442   5.821  14.920  0.00  0.00    +0.000 OA
ATOM     17  H   UNL     1       5.565   4.575  17.810  0.00  0.00    +0.000 HD
ENDBRANCH  10  14
ENDBRANCH   1  10
TORSDOF 2
ENDMDL
MODEL 4
REMARK VINA RESULT:      -7.2      1.825      1.962
REMARK  Name = 
REMARK  2 active torsions:
REMARK  status: ('A' for Active; 'I' for Inactive)
REMARK    1  A    between atoms: C_4  and  C_5
REMARK    2  A    between atoms: C_5  and  C_6
REMARK                            x       y       z     vdW  Elec       q    Type
REMARK                         _______ _______ _______ _____ _____    ______ ____
ROOT
ATOM      1  C   UNL     1       5.223   4.666  18.968  0.00  0.00    +0.000 A 
ATOM      2  C   UNL     1       4.295   5.543  19.489  0.00  0.00    +0.000 A 
ATOM      3  C   UNL     1       3.130   4.780  19.777  0.00  0.00    +0.000 A 
ATOM      4  C   UNL     1       1.840   5.057  20.262  0.00  0.00    +0.000 A 
ATOM      5  C   UNL     1       0.924   3.999  20.367  0.00  0.00    +0.000 A 
ATOM      6  C   UNL     1       1.281   2.694  20.015  0.00  0.00    +0.000 A 
ATOM      7  C   UNL     1       2.565   2.397  19.549  0.00  0.00    +0.000 A 
ATOM      8  C   UNL     1       3.445   3.469  19.444  0.00  0.00    +0.000 A 
ATOM      9  O   UNL     1       4.721   3.394  18.976  0.00  0.00    +0.000 OA
ENDROOT
BRANCH   1  10
ATOM     10  C   UNL     1       6.576   4.830  18.381  0.00  0.00    +0.000 C 
BRANCH  10  14
ATOM     11  O   UNL     1       6.328   3.508  13.914  0.00  0.00    +0.000 OA
ATOM     12  S   UNL     1       5.927   4.812  14.532  0.00  0.00    +0.000 S 
ATOM     13  N   UNL     1       5.495   4.550  16.106  0.00  0.00    +0.000 N 
ATOM     14  C   UNL     1       6.511   5.055  16.879  0.00  0.00    +0.000 C 
ATOM     15  N   UNL     1       7.471   5.725  16.299  0.00  0.00    +0.000 NA
ATOM     16  O   UNL     1       7.254   5.664  14.890  0.00  0.00    +0.000 OA
ATOM     17  H   UNL     1       5.169   3.623  16.360  0.00  0.00    +0.000 HD
ENDBRANCH  10  14
ENDBRANCH   1  10
TORSDOF 2
ENDMDL
MODEL 5
REMARK VINA RESULT:      -7.2      1.366      1.992
REMARK  Name = 
REMARK  2 active torsions:
REMARK  status: ('A' for Active; 'I' for Inactive)
REMARK    1  A    between atoms: C_4  and  C_5
REMARK    2  A    between atoms: C_5  and  C_6
REMARK                            x       y       z     vdW  Elec       q    Type
REMARK                         _______ _______ _______ _____ _____    ______ ____
ROOT
ATOM      1  C   UNL     1       3.822   5.723  17.945  0.00  0.00    +0.000 A 
ATOM      2  C   UNL     1       3.161   4.647  17.389  0.00  0.00    +0.000 A 
ATOM      3  C   UNL     1       2.361   4.084  18.422  0.00  0.00    +0.000 A 
ATOM      4  C   UNL     1       1.509   2.973  18.541  0.00  0.00    +0.000 A 
ATOM      5  C   UNL     1       0.916   2.717  19.787  0.00  0.00    +0.000 A 
ATOM      6  C   UNL     1       1.149   3.549  20.885  0.00  0.00    +0.000 A 
ATOM      7  C   UNL     1       1.979   4.668  20.780  0.00  0.00    +0.000 A 
ATOM      8  C   UNL     1       2.562   4.888  19.537  0.00  0.00    +0.000 A 
ATOM      9  O   UNL     1       3.427   5.896  19.242  0.00  0.00    +0.000 OA
ENDROOT
BRANCH   1  10
ATOM     10  C   UNL     1       4.864   6.656  17.449  0.00  0.00    +0.000 C 
BRANCH  10  14
ATOM     11  O   UNL     1       6.216   3.659  14.139  0.00  0.00    +0.000 OA
ATOM     12  S   UNL     1       6.914   4.888  14.637  0.00  0.00    +0.000 S 
ATOM     13  N   UNL     1       5.784   5.959  15.193  0.00  0.00    +0.000 N 
ATOM     14  C   UNL     1       5.874   5.946  16.562  0.00  0.00    +0.000 C 
ATOM     15  N   UNL     1       6.844   5.273  17.124  0.00  0.00    +0.000 NA
ATOM     16  O   UNL     1       7.551   4.587  16.092  0.00  0.00    +0.000 OA
ATOM     17  H   UNL     1       4.844   5.896  14.814  0.00  0.00    +0.000 HD
ENDBRANCH  10  14
ENDBRANCH   1  10
TORSDOF 2
ENDMDL
MODEL 6
REMARK VINA RESULT:      -7.2      1.224      1.326
REMARK  Name = 
REMARK  2 active torsions:
REMARK  status: ('A' for Active; 'I' for Inactive)
REMARK    1  A    between atoms: C_4  and  C_5
REMARK    2  A    between atoms: C_5  and  C_6
REMARK                            x       y       z     vdW  Elec       q    Type
REMARK                         _______ _______ _______ _____ _____    ______ ____
ROOT
ATOM      1  C   UNL     1       3.966   5.832  18.208  0.00  0.00    +0.000 A 
ATOM      2  C   UNL     1       3.881   5.672  19.575  0.00  0.00    +0.000 A 
ATOM      3  C   UNL     1       2.869   4.700  19.809  0.00  0.00    +0.000 A 
ATOM      4  C   UNL     1       2.264   4.131  20.942  0.00  0.00    +0.000 A 
ATOM      5  C   UNL     1       1.230   3.201  20.752  0.00  0.00    +0.000 A 
ATOM      6  C   UNL     1       0.815   2.832  19.470  0.00  0.00    +0.000 A 
ATOM      7  C   UNL     1       1.418   3.374  18.331  0.00  0.00    +0.000 A 
ATOM      8  C   UNL     1       2.431   4.302  18.553  0.00  0.00    +0.000 A 
ATOM      9  O   UNL     1       3.111   4.968  17.582  0.00  0.00    +0.000 OA
ENDROOT
BRANCH   1  10
ATOM     10  C   UNL     1       4.732   6.748  17.327  0.00  0.00    +0.000 C 
BRANCH  10  14
ATOM     11  O   UNL     1       6.241   3.525  14.311  0.00  0.00    +0.000 OA
ATOM     12  S   UNL     1       6.887   4.818  14.706  0.00  0.00    +0.000 S 
ATOM     13  N   UNL     1       5.710   5.891  15.152  0.00  0.00    +0.000 N 
ATOM     14  C   UNL     1       5.780   6.001  16.518  0.00  0.00    +0.000 C 
ATOM     15  N   UNL     1       6.765   5.418  17.149  0.00  0.00    +0.000 NA
ATOM     16  O   UNL     1       7.513   4.670  16.190  0.00  0.00    +0.000 OA
ATOM     17  H   UNL     1       4.779   5.759  14.770  0.00  0.00    +0.000 HD
ENDBRANCH  10  14
ENDBRANCH   1  10
TORSDOF 2
ENDMDL
MODEL 7
REMARK VINA RESULT:      -7.2      1.684      2.134
REMARK  Name = 
REMARK  2 active torsions:
REMARK  status: ('A' for Active; 'I' for Inactive)
REMARK    1  A    between atoms: C_4  and  C_5
REMARK    2  A    between atoms: C_5  and  C_6
REMARK                            x       y       z     vdW  Elec       q    Type
REMARK                         _______ _______ _______ _____ _____    ______ ____
ROOT
ATOM      1  C   UNL     1       3.730   4.316  17.426  0.00  0.00    +0.000 A 
ATOM      2  C   UNL     1       2.470   4.722  17.813  0.00  0.00    +0.000 A 
ATOM      3  C   UNL     1       2.223   4.126  19.081  0.00  0.00    +0.000 A 
ATOM      4  C   UNL     1       1.145   4.087  19.982  0.00  0.00    +0.000 A 
ATOM      5  C   UNL     1       1.278   3.324  21.151  0.00  0.00    +0.000 A 
ATOM      6  C   UNL     1       2.456   2.627  21.431  0.00  0.00    +0.000 A 
ATOM      7  C   UNL     1       3.545   2.670  20.556  0.00  0.00    +0.000 A 
ATOM      8  C   UNL     1       3.378   3.423  19.400  0.00  0.00    +0.000 A 
ATOM      9  O   UNL     1       4.301   3.558  18.409  0.00  0.00    +0.000 OA
ENDROOT
BRANCH   1  10
ATOM     10  C   UNL     1       4.530   4.493  16.189  0.00  0.00    +0.000 C 
BRANCH  10  14
ATOM     11  O   UNL     1       7.031   8.267  17.313  0.00  0.00    +0.000 OA
ATOM     12  S   UNL     1       7.408   6.822  17.427  0.00  0.00    +0.000 S 
ATOM     13  N   UNL     1       6.035   5.925  17.640  0.00  0.00    +0.000 N 
ATOM     14  C   UNL     1       5.810   5.268  16.456  0.00  0.00    +0.000 C 
ATOM     15  N   UNL     1       6.713   5.339  15.514  0.00  0.00    +0.000 NA
ATOM     16  O   UNL     1       7.732   6.236  15.955  0.00  0.00    +0.000 OA
ATOM     17  H   UNL     1       5.227   6.385  18.047  0.00  0.00    +0.000 HD
ENDBRANCH  10  14
ENDBRANCH   1  10
TORSDOF 2
ENDMDL
MODEL 8
REMARK VINA RESULT:      -7.1      3.500      6.111
REMARK  Name = 
REMARK  2 active torsions:
REMARK  status: ('A' for Active; 'I' for Inactive)
REMARK    1  A    between atoms: C_4  and  C_5
REMARK    2  A    between atoms: C_5  and  C_6
REMARK                            x       y       z     vdW  Elec       q    Type
REMARK                         _______ _______ _______ _____ _____    ______ ____
ROOT
ATOM      1  C   UNL     1       4.665   3.886  17.686  0.00  0.00    +0.000 A 
ATOM      2  C   UNL     1       4.779   4.935  16.797  0.00  0.00    +0.000 A 
ATOM      3  C   UNL     1       5.871   5.730  17.244  0.00  0.00    +0.000 A 
ATOM      4  C   UNL     1       6.472   6.934  16.838  0.00  0.00    +0.000 A 
ATOM      5  C   UNL     1       7.541   7.436  17.595  0.00  0.00    +0.000 A 
ATOM      6  C   UNL     1       8.015   6.755  18.719  0.00  0.00    +0.000 A 
ATOM      7  C   UNL     1       7.442   5.547  19.127  0.00  0.00    +0.000 A 
ATOM      8  C   UNL     1       6.376   5.082  18.364  0.00  0.00    +0.000 A 
ATOM      9  O   UNL     1       5.662   3.952  18.618  0.00  0.00    +0.000 OA
ENDROOT
BRANCH   1  10
ATOM     10  C   UNL     1       3.689   2.781  17.850  0.00  0.00    +0.000 C 
BRANCH  10  14
ATOM     11  O   UNL     1       1.952   2.690  22.179  0.00  0.00    +0.000 OA
ATOM     12  S   UNL     1       1.679   3.667  21.076  0.00  0.00    +0.000 S 
ATOM     13  N   UNL     1       3.004   3.747  20.090  0.00  0.00    +0.000 N 
ATOM     14  C   UNL     1       2.667   3.092  18.931  0.00  0.00    +0.000 C 
ATOM     15  N   UNL     1       1.433   2.695  18.767  0.00  0.00    +0.000 NA
ATOM     16  O   UNL     1       0.723   2.973  19.972  0.00  0.00    +0.000 OA
ATOM     17  H   UNL     1       3.906   3.503  20.486  0.00  0.00    +0.000 HD
ENDBRANCH  10  14
ENDBRANCH   1  10
TORSDOF 2
ENDMDL
MODEL 9
REMARK VINA RESULT:      -7.1      1.175      1.751
REMARK  Name = 
REMARK  2 active torsions:
REMARK  status: ('A' for Active; 'I' for Inactive)
REMARK    1  A    between atoms: C_4  and  C_5
REMARK    2  A    between atoms: C_5  and  C_6
REMARK                            x       y       z     vdW  Elec       q    Type
REMARK                         _______ _______ _______ _____ _____    ______ ____
ROOT
ATOM      1  C   UNL     1       3.095   5.867  18.153  0.00  0.00    +0.000 A 
ATOM      2  C   UNL     1       2.184   4.915  17.746  0.00  0.00    +0.000 A 
ATOM      3  C   UNL     1       1.808   4.188  18.909  0.00  0.00    +0.000 A 
ATOM      4  C   UNL     1       0.982   3.084  19.182  0.00  0.00    +0.000 A 
ATOM      5  C   UNL     1       0.904   2.619  20.503  0.00  0.00    +0.000 A 
ATOM      6  C   UNL     1       1.614   3.240  21.533  0.00  0.00    +0.000 A 
ATOM      7  C   UNL     1       2.426   4.350  21.283  0.00  0.00    +0.000 A 
ATOM      8  C   UNL     1       2.493   4.780  19.962  0.00  0.00    +0.000 A 
ATOM      9  O   UNL     1       3.254   5.813  19.510  0.00  0.00    +0.000 OA
ENDROOT
BRANCH   1  10
ATOM     10  C   UNL     1       3.933   6.860  17.436  0.00  0.00    +0.000 C 
BRANCH  10  14
ATOM     11  O   UNL     1       8.174   5.930  19.143  0.00  0.00    +0.000 OA
ATOM     12  S   UNL     1       7.519   5.392  17.908  0.00  0.00    +0.000 S 
ATOM     13  N   UNL     1       5.880   5.392  18.127  0.00  0.00    +0.000 N 
ATOM     14  C   UNL     1       5.384   6.413  17.355  0.00  0.00    +0.000 C 
ATOM     15  N   UNL     1       6.193   7.042  16.545  0.00  0.00    +0.000 NA
ATOM     16  O   UNL     1       7.509   6.537  16.766  0.00  0.00    +0.000 OA
ATOM     17  H   UNL     1       5.528   5.351  19.078  0.00  0.00    +0.000 HD
ENDBRANCH  10  14
ENDBRANCH   1  10
TORSDOF 2
ENDMDL
