MODEL 1
REMARK VINA RESULT:      -5.6      0.000      0.000
REMARK  Name = 
REMARK  5 active torsions:
REMARK  status: ('A' for Active; 'I' for Inactive)
REMARK    1  A    between atoms: N_1  and  C_2
REMARK    2  A    between atoms: C_2  and  C_3
REMARK    3  A    between atoms: C_2  and  P_9
REMARK    4  A    between atoms: P_9  and  O_11
REMARK    5  A    between atoms: P_9  and  O_12
REMARK                            x       y       z     vdW  Elec       q    Type
REMARK                         _______ _______ _______ _____ _____    ______ ____
ROOT
ATOM      1  C   UNL     1       5.686   4.833  17.462  0.00  0.00    +0.000 C 
ENDROOT
BRANCH   1   2
ATOM      2  C   UNL     1       4.785   4.203  18.577  0.00  0.00    +0.000 C 
ATOM      3  C   UNL     1       3.869   5.243  19.270  0.00  0.00    +0.000 C 
ATOM      4  C   UNL     1       2.681   5.689  18.418  0.00  0.00    +0.000 C 
ATOM      5  C   UNL     1       1.884   4.509  17.864  0.00  0.00    +0.000 C 
ATOM      6  C   UNL     1       2.775   3.476  17.182  0.00  0.00    +0.000 C 
ATOM      7  C   UNL     1       3.906   3.030  18.106  0.00  0.00    +0.000 C 
ENDBRANCH   1   2
BRANCH   1   8
ATOM      8  N   UNL     1       6.277   3.809  16.567  0.00  0.00    +0.000 NA
ATOM      9  H   UNL     1       5.584   3.148  16.246  0.00  0.00    +0.000 HD
ATOM     10  H   UNL     1       6.938   3.274  17.148  0.00  0.00    +0.000 HD
ENDBRANCH   1   8
BRANCH   1  11
ATOM     11  P   UNL     1       7.025   5.858  18.174  0.00  0.00    +0.000 P 
ATOM     12  O   UNL     1       7.889   4.630  18.495  0.00  0.00    +0.000 OA
BRANCH  11  13
ATOM     13  O   UNL     1       7.520   6.402  16.711  0.00  0.00    +0.000 OA
ATOM     14  H   UNL     1       8.471   6.277  16.547  0.00  0.00    +0.000 HD
ENDBRANCH  11  13
BRANCH  11  15
ATOM     15  O   UNL     1       8.290   6.827  18.847  0.00  0.00    +0.000 OA
ATOM     16  H   UNL     1       8.603   7.332  18.064  0.00  0.00    +0.000 HD
ENDBRANCH  11  15
ENDBRANCH   1  11
TORSDOF 5
ENDMDL
MODEL 2
REMARK VINA RESULT:      -5.6      1.583      2.368
REMARK  Name = 
REMARK  5 active torsions:
REMARK  status: ('A' for Active; 'I' for Inactive)
REMARK    1  A    between atoms: N_1  and  C_2
REMARK    2  A    between atoms: C_2  and  C_3
REMARK    3  A    between atoms: C_2  and  P_9
REMARK    4  A    between atoms: P_9  and  O_11
REMARK    5  A    between atoms: P_9  and  O_12
REMARK                            x       y       z     vdW  Elec       q    Type
REMARK                         _______ _______ _______ _____ _____    ______ ____
ROOT
ATOM      1  C   UNL     1       6.054   4.889  18.574  0.00  0.00    +0.000 C 
ENDROOT
BRANCH   1   2
ATOM      2  C   UNL     1       4.604   5.478  18.609  0.00  0.00    +0.000 C 
ATOM      3  C   UNL     1       3.799   5.179  17.320  0.00  0.00    +0.000 C 
ATOM      4  C   UNL     1       3.318   3.733  17.210  0.00  0.00    +0.000 C 
ATOM      5  C   UNL     1       2.578   3.266  18.463  0.00  0.00    +0.000 C 
ATOM      6  C   UNL     1       3.358   3.559  19.740  0.00  0.00    +0.000 C 
ATOM      7  C   UNL     1       3.758   5.031  19.816  0.00  0.00    +0.000 C 
ENDBRANCH   1   2
BRANCH   1   8
ATOM      8  N   UNL     1       6.896   5.390  19.687  0.00  0.00    +0.000 NA
ATOM      9  H   UNL     1       6.937   6.399  19.700  0.00  0.00    +0.000 HD
ATOM     10  H   UNL     1       7.852   5.065  19.486  0.00  0.00    +0.000 HD
ENDBRANCH   1   8
BRANCH   1  11
ATOM     11  P   UNL     1       6.886   5.238  16.982  0.00  0.00    +0.000 P 
ATOM     12  O   UNL     1       7.436   6.580  17.484  0.00  0.00    +0.000 OA
BRANCH  11  13
ATOM     13  O   UNL     1       8.063   4.130  17.241  0.00  0.00    +0.000 OA
ATOM     14  H   UNL     1       8.813   4.202  16.625  0.00  0.00    +0.000 HD
ENDBRANCH  11  13
BRANCH  11  15
ATOM     15  O   UNL     1       7.672   5.568  15.477  0.00  0.00    +0.000 OA
ATOM     16  H   UNL     1       8.419   6.143  15.754  0.00  0.00    +0.000 HD
ENDBRANCH  11  15
ENDBRANCH   1  11
TORSDOF 5
ENDMDL
MODEL 3
REMARK VINA RESULT:      -5.6      1.221      1.364
REMARK  Name = 
REMARK  5 active torsions:
REMARK  status: ('A' for Active; 'I' for Inactive)
REMARK    1  A    between atoms: N_1  and  C_2
REMARK    2  A    between atoms: C_2  and  C_3
REMARK    3  A    between atoms: C_2  and  P_9
REMARK    4  A    between atoms: P_9  and  O_11
REMARK    5  A    between atoms: P_9  and  O_12
REMARK                            x       y       z     vdW  Elec       q    Type
REMARK                         _______ _______ _______ _____ _____    ______ ____
ROOT
ATOM      1  C   UNL     1       5.237   4.498  16.668  0.00  0.00    +0.000 C 
ENDROOT
BRANCH   1   2
ATOM      2  C   UNL     1       4.627   4.164  18.071  0.00  0.00    +0.000 C 
ATOM      3  C   UNL     1       3.802   5.334  18.663  0.00  0.00    +0.000 C 
ATOM      4  C   UNL     1       2.438   5.528  18.002  0.00  0.00    +0.000 C 
ATOM      5  C   UNL     1       1.628   4.234  17.943  0.00  0.00    +0.000 C 
ATOM      6  C   UNL     1       2.430   3.073  17.366  0.00  0.00    +0.000 C 
ATOM      7  C   UNL     1       3.754   2.897  18.107  0.00  0.00    +0.000 C 
ENDBRANCH   1   2
BRANCH   1   8
ATOM      8  N   UNL     1       5.937   3.338  16.065  0.00  0.00    +0.000 NA
ATOM      9  H   UNL     1       5.410   2.483  16.176  0.00  0.00    +0.000 HD
ATOM     10  H   UNL     1       6.803   3.215  16.610  0.00  0.00    +0.000 HD
ENDBRANCH   1   8
BRANCH   1  11
ATOM     11  P   UNL     1       6.386   5.920  16.751  0.00  0.00    +0.000 P 
ATOM     12  O   UNL     1       7.479   5.172  15.975  0.00  0.00    +0.000 OA
BRANCH  11  13
ATOM     13  O   UNL     1       5.547   6.790  15.647  0.00  0.00    +0.000 OA
ATOM     14  H   UNL     1       4.604   6.555  15.597  0.00  0.00    +0.000 HD
ENDBRANCH  11  13
BRANCH  11  15
ATOM     15  O   UNL     1       7.472   7.264  16.831  0.00  0.00    +0.000 OA
ATOM     16  H   UNL     1       6.981   7.957  16.335  0.00  0.00    +0.000 HD
ENDBRANCH  11  15
ENDBRANCH   1  11
TORSDOF 5
ENDMDL
MODEL 4
REMARK VINA RESULT:      -5.5      1.941      2.326
REMARK  Name = 
REMARK  5 active torsions:
REMARK  status: ('A' for Active; 'I' for Inactive)
REMARK    1  A    between atoms: N_1  and  C_2
REMARK    2  A    between atoms: C_2  and  C_3
REMARK    3  A    between atoms: C_2  and  P_9
REMARK    4  A    between atoms: P_9  and  O_11
REMARK    5  A    between atoms: P_9  and  O_12
REMARK                            x       y       z     vdW  Elec       q    Type
REMARK                         _______ _______ _______ _____ _____    ______ ____
ROOT
ATOM      1  C   UNL     1       4.521   3.770  18.863  0.00  0.00    +0.000 C 
ENDROOT
BRANCH   1   2
ATOM      2  C   UNL     1       3.275   4.369  19.597  0.00  0.00    +0.000 C 
ATOM      3  C   UNL     1       2.248   5.000  18.623  0.00  0.00    +0.000 C 
ATOM      4  C   UNL     1       1.424   3.977  17.842  0.00  0.00    +0.000 C 
ATOM      5  C   UNL     1       0.779   2.931  18.749  0.00  0.00    +0.000 C 
ATOM      6  C   UNL     1       1.779   2.305  19.715  0.00  0.00    +0.000 C 
ATOM      7  C   UNL     1       2.526   3.377  20.505  0.00  0.00    +0.000 C 
ENDBRANCH   1   2
BRANCH   1   8
ATOM      8  N   UNL     1       5.199   2.721  19.663  0.00  0.00    +0.000 NA
ATOM      9  H   UNL     1       4.628   2.415  20.439  0.00  0.00    +0.000 HD
ATOM     10  H   UNL     1       6.028   3.172  20.076  0.00  0.00    +0.000 HD
ENDBRANCH   1   8
BRANCH   1  11
ATOM     11  P   UNL     1       5.733   5.068  18.419  0.00  0.00    +0.000 P 
ATOM     12  O   UNL     1       6.406   5.008  19.797  0.00  0.00    +0.000 OA
BRANCH  11  13
ATOM     13  O   UNL     1       6.590   4.072  17.442  0.00  0.00    +0.000 OA
ATOM     14  H   UNL     1       6.094   3.290  17.144  0.00  0.00    +0.000 HD
ENDBRANCH  11  13
BRANCH  11  15
ATOM     15  O   UNL     1       6.877   6.295  17.999  0.00  0.00    +0.000 OA
ATOM     16  H   UNL     1       6.296   7.061  17.799  0.00  0.00    +0.000 HD
ENDBRANCH  11  15
ENDBRANCH   1  11
TORSDOF 5
ENDMDL
MODEL 5
REMARK VINA RESULT:      -5.5      4.195      4.768
REMARK  Name = 
REMARK  5 active torsions:
REMARK  status: ('A' for Active; 'I' for Inactive)
REMARK    1  A    between atoms: N_1  and  C_2
REMARK    2  A    between atoms: C_2  and  C_3
REMARK    3  A    between atoms: C_2  and  P_9
REMARK    4  A    between atoms: P_9  and  O_11
REMARK    5  A    between atoms: P_9  and  O_12
REMARK                            x       y       z     vdW  Elec       q    Type
REMARK                         _______ _______ _______ _____ _____    ______ ____
ROOT
ATOM      1  C   UNL     1       3.849   3.427  19.560  0.00  0.00    +0.000 C 
ENDROOT
BRANCH   1   2
ATOM      2  C   UNL     1       3.576   3.735  18.049  0.00  0.00    +0.000 C 
ATOM      3  C   UNL     1       2.459   4.788  17.841  0.00  0.00    +0.000 C 
ATOM      4  C   UNL     1       2.889   6.219  18.160  0.00  0.00    +0.000 C 
ATOM      5  C   UNL     1       4.183   6.614  17.449  0.00  0.00    +0.000 C 
ATOM      6  C   UNL     1       5.289   5.583  17.643  0.00  0.00    +0.000 C 
ATOM      7  C   UNL     1       4.814   4.185  17.252  0.00  0.00    +0.000 C 
ENDBRANCH   1   2
BRANCH   1   8
ATOM      8  N   UNL     1       4.771   2.280  19.746  0.00  0.00    +0.000 NA
ATOM      9  H   UNL     1       4.322   1.512  20.224  0.00  0.00    +0.000 HD
ATOM     10  H   UNL     1       5.515   2.615  20.375  0.00  0.00    +0.000 HD
ENDBRANCH   1   8
BRANCH   1  11
ATOM     11  P   UNL     1       2.297   3.109  20.476  0.00  0.00    +0.000 P 
ATOM     12  O   UNL     1       1.931   1.917  19.581  0.00  0.00    +0.000 OA
BRANCH  11  13
ATOM     13  O   UNL     1       3.076   2.489  21.777  0.00  0.00    +0.000 OA
ATOM     14  H   UNL     1       3.221   3.133  22.492  0.00  0.00    +0.000 HD
ENDBRANCH  11  13
BRANCH  11  15
ATOM     15  O   UNL     1       0.830   2.809  21.343  0.00  0.00    +0.000 OA
ATOM     16  H   UNL     1       0.569   3.713  21.626  0.00  0.00    +0.000 HD
ENDBRANCH  11  15
ENDBRANCH   1  11
TORSDOF 5
ENDMDL
MODEL 6
REMARK VINA RESULT:      -5.4      2.426      3.335
REMARK  Name = 
REMARK  5 active torsions:
REMARK  status: ('A' for Active; 'I' for Inactive)
REMARK    1  A    between atoms: N_1  and  C_2
REMARK    2  A    between atoms: C_2  and  C_3
REMARK    3  A    between atoms: C_2  and  P_9
REMARK    4  A    between atoms: P_9  and  O_11
REMARK    5  A    between atoms: P_9  and  O_12
REMARK                            x       y       z     vdW  Elec       q    Type
REMARK                         _______ _______ _______ _____ _____    ______ ____
ROOT
ATOM      1  C   UNL     1       4.114   4.497  19.011  0.00  0.00    +0.000 C 
ENDROOT
BRANCH   1   2
ATOM      2  C   UNL     1       2.648   4.957  18.707  0.00  0.00    +0.000 C 
ATOM      3  C   UNL     1       1.861   3.934  17.849  0.00  0.00    +0.000 C 
ATOM      4  C   UNL     1       1.420   2.690  18.618  0.00  0.00    +0.000 C 
ATOM      5  C   UNL     1       0.683   3.032  19.913  0.00  0.00    +0.000 C 
ATOM      6  C   UNL     1       1.446   4.041  20.764  0.00  0.00    +0.000 C 
ATOM      7  C   UNL     1       1.806   5.285  19.953  0.00  0.00    +0.000 C 
ENDBRANCH   1   2
BRANCH   1   8
ATOM      8  N   UNL     1       4.898   5.539  19.716  0.00  0.00    +0.000 NA
ATOM      9  H   UNL     1       4.695   6.464  19.364  0.00  0.00    +0.000 HD
ATOM     10  H   UNL     1       5.885   5.354  19.486  0.00  0.00    +0.000 HD
ENDBRANCH   1   8
BRANCH   1  11
ATOM     11  P   UNL     1       4.997   4.004  17.486  0.00  0.00    +0.000 P 
ATOM     12  O   UNL     1       4.849   5.400  16.865  0.00  0.00    +0.000 OA
BRANCH  11  13
ATOM     13  O   UNL     1       6.459   3.978  18.223  0.00  0.00    +0.000 OA
ATOM     14  H   UNL     1       6.483   3.433  19.029  0.00  0.00    +0.000 HD
ENDBRANCH  11  13
BRANCH  11  15
ATOM     15  O   UNL     1       5.832   3.537  16.045  0.00  0.00    +0.000 OA
ATOM     16  H   UNL     1       5.753   4.343  15.488  0.00  0.00    +0.000 HD
ENDBRANCH  11  15
ENDBRANCH   1  11
TORSDOF 5
ENDMDL
MODEL 7
REMARK VINA RESULT:      -5.4      2.332      3.173
REMARK  Name = 
REMARK  5 active torsions:
REMARK  status: ('A' for Active; 'I' for Inactive)
REMARK    1  A    between atoms: N_1  and  C_2
REMARK    2  A    between atoms: C_2  and  C_3
REMARK    3  A    between atoms: C_2  and  P_9
REMARK    4  A    between atoms: P_9  and  O_11
REMARK    5  A    between atoms: P_9  and  O_12
REMARK                            x       y       z     vdW  Elec       q    Type
REMARK                         _______ _______ _______ _____ _____    ______ ____
ROOT
ATOM      1  C   UNL     1       4.250   3.678  18.158  0.00  0.00    +0.000 C 
ENDROOT
BRANCH   1   2
ATOM      2  C   UNL     1       3.076   4.611  18.608  0.00  0.00    +0.000 C 
ATOM      3  C   UNL     1       1.715   4.210  17.987  0.00  0.00    +0.000 C 
ATOM      4  C   UNL     1       1.095   2.959  18.609  0.00  0.00    +0.000 C 
ATOM      5  C   UNL     1       1.023   3.039  20.133  0.00  0.00    +0.000 C 
ATOM      6  C   UNL     1       2.356   3.437  20.756  0.00  0.00    +0.000 C 
ATOM      7  C   UNL     1       2.893   4.724  20.132  0.00  0.00    +0.000 C 
ENDBRANCH   1   2
BRANCH   1   8
ATOM      8  N   UNL     1       5.364   3.657  19.137  0.00  0.00    +0.000 NA
ATOM      9  H   UNL     1       5.601   4.587  19.454  0.00  0.00    +0.000 HD
ATOM     10  H   UNL     1       6.186   3.309  18.624  0.00  0.00    +0.000 HD
ENDBRANCH   1   8
BRANCH   1  11
ATOM     11  P   UNL     1       4.900   4.153  16.515  0.00  0.00    +0.000 P 
ATOM     12  O   UNL     1       4.639   5.644  16.765  0.00  0.00    +0.000 OA
BRANCH  11  13
ATOM     13  O   UNL     1       6.457   3.878  16.941  0.00  0.00    +0.000 OA
ATOM     14  H   UNL     1       6.876   4.625  17.402  0.00  0.00    +0.000 HD
ENDBRANCH  11  13
BRANCH  11  15
ATOM     15  O   UNL     1       5.515   4.601  14.961  0.00  0.00    +0.000 OA
ATOM     16  H   UNL     1       6.448   4.296  15.011  0.00  0.00    +0.000 HD
ENDBRANCH  11  15
ENDBRANCH   1  11
TORSDOF 5
ENDMDL
MODEL 8
REMARK VINA RESULT:      -5.4      3.589      4.644
REMARK  Name = 
REMARK  5 active torsions:
REMARK  status: ('A' for Active; 'I' for Inactive)
REMARK    1  A    between atoms: N_1  and  C_2
REMARK    2  A    between atoms: C_2  and  C_3
REMARK    3  A    between atoms: C_2  and  P_9
REMARK    4  A    between atoms: P_9  and  O_11
REMARK    5  A    between atoms: P_9  and  O_12
REMARK                            x       y       z     vdW  Elec       q    Type
REMARK                         _______ _______ _______ _____ _____    ______ ____
ROOT
ATOM      1  C   UNL     1       4.945   4.245  18.438  0.00  0.00    +0.000 C 
ENDROOT
BRANCH   1   2
ATOM      2  C   UNL     1       5.964   4.467  17.270  0.00  0.00    +0.000 C 
ATOM      3  C   UNL     1       5.598   5.675  16.373  0.00  0.00    +0.000 C 
ATOM      4  C   UNL     1       5.882   7.033  17.015  0.00  0.00    +0.000 C 
ATOM      5  C   UNL     1       7.307   7.137  17.556  0.00  0.00    +0.000 C 
ATOM      6  C   UNL     1       7.681   5.951  18.438  0.00  0.00    +0.000 C 
ATOM      7  C   UNL     1       7.428   4.628  17.718  0.00  0.00    +0.000 C 
ENDBRANCH   1   2
BRANCH   1   8
ATOM      8  N   UNL     1       5.352   3.141  19.342  0.00  0.00    +0.000 NA
ATOM      9  H   UNL     1       4.581   2.820  19.910  0.00  0.00    +0.000 HD
ATOM     10  H   UNL     1       6.040   3.548  19.992  0.00  0.00    +0.000 HD
ENDBRANCH   1   8
BRANCH   1  11
ATOM     11  P   UNL     1       3.257   3.919  17.810  0.00  0.00    +0.000 P 
ATOM     12  O   UNL     1       3.512   2.409  17.706  0.00  0.00    +0.000 OA
BRANCH  11  13
ATOM     13  O   UNL     1       2.559   4.171  19.269  0.00  0.00    +0.000 OA
ATOM     14  H   UNL     1       1.713   3.704  19.386  0.00  0.00    +0.000 HD
ENDBRANCH  11  13
BRANCH  11  15
ATOM     15  O   UNL     1       1.662   3.613  17.216  0.00  0.00    +0.000 OA
ATOM     16  H   UNL     1       1.693   4.016  16.320  0.00  0.00    +0.000 HD
ENDBRANCH  11  15
ENDBRANCH   1  11
TORSDOF 5
ENDMDL
MODEL 9
REMARK VINA RESULT:      -5.4      1.807      2.450
REMARK  Name = 
REMARK  5 active torsions:
REMARK  status: ('A' for Active; 'I' for Inactive)
REMARK    1  A    between atoms: N_1  and  C_2
REMARK    2  A    between atoms: C_2  and  C_3
REMARK    3  A    between atoms: C_2  and  P_9
REMARK    4  A    between atoms: P_9  and  O_11
REMARK    5  A    between atoms: P_9  and  O_12
REMARK                            x       y       z     vdW  Elec       q    Type
REMARK                         _______ _______ _______ _____ _____    ______ ____
ROOT
ATOM      1  C   UNL     1       4.664   3.914  18.261  0.00  0.00    +0.000 C 
ENDROOT
BRANCH   1   2
ATOM      2  C   UNL     1       3.585   4.957  18.709  0.00  0.00    +0.000 C 
ATOM      3  C   UNL     1       2.314   4.926  17.824  0.00  0.00    +0.000 C 
ATOM      4  C   UNL     1       1.407   3.724  18.084  0.00  0.00    +0.000 C 
ATOM      5  C   UNL     1       1.073   3.551  19.565  0.00  0.00    +0.000 C 
ATOM      6  C   UNL     1       2.317   3.583  20.446  0.00  0.00    +0.000 C 
ATOM      7  C   UNL     1       3.148   4.837  20.180  0.00  0.00    +0.000 C 
ENDBRANCH   1   2
BRANCH   1   8
ATOM      8  N   UNL     1       5.266   3.194  19.410  0.00  0.00    +0.000 NA
ATOM      9  H   UNL     1       5.085   2.202  19.366  0.00  0.00    +0.000 HD
ATOM     10  H   UNL     1       4.778   3.540  20.248  0.00  0.00    +0.000 HD
ENDBRANCH   1   8
BRANCH   1  11
ATOM     11  P   UNL     1       5.993   4.697  17.276  0.00  0.00    +0.000 P 
ATOM     12  O   UNL     1       7.060   4.376  18.330  0.00  0.00    +0.000 OA
BRANCH  11  13
ATOM     13  O   UNL     1       6.038   3.477  16.185  0.00  0.00    +0.000 OA
ATOM     14  H   UNL     1       5.538   3.659  15.370  0.00  0.00    +0.000 HD
ENDBRANCH  11  13
BRANCH  11  15
ATOM     15  O   UNL     1       7.247   5.438  16.344  0.00  0.00    +0.000 OA
ATOM     16  H   UNL     1       7.378   4.788  15.618  0.00  0.00    +0.000 HD
ENDBRANCH  11  15
ENDBRANCH   1  11
TORSDOF 5
ENDMDL
