MODEL 1
REMARK VINA RESULT:      -8.2      0.000      0.000
REMARK  Name = 
REMARK  8 active torsions:
REMARK  status: ('A' for Active; 'I' for Inactive)
REMARK    1  A    between atoms: C_1  and  O_2
REMARK    2  A    between atoms: O_2  and  C_3
REMARK    3  A    between atoms: C_3  and  C_4
REMARK    4  A    between atoms: C_4  and  N_5
REMARK    5  A    between atoms: N_5  and  C_6
REMARK    6  A    between atoms: N_5  and  S_20
REMARK    7  A    between atoms: C_9  and  C_10
REMARK    8  A    between atoms: S_20  and  C_21
REMARK                            x       y       z     vdW  Elec       q    Type
REMARK                         _______ _______ _______ _____ _____    ______ ____
ROOT
ATOM      1  C   UNL     1       4.802   5.048  17.752  0.00  0.00    +0.000 A 
ATOM      2  C   UNL     1       4.167   6.245  17.344  0.00  0.00    +0.000 A 
ATOM      3 CL   UNL     1       4.557   6.940  15.797  0.00  0.00    +0.000 Cl
ATOM      4  C   UNL     1       3.193   6.848  18.160  0.00  0.00    +0.000 A 
ATOM      5  C   UNL     1       2.581   8.191  17.863  0.00  0.00    +0.000 C 
ATOM      6  C   UNL     1       2.751   6.171  19.309  0.00  0.00    +0.000 A 
ATOM      7  C   UNL     1       3.285   4.933  19.651  0.00  0.00    +0.000 A 
ATOM      8  N   UNL     1       2.754   4.245  20.743  0.00  0.00    +0.000 N 
ATOM      9  C   UNL     1       3.166   2.989  21.128  0.00  0.00    +0.000 A 
ATOM     10  O   UNL     1       2.608   2.381  22.028  0.00  0.00    +0.000 OA
ATOM     11  C   UNL     1       4.370   2.398  20.358  0.00  0.00    +0.000 A 
ATOM     12  O   UNL     1       4.859   1.327  20.686  0.00  0.00    +0.000 OA
ATOM     13  N   UNL     1       4.863   3.136  19.299  0.00  0.00    +0.000 N 
ATOM     14  C   UNL     1       4.328   4.372  18.898  0.00  0.00    +0.000 A 
ATOM     15  H   UNL     1       1.959   4.620  21.259  0.00  0.00    +0.000 HD
ATOM     16  H   UNL     1       5.606   2.699  18.764  0.00  0.00    +0.000 HD
ENDROOT
BRANCH   1  17
ATOM     17  N   UNL     1       5.919   4.546  16.977  0.00  0.00    +0.000 N 
BRANCH  17  18
ATOM     18  S   UNL     1       7.423   5.241  17.268  0.00  0.00    +0.000 S 
ATOM     19  C   UNL     1       7.231   5.842  18.939  0.00  0.00    +0.000 C 
ATOM     20  O   UNL     1       8.388   4.162  17.273  0.00  0.00    +0.000 OA
ATOM     21  O   UNL     1       7.596   6.389  16.403  0.00  0.00    +0.000 OA
ENDBRANCH  17  18
BRANCH  17  22
ATOM     22  C   UNL     1       5.640   3.909  15.663  0.00  0.00    +0.000 C 
BRANCH  22  23
ATOM     23  C   UNL     1       6.654   4.343  14.595  0.00  0.00    +0.000 C 
BRANCH  23  25
ATOM     24  C   UNL     1       7.120   4.291  12.284  0.00  0.00    +0.000 C 
ATOM     25  O   UNL     1       6.401   3.685  13.352  0.00  0.00    +0.000 OA
ENDBRANCH  23  25
ENDBRANCH  22  23
ENDBRANCH  17  22
ENDBRANCH   1  17
TORSDOF 5
ENDMDL
MODEL 2
REMARK VINA RESULT:      -8.1      0.981      1.174
REMARK  Name = 
REMARK  8 active torsions:
REMARK  status: ('A' for Active; 'I' for Inactive)
REMARK    1  A    between atoms: C_1  and  O_2
REMARK    2  A    between atoms: O_2  and  C_3
REMARK    3  A    between atoms: C_3  and  C_4
REMARK    4  A    between atoms: C_4  and  N_5
REMARK    5  A    between atoms: N_5  and  C_6
REMARK    6  A    between atoms: N_5  and  S_20
REMARK    7  A    between atoms: C_9  and  C_10
REMARK    8  A    between atoms: S_20  and  C_21
REMARK                            x       y       z     vdW  Elec       q    Type
REMARK                         _______ _______ _______ _____ _____    ______ ____
ROOT
ATOM      1  C   UNL     1       4.672   5.386  18.214  0.00  0.00    +0.000 A 
ATOM      2  C   UNL     1       3.957   6.535  17.801  0.00  0.00    +0.000 A 
ATOM      3 CL   UNL     1       4.452   7.385  16.366  0.00  0.00    +0.000 Cl
ATOM      4  C   UNL     1       2.824   6.964  18.517  0.00  0.00    +0.000 A 
ATOM      5  C   UNL     1       2.100   8.251  18.224  0.00  0.00    +0.000 C 
ATOM      6  C   UNL     1       2.325   6.157  19.552  0.00  0.00    +0.000 A 
ATOM      7  C   UNL     1       2.954   4.961  19.885  0.00  0.00    +0.000 A 
ATOM      8  N   UNL     1       2.376   4.139  20.851  0.00  0.00    +0.000 N 
ATOM      9  C   UNL     1       2.882   2.909  21.209  0.00  0.00    +0.000 A 
ATOM     10  O   UNL     1       2.292   2.176  21.988  0.00  0.00    +0.000 OA
ATOM     11  C   UNL     1       4.234   2.514  20.571  0.00  0.00    +0.000 A 
ATOM     12  O   UNL     1       4.801   1.480  20.894  0.00  0.00    +0.000 OA
ATOM     13  N   UNL     1       4.765   3.379  19.635  0.00  0.00    +0.000 N 
ATOM     14  C   UNL     1       4.143   4.577  19.243  0.00  0.00    +0.000 A 
ATOM     15  H   UNL     1       1.484   4.384  21.280  0.00  0.00    +0.000 HD
ATOM     16  H   UNL     1       5.615   3.069  19.177  0.00  0.00    +0.000 HD
ENDROOT
BRANCH   1  17
ATOM     17  N   UNL     1       5.929   5.070  17.565  0.00  0.00    +0.000 N 
BRANCH  17  18
ATOM     18  S   UNL     1       7.335   5.355  18.444  0.00  0.00    +0.000 S 
ATOM     19  C   UNL     1       7.773   7.002  17.910  0.00  0.00    +0.000 C 
ATOM     20  O   UNL     1       6.952   5.407  19.839  0.00  0.00    +0.000 OA
ATOM     21  O   UNL     1       8.373   4.454  17.991  0.00  0.00    +0.000 OA
ENDBRANCH  17  18
BRANCH  17  22
ATOM     22  C   UNL     1       5.975   5.058  16.079  0.00  0.00    +0.000 C 
BRANCH  22  23
ATOM     23  C   UNL     1       5.920   3.630  15.521  0.00  0.00    +0.000 C 
BRANCH  23  25
ATOM     24  C   UNL     1       7.042   4.787  13.800  0.00  0.00    +0.000 C 
ATOM     25  O   UNL     1       6.348   3.596  14.158  0.00  0.00    +0.000 OA
ENDBRANCH  23  25
ENDBRANCH  22  23
ENDBRANCH  17  22
ENDBRANCH   1  17
TORSDOF 5
ENDMDL
MODEL 3
REMARK VINA RESULT:      -8.0      1.552      1.659
REMARK  Name = 
REMARK  8 active torsions:
REMARK  status: ('A' for Active; 'I' for Inactive)
REMARK    1  A    between atoms: C_1  and  O_2
REMARK    2  A    between atoms: O_2  and  C_3
REMARK    3  A    between atoms: C_3  and  C_4
REMARK    4  A    between atoms: C_4  and  N_5
REMARK    5  A    between atoms: N_5  and  C_6
REMARK    6  A    between atoms: N_5  and  S_20
REMARK    7  A    between atoms: C_9  and  C_10
REMARK    8  A    between atoms: S_20  and  C_21
REMARK                            x       y       z     vdW  Elec       q    Type
REMARK                         _______ _______ _______ _____ _____    ______ ____
ROOT
ATOM      1  C   UNL     1       4.741   5.241  17.448  0.00  0.00    +0.000 A 
ATOM      2  C   UNL     1       4.268   6.566  17.302  0.00  0.00    +0.000 A 
ATOM      3 CL   UNL     1       5.201   7.714  16.384  0.00  0.00    +0.000 Cl
ATOM      4  C   UNL     1       3.031   6.946  17.853  0.00  0.00    +0.000 A 
ATOM      5  C   UNL     1       2.530   8.366  17.862  0.00  0.00    +0.000 C 
ATOM      6  C   UNL     1       2.205   5.961  18.418  0.00  0.00    +0.000 A 
ATOM      7  C   UNL     1       2.612   4.631  18.456  0.00  0.00    +0.000 A 
ATOM      8  N   UNL     1       1.727   3.665  18.935  0.00  0.00    +0.000 N 
ATOM      9  C   UNL     1       2.006   2.317  18.958  0.00  0.00    +0.000 A 
ATOM     10  O   UNL     1       1.166   1.495  19.293  0.00  0.00    +0.000 OA
ATOM     11  C   UNL     1       3.436   1.908  18.537  0.00  0.00    +0.000 A 
ATOM     12  O   UNL     1       3.801   0.743  18.608  0.00  0.00    +0.000 OA
ATOM     13  N   UNL     1       4.272   2.912  18.090  0.00  0.00    +0.000 N 
ATOM     14  C   UNL     1       3.887   4.261  18.000  0.00  0.00    +0.000 A 
ATOM     15  H   UNL     1       0.779   3.918  19.214  0.00  0.00    +0.000 HD
ATOM     16  H   UNL     1       5.181   2.614  17.753  0.00  0.00    +0.000 HD
ENDROOT
BRANCH   1  17
ATOM     17  N   UNL     1       6.091   4.926  17.023  0.00  0.00    +0.000 N 
BRANCH  17  18
ATOM     18  S   UNL     1       7.287   4.946  18.205  0.00  0.00    +0.000 S 
ATOM     19  C   UNL     1       7.807   6.654  18.171  0.00  0.00    +0.000 C 
ATOM     20  O   UNL     1       6.630   4.688  19.469  0.00  0.00    +0.000 OA
ATOM     21  O   UNL     1       8.405   4.136  17.769  0.00  0.00    +0.000 OA
ENDBRANCH  17  18
BRANCH  17  22
ATOM     22  C   UNL     1       6.454   5.145  15.599  0.00  0.00    +0.000 C 
BRANCH  22  23
ATOM     23  C   UNL     1       6.045   3.957  14.719  0.00  0.00    +0.000 C 
BRANCH  23  25
ATOM     24  C   UNL     1       5.911   3.368  12.439  0.00  0.00    +0.000 C 
ATOM     25  O   UNL     1       6.681   4.024  13.441  0.00  0.00    +0.000 OA
ENDBRANCH  23  25
ENDBRANCH  22  23
ENDBRANCH  17  22
ENDBRANCH   1  17
TORSDOF 5
ENDMDL
MODEL 4
REMARK VINA RESULT:      -7.6      2.591      5.668
REMARK  Name = 
REMARK  8 active torsions:
REMARK  status: ('A' for Active; 'I' for Inactive)
REMARK    1  A    between atoms: C_1  and  O_2
REMARK    2  A    between atoms: O_2  and  C_3
REMARK    3  A    between atoms: C_3  and  C_4
REMARK    4  A    between atoms: C_4  and  N_5
REMARK    5  A    between atoms: N_5  and  C_6
REMARK    6  A    between atoms: N_5  and  S_20
REMARK    7  A    between atoms: C_9  and  C_10
REMARK    8  A    between atoms: S_20  and  C_21
REMARK                            x       y       z     vdW  Elec       q    Type
REMARK                         _______ _______ _______ _____ _____    ______ ____
ROOT
ATOM      1  C   UNL     1       3.940   4.371  19.208  0.00  0.00    +0.000 A 
ATOM      2  C   UNL     1       2.921   5.181  19.763  0.00  0.00    +0.000 A 
ATOM      3 CL   UNL     1       1.847   4.512  20.958  0.00  0.00    +0.000 Cl
ATOM      4  C   UNL     1       2.804   6.532  19.390  0.00  0.00    +0.000 A 
ATOM      5  C   UNL     1       1.665   7.414  19.827  0.00  0.00    +0.000 C 
ATOM      6  C   UNL     1       3.796   7.104  18.577  0.00  0.00    +0.000 A 
ATOM      7  C   UNL     1       4.869   6.342  18.126  0.00  0.00    +0.000 A 
ATOM      8  N   UNL     1       5.885   6.966  17.403  0.00  0.00    +0.000 N 
ATOM      9  C   UNL     1       7.019   6.318  16.964  0.00  0.00    +0.000 A 
ATOM     10  O   UNL     1       7.931   6.922  16.420  0.00  0.00    +0.000 OA
ATOM     11  C   UNL     1       7.068   4.791  17.198  0.00  0.00    +0.000 A 
ATOM     12  O   UNL     1       7.994   4.120  16.767  0.00  0.00    +0.000 OA
ATOM     13  N   UNL     1       6.022   4.229  17.905  0.00  0.00    +0.000 N 
ATOM     14  C   UNL     1       4.940   4.969  18.411  0.00  0.00    +0.000 A 
ATOM     15  H   UNL     1       5.870   7.973  17.241  0.00  0.00    +0.000 HD
ATOM     16  H   UNL     1       6.107   3.239  18.108  0.00  0.00    +0.000 HD
ENDROOT
BRANCH   1  17
ATOM     17  N   UNL     1       3.929   2.947  19.477  0.00  0.00    +0.000 N 
BRANCH  17  18
ATOM     18  S   UNL     1       2.947   1.992  18.501  0.00  0.00    +0.000 S 
ATOM     19  C   UNL     1       2.468   3.146  17.224  0.00  0.00    +0.000 C 
ATOM     20  O   UNL     1       3.800   0.980  17.913  0.00  0.00    +0.000 OA
ATOM     21  O   UNL     1       1.754   1.624  19.234  0.00  0.00    +0.000 OA
ENDBRANCH  17  18
BRANCH  17  22
ATOM     22  C   UNL     1       4.291   2.481  20.842  0.00  0.00    +0.000 C 
BRANCH  22  23
ATOM     23  C   UNL     1       5.215   1.257  20.799  0.00  0.00    +0.000 C 
BRANCH  23  25
ATOM     24  C   UNL     1       6.388  -0.278  22.152  0.00  0.00    +0.000 C 
ATOM     25  O   UNL     1       5.813   1.023  22.075  0.00  0.00    +0.000 OA
ENDBRANCH  23  25
ENDBRANCH  22  23
ENDBRANCH  17  22
ENDBRANCH   1  17
TORSDOF 5
ENDMDL
MODEL 5
REMARK VINA RESULT:      -7.5      1.506      2.933
REMARK  Name = 
REMARK  8 active torsions:
REMARK  status: ('A' for Active; 'I' for Inactive)
REMARK    1  A    between atoms: C_1  and  O_2
REMARK    2  A    between atoms: O_2  and  C_3
REMARK    3  A    between atoms: C_3  and  C_4
REMARK    4  A    between atoms: C_4  and  N_5
REMARK    5  A    between atoms: N_5  and  C_6
REMARK    6  A    between atoms: N_5  and  S_20
REMARK    7  A    between atoms: C_9  and  C_10
REMARK    8  A    between atoms: S_20  and  C_21
REMARK                            x       y       z     vdW  Elec       q    Type
REMARK                         _______ _______ _______ _____ _____    ______ ____
ROOT
ATOM      1  C   UNL     1       4.789   5.754  18.036  0.00  0.00    +0.000 A 
ATOM      2  C   UNL     1       3.973   6.824  17.600  0.00  0.00    +0.000 A 
ATOM      3 CL   UNL     1       4.470   7.782  16.236  0.00  0.00    +0.000 Cl
ATOM      4  C   UNL     1       2.744   7.086  18.232  0.00  0.00    +0.000 A 
ATOM      5  C   UNL     1       1.893   8.288  17.920  0.00  0.00    +0.000 C 
ATOM      6  C   UNL     1       2.269   6.185  19.200  0.00  0.00    +0.000 A 
ATOM      7  C   UNL     1       3.012   5.061  19.547  0.00  0.00    +0.000 A 
ATOM      8  N   UNL     1       2.466   4.138  20.438  0.00  0.00    +0.000 N 
ATOM      9  C   UNL     1       3.089   2.964  20.800  0.00  0.00    +0.000 A 
ATOM     10  O   UNL     1       2.534   2.136  21.506  0.00  0.00    +0.000 OA
ATOM     11  C   UNL     1       4.525   2.759  20.263  0.00  0.00    +0.000 A 
ATOM     12  O   UNL     1       5.187   1.789  20.601  0.00  0.00    +0.000 OA
ATOM     13  N   UNL     1       5.016   3.718  19.399  0.00  0.00    +0.000 N 
ATOM     14  C   UNL     1       4.284   4.847  18.994  0.00  0.00    +0.000 A 
ATOM     15  H   UNL     1       1.520   4.257  20.799  0.00  0.00    +0.000 HD
ATOM     16  H   UNL     1       5.931   3.530  19.004  0.00  0.00    +0.000 HD
ENDROOT
BRANCH   1  17
ATOM     17  N   UNL     1       6.122   5.616  17.483  0.00  0.00    +0.000 N 
BRANCH  17  18
ATOM     18  S   UNL     1       6.367   4.365  16.386  0.00  0.00    +0.000 S 
ATOM     19  C   UNL     1       6.134   5.197  14.823  0.00  0.00    +0.000 C 
ATOM     20  O   UNL     1       7.757   3.976  16.500  0.00  0.00    +0.000 OA
ATOM     21  O   UNL     1       5.308   3.388  16.528  0.00  0.00    +0.000 OA
ENDBRANCH  17  18
BRANCH  17  22
ATOM     22  C   UNL     1       7.270   6.156  18.257  0.00  0.00    +0.000 C 
BRANCH  22  23
ATOM     23  C   UNL     1       7.771   7.486  17.677  0.00  0.00    +0.000 C 
BRANCH  23  25
ATOM     24  C   UNL     1       8.584   9.594  18.351  0.00  0.00    +0.000 C 
ATOM     25  O   UNL     1       8.552   8.200  18.637  0.00  0.00    +0.000 OA
ENDBRANCH  23  25
ENDBRANCH  22  23
ENDBRANCH  17  22
ENDBRANCH   1  17
TORSDOF 5
ENDMDL
MODEL 6
REMARK VINA RESULT:      -7.4      1.258      1.524
REMARK  Name = 
REMARK  8 active torsions:
REMARK  status: ('A' for Active; 'I' for Inactive)
REMARK    1  A    between atoms: C_1  and  O_2
REMARK    2  A    between atoms: O_2  and  C_3
REMARK    3  A    between atoms: C_3  and  C_4
REMARK    4  A    between atoms: C_4  and  N_5
REMARK    5  A    between atoms: N_5  and  C_6
REMARK    6  A    between atoms: N_5  and  S_20
REMARK    7  A    between atoms: C_9  and  C_10
REMARK    8  A    between atoms: S_20  and  C_21
REMARK                            x       y       z     vdW  Elec       q    Type
REMARK                         _______ _______ _______ _____ _____    ______ ____
ROOT
ATOM      1  C   UNL     1       4.252   5.646  18.426  0.00  0.00    +0.000 A 
ATOM      2  C   UNL     1       3.570   6.850  18.130  0.00  0.00    +0.000 A 
ATOM      3 CL   UNL     1       4.032   7.776  16.732  0.00  0.00    +0.000 Cl
ATOM      4  C   UNL     1       2.494   7.275  18.931  0.00  0.00    +0.000 A 
ATOM      5  C   UNL     1       1.816   8.608  18.766  0.00  0.00    +0.000 C 
ATOM      6  C   UNL     1       2.011   6.419  19.935  0.00  0.00    +0.000 A 
ATOM      7  C   UNL     1       2.601   5.177  20.152  0.00  0.00    +0.000 A 
ATOM      8  N   UNL     1       2.035   4.314  21.089  0.00  0.00    +0.000 N 
ATOM      9  C   UNL     1       2.501   3.042  21.336  0.00  0.00    +0.000 A 
ATOM     10  O   UNL     1       1.917   2.282  22.093  0.00  0.00    +0.000 OA
ATOM     11  C   UNL     1       3.801   2.636  20.603  0.00  0.00    +0.000 A 
ATOM     12  O   UNL     1       4.335   1.559  20.824  0.00  0.00    +0.000 OA
ATOM     13  N   UNL     1       4.323   3.542  19.701  0.00  0.00    +0.000 N 
ATOM     14  C   UNL     1       3.737   4.789  19.424  0.00  0.00    +0.000 A 
ATOM     15  H   UNL     1       1.177   4.565  21.580  0.00  0.00    +0.000 HD
ATOM     16  H   UNL     1       5.135   3.229  19.179  0.00  0.00    +0.000 HD
ENDROOT
BRANCH   1  17
ATOM     17  N   UNL     1       5.459   5.324  17.692  0.00  0.00    +0.000 N 
BRANCH  17  18
ATOM     18  S   UNL     1       6.923   5.711  18.424  0.00  0.00    +0.000 S 
ATOM     19  C   UNL     1       8.007   4.456  17.760  0.00  0.00    +0.000 C 
ATOM     20  O   UNL     1       7.327   6.997  17.896  0.00  0.00    +0.000 OA
ATOM     21  O   UNL     1       6.818   5.494  19.851  0.00  0.00    +0.000 OA
ENDBRANCH  17  18
BRANCH  17  22
ATOM     22  C   UNL     1       5.379   5.210  16.212  0.00  0.00    +0.000 C 
BRANCH  22  23
ATOM     23  C   UNL     1       5.435   3.747  15.751  0.00  0.00    +0.000 C 
BRANCH  23  25
ATOM     24  C   UNL     1       6.907   4.795  14.236  0.00  0.00    +0.000 C 
ATOM     25  O   UNL     1       6.141   3.628  14.514  0.00  0.00    +0.000 OA
ENDBRANCH  23  25
ENDBRANCH  22  23
ENDBRANCH  17  22
ENDBRANCH   1  17
TORSDOF 5
ENDMDL
MODEL 7
REMARK VINA RESULT:      -7.3      1.778      2.975
REMARK  Name = 
REMARK  8 active torsions:
REMARK  status: ('A' for Active; 'I' for Inactive)
REMARK    1  A    between atoms: C_1  and  O_2
REMARK    2  A    between atoms: O_2  and  C_3
REMARK    3  A    between atoms: C_3  and  C_4
REMARK    4  A    between atoms: C_4  and  N_5
REMARK    5  A    between atoms: N_5  and  C_6
REMARK    6  A    between atoms: N_5  and  S_20
REMARK    7  A    between atoms: C_9  and  C_10
REMARK    8  A    between atoms: S_20  and  C_21
REMARK                            x       y       z     vdW  Elec       q    Type
REMARK                         _______ _______ _______ _____ _____    ______ ____
ROOT
ATOM      1  C   UNL     1       4.190   5.967  18.417  0.00  0.00    +0.000 A 
ATOM      2  C   UNL     1       3.358   7.106  18.308  0.00  0.00    +0.000 A 
ATOM      3 CL   UNL     1       3.588   8.214  16.986  0.00  0.00    +0.000 Cl
ATOM      4  C   UNL     1       2.319   7.321  19.232  0.00  0.00    +0.000 A 
ATOM      5  C   UNL     1       1.489   8.576  19.266  0.00  0.00    +0.000 C 
ATOM      6  C   UNL     1       2.025   6.320  20.172  0.00  0.00    +0.000 A 
ATOM      7  C   UNL     1       2.763   5.141  20.207  0.00  0.00    +0.000 A 
ATOM      8  N   UNL     1       2.381   4.129  21.087  0.00  0.00    +0.000 N 
ATOM      9  C   UNL     1       3.003   2.902  21.157  0.00  0.00    +0.000 A 
ATOM     10  O   UNL     1       2.576   2.008  21.872  0.00  0.00    +0.000 OA
ATOM     11  C   UNL     1       4.267   2.726  20.284  0.00  0.00    +0.000 A 
ATOM     12  O   UNL     1       4.933   1.703  20.345  0.00  0.00    +0.000 OA
ATOM     13  N   UNL     1       4.604   3.771  19.447  0.00  0.00    +0.000 N 
ATOM     14  C   UNL     1       3.864   4.962  19.354  0.00  0.00    +0.000 A 
ATOM     15  H   UNL     1       1.549   4.228  21.668  0.00  0.00    +0.000 HD
ATOM     16  H   UNL     1       5.394   3.608  18.832  0.00  0.00    +0.000 HD
ENDROOT
BRANCH   1  17
ATOM     17  N   UNL     1       5.354   5.863  17.559  0.00  0.00    +0.000 N 
BRANCH  17  18
ATOM     18  S   UNL     1       5.199   4.922  16.174  0.00  0.00    +0.000 S 
ATOM     19  C   UNL     1       6.758   4.052  16.146  0.00  0.00    +0.000 C 
ATOM     20  O   UNL     1       4.141   3.968  16.434  0.00  0.00    +0.000 OA
ATOM     21  O   UNL     1       5.153   5.784  15.012  0.00  0.00    +0.000 OA
ENDBRANCH  17  18
BRANCH  17  22
ATOM     22  C   UNL     1       6.696   6.083  18.158  0.00  0.00    +0.000 C 
BRANCH  22  23
ATOM     23  C   UNL     1       7.407   7.290  17.530  0.00  0.00    +0.000 C 
BRANCH  23  25
ATOM     24  C   UNL     1       8.468   9.272  18.240  0.00  0.00    +0.000 C 
ATOM     25  O   UNL     1       8.336   7.870  18.447  0.00  0.00    +0.000 OA
ENDBRANCH  23  25
ENDBRANCH  22  23
ENDBRANCH  17  22
ENDBRANCH   1  17
TORSDOF 5
ENDMDL
MODEL 8
REMARK VINA RESULT:      -7.3      1.719      2.210
REMARK  Name = 
REMARK  8 active torsions:
REMARK  status: ('A' for Active; 'I' for Inactive)
REMARK    1  A    between atoms: C_1  and  O_2
REMARK    2  A    between atoms: O_2  and  C_3
REMARK    3  A    between atoms: C_3  and  C_4
REMARK    4  A    between atoms: C_4  and  N_5
REMARK    5  A    between atoms: N_5  and  C_6
REMARK    6  A    between atoms: N_5  and  S_20
REMARK    7  A    between atoms: C_9  and  C_10
REMARK    8  A    between atoms: S_20  and  C_21
REMARK                            x       y       z     vdW  Elec       q    Type
REMARK                         _______ _______ _______ _____ _____    ______ ____
ROOT
ATOM      1  C   UNL     1       4.478   5.344  18.374  0.00  0.00    +0.000 A 
ATOM      2  C   UNL     1       3.963   6.535  17.812  0.00  0.00    +0.000 A 
ATOM      3 CL   UNL     1       4.627   7.138  16.321  0.00  0.00    +0.000 Cl
ATOM      4  C   UNL     1       2.889   7.207  18.426  0.00  0.00    +0.000 A 
ATOM      5  C   UNL     1       2.384   8.549  17.969  0.00  0.00    +0.000 C 
ATOM      6  C   UNL     1       2.241   6.603  19.515  0.00  0.00    +0.000 A 
ATOM      7  C   UNL     1       2.666   5.369  19.998  0.00  0.00    +0.000 A 
ATOM      8  N   UNL     1       1.938   4.754  21.017  0.00  0.00    +0.000 N 
ATOM      9  C   UNL     1       2.236   3.508  21.523  0.00  0.00    +0.000 A 
ATOM     10  O   UNL     1       1.515   2.963  22.345  0.00  0.00    +0.000 OA
ATOM     11  C   UNL     1       3.528   2.845  20.992  0.00  0.00    +0.000 A 
ATOM     12  O   UNL     1       3.917   1.780  21.446  0.00  0.00    +0.000 OA
ATOM     13  N   UNL     1       4.215   3.513  19.997  0.00  0.00    +0.000 N 
ATOM     14  C   UNL     1       3.798   4.741  19.456  0.00  0.00    +0.000 A 
ATOM     15  H   UNL     1       1.083   5.177  21.376  0.00  0.00    +0.000 HD
ATOM     16  H   UNL     1       5.019   3.029  19.614  0.00  0.00    +0.000 HD
ENDROOT
BRANCH   1  17
ATOM     17  N   UNL     1       5.689   4.772  17.820  0.00  0.00    +0.000 N 
BRANCH  17  18
ATOM     18  S   UNL     1       7.144   5.241  18.520  0.00  0.00    +0.000 S 
ATOM     19  C   UNL     1       7.433   6.822  17.741  0.00  0.00    +0.000 C 
ATOM     20  O   UNL     1       6.879   5.459  19.927  0.00  0.00    +0.000 OA
ATOM     21  O   UNL     1       8.194   4.340  18.093  0.00  0.00    +0.000 OA
ENDBRANCH  17  18
BRANCH  17  22
ATOM     22  C   UNL     1       5.666   4.291  16.413  0.00  0.00    +0.000 C 
BRANCH  22  23
ATOM     23  C   UNL     1       4.407   3.465  16.116  0.00  0.00    +0.000 C 
BRANCH  23  25
ATOM     24  C   UNL     1       2.801   2.183  17.272  0.00  0.00    +0.000 C 
ATOM     25  O   UNL     1       4.184   2.489  17.135  0.00  0.00    +0.000 OA
ENDBRANCH  23  25
ENDBRANCH  22  23
ENDBRANCH  17  22
ENDBRANCH   1  17
TORSDOF 5
ENDMDL
MODEL 9
REMARK VINA RESULT:      -7.1      2.628      5.756
REMARK  Name = 
REMARK  8 active torsions:
REMARK  status: ('A' for Active; 'I' for Inactive)
REMARK    1  A    between atoms: C_1  and  O_2
REMARK    2  A    between atoms: O_2  and  C_3
REMARK    3  A    between atoms: C_3  and  C_4
REMARK    4  A    between atoms: C_4  and  N_5
REMARK    5  A    between atoms: N_5  and  C_6
REMARK    6  A    between atoms: N_5  and  S_20
REMARK    7  A    between atoms: C_9  and  C_10
REMARK    8  A    between atoms: S_20  and  C_21
REMARK                            x       y       z     vdW  Elec       q    Type
REMARK                         _______ _______ _______ _____ _____    ______ ____
ROOT
ATOM      1  C   UNL     1       3.135   5.024  18.592  0.00  0.00    +0.000 A 
ATOM      2  C   UNL     1       2.563   6.194  19.146  0.00  0.00    +0.000 A 
ATOM      3 CL   UNL     1       1.692   6.095  20.649  0.00  0.00    +0.000 Cl
ATOM      4  C   UNL     1       2.735   7.439  18.513  0.00  0.00    +0.000 A 
ATOM      5  C   UNL     1       2.040   8.697  18.961  0.00  0.00    +0.000 C 
ATOM      6  C   UNL     1       3.602   7.531  17.412  0.00  0.00    +0.000 A 
ATOM      7  C   UNL     1       4.265   6.403  16.936  0.00  0.00    +0.000 A 
ATOM      8  N   UNL     1       5.192   6.549  15.905  0.00  0.00    +0.000 N 
ATOM      9  C   UNL     1       5.947   5.512  15.403  0.00  0.00    +0.000 A 
ATOM     10  O   UNL     1       6.818   5.700  14.568  0.00  0.00    +0.000 OA
ATOM     11  C   UNL     1       5.626   4.104  15.956  0.00  0.00    +0.000 A 
ATOM     12  O   UNL     1       6.184   3.113  15.509  0.00  0.00    +0.000 OA
ATOM     13  N   UNL     1       4.685   4.023  16.964  0.00  0.00    +0.000 N 
ATOM     14  C   UNL     1       4.021   5.141  17.499  0.00  0.00    +0.000 A 
ATOM     15  H   UNL     1       5.417   7.471  15.530  0.00  0.00    +0.000 HD
ATOM     16  H   UNL     1       4.540   3.101  17.361  0.00  0.00    +0.000 HD
ENDROOT
BRANCH   1  17
ATOM     17  N   UNL     1       2.798   3.738  19.168  0.00  0.00    +0.000 N 
BRANCH  17  18
ATOM     18  S   UNL     1       1.273   3.120  18.815  0.00  0.00    +0.000 S 
ATOM     19  C   UNL     1       1.646   1.412  18.448  0.00  0.00    +0.000 C 
ATOM     20  O   UNL     1       0.507   3.173  20.042  0.00  0.00    +0.000 OA
ATOM     21  O   UNL     1       0.777   3.734  17.602  0.00  0.00    +0.000 OA
ENDBRANCH  17  18
BRANCH  17  22
ATOM     22  C   UNL     1       3.502   3.308  20.405  0.00  0.00    +0.000 C 
BRANCH  22  23
ATOM     23  C   UNL     1       4.504   2.180  20.125  0.00  0.00    +0.000 C 
BRANCH  23  25
ATOM     24  C   UNL     1       5.588   0.480  21.348  0.00  0.00    +0.000 C 
ATOM     25  O   UNL     1       5.257   1.863  21.298  0.00  0.00    +0.000 OA
ENDBRANCH  23  25
ENDBRANCH  22  23
ENDBRANCH  17  22
ENDBRANCH   1  17
TORSDOF 5
ENDMDL
