MODEL 1
REMARK VINA RESULT:      -7.9      0.000      0.000
REMARK  Name = 
REMARK  3 active torsions:
REMARK  status: ('A' for Active; 'I' for Inactive)
REMARK    1  A    between atoms: C_1  and  C_2
REMARK    2  A    between atoms: C_10  and  C_11
REMARK    3  A    between atoms: C_29  and  C_30
REMARK                            x       y       z     vdW  Elec       q    Type
REMARK                         _______ _______ _______ _____ _____    ______ ____
ROOT
ATOM      1  C   UNL     1      -7.442  15.517  17.424  0.00  0.00    +0.000 C 
ATOM      2  C   UNL     1      -7.892  15.433  18.884  0.00  0.00    +0.000 C 
ATOM      3  C   UNL     1      -7.868  13.958  19.390  0.00  0.00    +0.000 C 
ATOM      4  N   UNL     1      -6.482  13.519  19.650  0.00  0.00    +0.000 N 
ATOM      5  C   UNL     1      -5.922  12.618  18.704  0.00  0.00    +0.000 C 
ATOM      6  O   UNL     1      -6.662  12.171  17.821  0.00  0.00    +0.000 OA
ATOM      7  N   UNL     1      -4.566  12.232  18.805  0.00  0.00    +0.000 N 
ATOM      8  C   UNL     1      -3.859  12.617  19.979  0.00  0.00    +0.000 C 
ATOM      9  C   UNL     1      -2.576  12.016  20.271  0.00  0.00    +0.000 A 
ATOM     10  C   UNL     1      -1.746  12.139  21.365  0.00  0.00    +0.000 A 
ATOM     11  N   UNL     1      -0.545  11.540  21.072  0.00  0.00    +0.000 NA
ATOM     12  C   UNL     1      -0.686  11.034  19.857  0.00  0.00    +0.000 A 
ATOM     13  N   UNL     1      -1.928  11.292  19.328  0.00  0.00    +0.000 N 
ATOM     14  C   UNL     1      -2.514  10.983  18.081  0.00  0.00    +0.000 A 
ATOM     15  C   UNL     1      -1.792  10.234  17.137  0.00  0.00    +0.000 A 
ATOM     16  C   UNL     1      -2.378   9.924  15.915  0.00  0.00    +0.000 A 
ATOM     17  C   UNL     1      -3.668  10.359  15.646  0.00  0.00    +0.000 A 
ATOM     18  F   UNL     1      -4.223  10.067  14.462  0.00  0.00    +0.000 F 
ATOM     19  C   UNL     1      -4.393  11.107  16.576  0.00  0.00    +0.000 A 
ATOM     20  C   UNL     1      -3.844  11.438  17.822  0.00  0.00    +0.000 A 
ATOM     21  C   UNL     1      -5.891  14.453  20.635  0.00  0.00    +0.000 C 
ATOM     22  C   UNL     1      -5.760  15.852  20.018  0.00  0.00    +0.000 C 
ATOM     23  C   UNL     1      -4.985  16.762  20.972  0.00  0.00    +0.000 C 
ATOM     24  N   UNL     1      -7.109  16.374  19.734  0.00  0.00    +0.000 NA
ATOM     25  H   UNL     1      -7.040  17.282  19.274  0.00  0.00    +0.000 HD
ENDROOT
BRANCH  10  26
ATOM     26  C   UNL     1      -2.037  12.921  22.573  0.00  0.00    +0.000 A 
ATOM     27  C   UNL     1      -3.194  12.703  23.347  0.00  0.00    +0.000 A 
ATOM     28  C   UNL     1      -3.544  13.550  24.405  0.00  0.00    +0.000 A 
ATOM     29  C   UNL     1      -2.695  14.588  24.749  0.00  0.00    +0.000 A 
ATOM     30  F   UNL     1      -3.018  15.396  25.766  0.00  0.00    +0.000 F 
ATOM     31  C   UNL     1      -1.509  14.788  24.051  0.00  0.00    +0.000 A 
ATOM     32  C   UNL     1      -1.185  13.962  22.963  0.00  0.00    +0.000 A 
ENDBRANCH  10  26
TORSDOF 1
ENDMDL
MODEL 2
REMARK VINA RESULT:      -7.5      1.183      1.289
REMARK  Name = 
REMARK  3 active torsions:
REMARK  status: ('A' for Active; 'I' for Inactive)
REMARK    1  A    between atoms: C_1  and  C_2
REMARK    2  A    between atoms: C_10  and  C_11
REMARK    3  A    between atoms: C_29  and  C_30
REMARK                            x       y       z     vdW  Elec       q    Type
REMARK                         _______ _______ _______ _____ _____    ______ ____
ROOT
ATOM      1  C   UNL     1      -7.201  14.814  16.434  0.00  0.00    +0.000 C 
ATOM      2  C   UNL     1      -7.906  14.976  17.782  0.00  0.00    +0.000 C 
ATOM      3  C   UNL     1      -7.839  13.654  18.607  0.00  0.00    +0.000 C 
ATOM      4  N   UNL     1      -6.492  13.465  19.180  0.00  0.00    +0.000 N 
ATOM      5  C   UNL     1      -5.683  12.470  18.567  0.00  0.00    +0.000 C 
ATOM      6  O   UNL     1      -6.200  11.756  17.700  0.00  0.00    +0.000 OA
ATOM      7  N   UNL     1      -4.340  12.295  18.971  0.00  0.00    +0.000 N 
ATOM      8  C   UNL     1      -3.905  13.004  20.126  0.00  0.00    +0.000 C 
ATOM      9  C   UNL     1      -2.649  12.652  20.751  0.00  0.00    +0.000 A 
ATOM     10  C   UNL     1      -2.053  13.107  21.908  0.00  0.00    +0.000 A 
ATOM     11  N   UNL     1      -0.767  12.624  21.957  0.00  0.00    +0.000 NA
ATOM     12  C   UNL     1      -0.631  11.864  20.882  0.00  0.00    +0.000 A 
ATOM     13  N   UNL     1      -1.770  11.841  20.114  0.00  0.00    +0.000 N 
ATOM     14  C   UNL     1      -2.081  11.206  18.892  0.00  0.00    +0.000 A 
ATOM     15  C   UNL     1      -1.129  10.380  18.272  0.00  0.00    +0.000 A 
ATOM     16  C   UNL     1      -1.445   9.749  17.074  0.00  0.00    +0.000 A 
ATOM     17  C   UNL     1      -2.696   9.945  16.508  0.00  0.00    +0.000 A 
ATOM     18  F   UNL     1      -2.991   9.344  15.348  0.00  0.00    +0.000 F 
ATOM     19  C   UNL     1      -3.649  10.767  17.114  0.00  0.00    +0.000 A 
ATOM     20  C   UNL     1      -3.377  11.418  18.325  0.00  0.00    +0.000 A 
ATOM     21  C   UNL     1      -6.186  14.652  20.010  0.00  0.00    +0.000 C 
ATOM     22  C   UNL     1      -6.073  15.898  19.121  0.00  0.00    +0.000 C 
ATOM     23  C   UNL     1      -5.578  17.080  19.957  0.00  0.00    +0.000 C 
ATOM     24  N   UNL     1      -7.387  16.167  18.512  0.00  0.00    +0.000 NA
ATOM     25  H   UNL     1      -7.319  16.961  17.875  0.00  0.00    +0.000 HD
ENDROOT
BRANCH  10  26
ATOM     26  C   UNL     1      -2.636  14.077  22.843  0.00  0.00    +0.000 A 
ATOM     27  C   UNL     1      -3.085  13.704  24.127  0.00  0.00    +0.000 A 
ATOM     28  C   UNL     1      -3.777  14.596  24.953  0.00  0.00    +0.000 A 
ATOM     29  C   UNL     1      -3.967  15.901  24.531  0.00  0.00    +0.000 A 
ATOM     30  F   UNL     1      -4.619  16.762  25.320  0.00  0.00    +0.000 F 
ATOM     31  C   UNL     1      -3.474  16.321  23.301  0.00  0.00    +0.000 A 
ATOM     32  C   UNL     1      -2.817  15.410  22.457  0.00  0.00    +0.000 A 
ENDBRANCH  10  26
TORSDOF 1
ENDMDL
MODEL 3
REMARK VINA RESULT:      -7.3      4.225      7.638
REMARK  Name = 
REMARK  3 active torsions:
REMARK  status: ('A' for Active; 'I' for Inactive)
REMARK    1  A    between atoms: C_1  and  C_2
REMARK    2  A    between atoms: C_10  and  C_11
REMARK    3  A    between atoms: C_29  and  C_30
REMARK                            x       y       z     vdW  Elec       q    Type
REMARK                         _______ _______ _______ _____ _____    ______ ____
ROOT
ATOM      1  C   UNL     1       0.164  10.069  20.027  0.00  0.00    +0.000 C 
ATOM      2  C   UNL     1       0.001  10.581  18.594  0.00  0.00    +0.000 C 
ATOM      3  C   UNL     1      -1.368  11.308  18.416  0.00  0.00    +0.000 C 
ATOM      4  N   UNL     1      -1.331  12.648  19.036  0.00  0.00    +0.000 N 
ATOM      5  C   UNL     1      -2.043  12.794  20.256  0.00  0.00    +0.000 C 
ATOM      6  O   UNL     1      -2.738  11.846  20.639  0.00  0.00    +0.000 OA
ATOM      7  N   UNL     1      -1.973  14.005  20.982  0.00  0.00    +0.000 N 
ATOM      8  C   UNL     1      -1.335  15.111  20.352  0.00  0.00    +0.000 C 
ATOM      9  C   UNL     1      -1.482  16.436  20.913  0.00  0.00    +0.000 A 
ATOM     10  C   UNL     1      -1.057  17.666  20.457  0.00  0.00    +0.000 A 
ATOM     11  N   UNL     1      -1.253  18.593  21.451  0.00  0.00    +0.000 NA
ATOM     12  C   UNL     1      -1.826  17.933  22.445  0.00  0.00    +0.000 A 
ATOM     13  N   UNL     1      -1.999  16.602  22.154  0.00  0.00    +0.000 N 
ATOM     14  C   UNL     1      -2.530  15.526  22.898  0.00  0.00    +0.000 A 
ATOM     15  C   UNL     1      -3.046  15.754  24.184  0.00  0.00    +0.000 A 
ATOM     16  C   UNL     1      -3.576  14.692  24.909  0.00  0.00    +0.000 A 
ATOM     17  C   UNL     1      -3.587  13.422  24.350  0.00  0.00    +0.000 A 
ATOM     18  F   UNL     1      -4.089  12.401  25.057  0.00  0.00    +0.000 F 
ATOM     19  C   UNL     1      -3.073  13.184  23.075  0.00  0.00    +0.000 A 
ATOM     20  C   UNL     1      -2.533  14.224  22.306  0.00  0.00    +0.000 A 
ATOM     21  C   UNL     1      -0.218  13.401  18.413  0.00  0.00    +0.000 C 
ATOM     22  C   UNL     1       1.124  12.752  18.780  0.00  0.00    +0.000 C 
ATOM     23  C   UNL     1       2.271  13.636  18.289  0.00  0.00    +0.000 C 
ATOM     24  N   UNL     1       1.176  11.403  18.189  0.00  0.00    +0.000 NA
ATOM     25  H   UNL     1       2.039  10.935  18.466  0.00  0.00    +0.000 HD
ENDROOT
BRANCH  10  26
ATOM     26  C   UNL     1      -0.360  17.911  19.188  0.00  0.00    +0.000 A 
ATOM     27  C   UNL     1      -0.991  18.538  18.095  0.00  0.00    +0.000 A 
ATOM     28  C   UNL     1      -0.375  18.631  16.842  0.00  0.00    +0.000 A 
ATOM     29  C   UNL     1       0.917  18.157  16.687  0.00  0.00    +0.000 A 
ATOM     30  F   UNL     1       1.516  18.252  15.494  0.00  0.00    +0.000 F 
ATOM     31  C   UNL     1       1.595  17.597  17.763  0.00  0.00    +0.000 A 
ATOM     32  C   UNL     1       0.956  17.468  19.008  0.00  0.00    +0.000 A 
ENDBRANCH  10  26
TORSDOF 1
ENDMDL
MODEL 4
REMARK VINA RESULT:      -7.2      3.043      5.083
REMARK  Name = 
REMARK  3 active torsions:
REMARK  status: ('A' for Active; 'I' for Inactive)
REMARK    1  A    between atoms: C_1  and  C_2
REMARK    2  A    between atoms: C_10  and  C_11
REMARK    3  A    between atoms: C_29  and  C_30
REMARK                            x       y       z     vdW  Elec       q    Type
REMARK                         _______ _______ _______ _____ _____    ______ ____
ROOT
ATOM      1  C   UNL     1      -3.039  11.248  15.451  0.00  0.00    +0.000 C 
ATOM      2  C   UNL     1      -4.007  10.403  16.284  0.00  0.00    +0.000 C 
ATOM      3  C   UNL     1      -3.256   9.676  17.442  0.00  0.00    +0.000 C 
ATOM      4  N   UNL     1      -2.933  10.623  18.528  0.00  0.00    +0.000 N 
ATOM      5  C   UNL     1      -1.570  11.012  18.636  0.00  0.00    +0.000 C 
ATOM      6  O   UNL     1      -0.746  10.443  17.912  0.00  0.00    +0.000 OA
ATOM      7  N   UNL     1      -1.184  12.000  19.570  0.00  0.00    +0.000 N 
ATOM      8  C   UNL     1      -2.160  12.431  20.511  0.00  0.00    +0.000 C 
ATOM      9  C   UNL     1      -1.753  13.213  21.658  0.00  0.00    +0.000 A 
ATOM     10  C   UNL     1      -2.468  13.668  22.745  0.00  0.00    +0.000 A 
ATOM     11  N   UNL     1      -1.682  14.548  23.449  0.00  0.00    +0.000 NA
ATOM     12  C   UNL     1      -0.519  14.569  22.818  0.00  0.00    +0.000 A 
ATOM     13  N   UNL     1      -0.511  13.751  21.714  0.00  0.00    +0.000 N 
ATOM     14  C   UNL     1       0.474  13.476  20.741  0.00  0.00    +0.000 A 
ATOM     15  C   UNL     1       1.744  14.067  20.845  0.00  0.00    +0.000 A 
ATOM     16  C   UNL     1       2.712  13.785  19.888  0.00  0.00    +0.000 A 
ATOM     17  C   UNL     1       2.410  12.922  18.845  0.00  0.00    +0.000 A 
ATOM     18  F   UNL     1       3.344  12.663  17.920  0.00  0.00    +0.000 F 
ATOM     19  C   UNL     1       1.150  12.333  18.729  0.00  0.00    +0.000 A 
ATOM     20  C   UNL     1       0.145  12.584  19.672  0.00  0.00    +0.000 A 
ATOM     21  C   UNL     1      -4.202  11.232  18.986  0.00  0.00    +0.000 C 
ATOM     22  C   UNL     1      -4.803  12.095  17.868  0.00  0.00    +0.000 C 
ATOM     23  C   UNL     1      -6.011  12.863  18.407  0.00  0.00    +0.000 C 
ATOM     24  N   UNL     1      -5.166  11.222  16.738  0.00  0.00    +0.000 NA
ATOM     25  H   UNL     1      -5.519  11.784  15.963  0.00  0.00    +0.000 HD
ENDROOT
BRANCH  10  26
ATOM     26  C   UNL     1      -3.884  13.388  23.013  0.00  0.00    +0.000 A 
ATOM     27  C   UNL     1      -4.916  13.897  22.198  0.00  0.00    +0.000 A 
ATOM     28  C   UNL     1      -6.265  13.757  22.543  0.00  0.00    +0.000 A 
ATOM     29  C   UNL     1      -6.601  13.037  23.677  0.00  0.00    +0.000 A 
ATOM     30  F   UNL     1      -7.890  12.890  24.008  0.00  0.00    +0.000 F 
ATOM     31  C   UNL     1      -5.611  12.460  24.464  0.00  0.00    +0.000 A 
ATOM     32  C   UNL     1      -4.257  12.641  24.137  0.00  0.00    +0.000 A 
ENDBRANCH  10  26
TORSDOF 1
ENDMDL
MODEL 5
REMARK VINA RESULT:      -7.2      3.039      7.484
REMARK  Name = 
REMARK  3 active torsions:
REMARK  status: ('A' for Active; 'I' for Inactive)
REMARK    1  A    between atoms: C_1  and  C_2
REMARK    2  A    between atoms: C_10  and  C_11
REMARK    3  A    between atoms: C_29  and  C_30
REMARK                            x       y       z     vdW  Elec       q    Type
REMARK                         _______ _______ _______ _____ _____    ______ ____
ROOT
ATOM      1  C   UNL     1       1.966  10.905  18.200  0.00  0.00    +0.000 C 
ATOM      2  C   UNL     1       1.064   9.705  18.498  0.00  0.00    +0.000 C 
ATOM      3  C   UNL     1       0.601   9.714  19.987  0.00  0.00    +0.000 C 
ATOM      4  N   UNL     1      -0.449  10.730  20.201  0.00  0.00    +0.000 N 
ATOM      5  C   UNL     1      -0.054  11.904  20.897  0.00  0.00    +0.000 C 
ATOM      6  O   UNL     1       1.083  11.935  21.381  0.00  0.00    +0.000 OA
ATOM      7  N   UNL     1      -0.957  12.980  21.049  0.00  0.00    +0.000 N 
ATOM      8  C   UNL     1      -2.309  12.762  20.659  0.00  0.00    +0.000 C 
ATOM      9  C   UNL     1      -3.328  13.710  21.052  0.00  0.00    +0.000 A 
ATOM     10  C   UNL     1      -4.697  13.688  20.890  0.00  0.00    +0.000 A 
ATOM     11  N   UNL     1      -5.199  14.918  21.241  0.00  0.00    +0.000 NA
ATOM     12  C   UNL     1      -4.157  15.626  21.647  0.00  0.00    +0.000 A 
ATOM     13  N   UNL     1      -2.983  14.918  21.560  0.00  0.00    +0.000 N 
ATOM     14  C   UNL     1      -1.643  15.257  21.848  0.00  0.00    +0.000 A 
ATOM     15  C   UNL     1      -1.340  16.527  22.367  0.00  0.00    +0.000 A 
ATOM     16  C   UNL     1      -0.020  16.853  22.658  0.00  0.00    +0.000 A 
ATOM     17  C   UNL     1       0.979  15.918  22.431  0.00  0.00    +0.000 A 
ATOM     18  F   UNL     1       2.251  16.241  22.702  0.00  0.00    +0.000 F 
ATOM     19  C   UNL     1       0.691  14.655  21.912  0.00  0.00    +0.000 A 
ATOM     20  C   UNL     1      -0.626  14.281  21.609  0.00  0.00    +0.000 A 
ATOM     21  C   UNL     1      -1.564  10.425  19.275  0.00  0.00    +0.000 C 
ATOM     22  C   UNL     1      -1.108  10.620  17.822  0.00  0.00    +0.000 C 
ATOM     23  C   UNL     1      -2.309  10.483  16.886  0.00  0.00    +0.000 C 
ATOM     24  N   UNL     1      -0.058   9.631  17.519  0.00  0.00    +0.000 NA
ATOM     25  H   UNL     1       0.296   9.779  16.574  0.00  0.00    +0.000 HD
ENDROOT
BRANCH  10  26
ATOM     26  C   UNL     1      -5.467  12.593  20.288  0.00  0.00    +0.000 A 
ATOM     27  C   UNL     1      -6.537  11.970  20.962  0.00  0.00    +0.000 A 
ATOM     28  C   UNL     1      -7.167  10.830  20.450  0.00  0.00    +0.000 A 
ATOM     29  C   UNL     1      -6.778  10.340  19.215  0.00  0.00    +0.000 A 
ATOM     30  F   UNL     1      -7.382   9.256  18.714  0.00  0.00    +0.000 F 
ATOM     31  C   UNL     1      -5.774  10.973  18.491  0.00  0.00    +0.000 A 
ATOM     32  C   UNL     1      -5.117  12.092  19.028  0.00  0.00    +0.000 A 
ENDBRANCH  10  26
TORSDOF 1
ENDMDL
MODEL 6
REMARK VINA RESULT:      -7.2      4.222      7.611
REMARK  Name = 
REMARK  3 active torsions:
REMARK  status: ('A' for Active; 'I' for Inactive)
REMARK    1  A    between atoms: C_1  and  C_2
REMARK    2  A    between atoms: C_10  and  C_11
REMARK    3  A    between atoms: C_29  and  C_30
REMARK                            x       y       z     vdW  Elec       q    Type
REMARK                         _______ _______ _______ _____ _____    ______ ____
ROOT
ATOM      1  C   UNL     1       0.597   9.788  20.027  0.00  0.00    +0.000 C 
ATOM      2  C   UNL     1       0.469  10.242  18.571  0.00  0.00    +0.000 C 
ATOM      3  C   UNL     1      -0.946  10.840  18.297  0.00  0.00    +0.000 C 
ATOM      4  N   UNL     1      -1.059  12.195  18.873  0.00  0.00    +0.000 N 
ATOM      5  C   UNL     1      -1.847  12.314  20.049  0.00  0.00    +0.000 C 
ATOM      6  O   UNL     1      -2.478  11.319  20.426  0.00  0.00    +0.000 OA
ATOM      7  N   UNL     1      -1.922  13.546  20.736  0.00  0.00    +0.000 N 
ATOM      8  C   UNL     1      -1.348  14.685  20.103  0.00  0.00    +0.000 C 
ATOM      9  C   UNL     1      -1.641  16.008  20.610  0.00  0.00    +0.000 A 
ATOM     10  C   UNL     1      -1.298  17.257  20.136  0.00  0.00    +0.000 A 
ATOM     11  N   UNL     1      -1.629  18.192  21.087  0.00  0.00    +0.000 NA
ATOM     12  C   UNL     1      -2.196  17.513  22.071  0.00  0.00    +0.000 A 
ATOM     13  N   UNL     1      -2.237  16.164  21.816  0.00  0.00    +0.000 N 
ATOM     14  C   UNL     1      -2.713  15.067  22.568  0.00  0.00    +0.000 A 
ATOM     15  C   UNL     1      -3.317  15.286  23.817  0.00  0.00    +0.000 A 
ATOM     16  C   UNL     1      -3.792  14.203  24.548  0.00  0.00    +0.000 A 
ATOM     17  C   UNL     1      -3.663  12.922  24.033  0.00  0.00    +0.000 A 
ATOM     18  F   UNL     1      -4.112  11.881  24.747  0.00  0.00    +0.000 F 
ATOM     19  C   UNL     1      -3.060  12.692  22.795  0.00  0.00    +0.000 A 
ATOM     20  C   UNL     1      -2.571  13.753  22.021  0.00  0.00    +0.000 A 
ATOM     21  C   UNL     1       0.018  13.025  18.284  0.00  0.00    +0.000 C 
ATOM     22  C   UNL     1       1.388  12.507  18.742  0.00  0.00    +0.000 C 
ATOM     23  C   UNL     1       2.480  13.475  18.282  0.00  0.00    +0.000 C 
ATOM     24  N   UNL     1       1.589  11.152  18.200  0.00  0.00    +0.000 NA
ATOM     25  H   UNL     1       2.473  10.770  18.538  0.00  0.00    +0.000 HD
ENDROOT
BRANCH  10  26
ATOM     26  C   UNL     1      -0.557  17.525  18.898  0.00  0.00    +0.000 A 
ATOM     27  C   UNL     1       0.782  17.118  18.722  0.00  0.00    +0.000 A 
ATOM     28  C   UNL     1       1.530  17.509  17.606  0.00  0.00    +0.000 A 
ATOM     29  C   UNL     1       0.922  18.256  16.612  0.00  0.00    +0.000 A 
ATOM     30  F   UNL     1       1.629  18.625  15.537  0.00  0.00    +0.000 F 
ATOM     31  C   UNL     1      -0.417  18.614  16.720  0.00  0.00    +0.000 A 
ATOM     32  C   UNL     1      -1.151  18.256  17.862  0.00  0.00    +0.000 A 
ENDBRANCH  10  26
TORSDOF 1
ENDMDL
MODEL 7
REMARK VINA RESULT:      -7.0      3.225      6.192
REMARK  Name = 
REMARK  3 active torsions:
REMARK  status: ('A' for Active; 'I' for Inactive)
REMARK    1  A    between atoms: C_1  and  C_2
REMARK    2  A    between atoms: C_10  and  C_11
REMARK    3  A    between atoms: C_29  and  C_30
REMARK                            x       y       z     vdW  Elec       q    Type
REMARK                         _______ _______ _______ _____ _____    ______ ____
ROOT
ATOM      1  C   UNL     1      -3.591   9.219  17.745  0.00  0.00    +0.000 C 
ATOM      2  C   UNL     1      -2.641  10.089  16.917  0.00  0.00    +0.000 C 
ATOM      3  C   UNL     1      -3.032  11.595  17.023  0.00  0.00    +0.000 C 
ATOM      4  N   UNL     1      -2.621  12.150  18.328  0.00  0.00    +0.000 N 
ATOM      5  C   UNL     1      -3.663  12.388  19.264  0.00  0.00    +0.000 C 
ATOM      6  O   UNL     1      -4.829  12.241  18.883  0.00  0.00    +0.000 OA
ATOM      7  N   UNL     1      -3.357  12.809  20.578  0.00  0.00    +0.000 N 
ATOM      8  C   UNL     1      -2.008  13.169  20.855  0.00  0.00    +0.000 C 
ATOM      9  C   UNL     1      -1.691  13.872  22.079  0.00  0.00    +0.000 A 
ATOM     10  C   UNL     1      -0.506  14.408  22.535  0.00  0.00    +0.000 A 
ATOM     11  N   UNL     1      -0.671  14.782  23.847  0.00  0.00    +0.000 NA
ATOM     12  C   UNL     1      -1.935  14.518  24.135  0.00  0.00    +0.000 A 
ATOM     13  N   UNL     1      -2.608  13.968  23.071  0.00  0.00    +0.000 N 
ATOM     14  C   UNL     1      -3.934  13.509  22.918  0.00  0.00    +0.000 A 
ATOM     15  C   UNL     1      -4.842  13.627  23.984  0.00  0.00    +0.000 A 
ATOM     16  C   UNL     1      -6.149  13.183  23.823  0.00  0.00    +0.000 A 
ATOM     17  C   UNL     1      -6.539  12.630  22.612  0.00  0.00    +0.000 A 
ATOM     18  F   UNL     1      -7.797  12.193  22.467  0.00  0.00    +0.000 F 
ATOM     19  C   UNL     1      -5.644  12.504  21.548  0.00  0.00    +0.000 A 
ATOM     20  C   UNL     1      -4.319  12.943  21.662  0.00  0.00    +0.000 A 
ATOM     21  C   UNL     1      -1.161  11.945  18.464  0.00  0.00    +0.000 C 
ATOM     22  C   UNL     1      -0.848  10.444  18.549  0.00  0.00    +0.000 C 
ATOM     23  C   UNL     1       0.634  10.248  18.873  0.00  0.00    +0.000 C 
ATOM     24  N   UNL     1      -1.222   9.809  17.274  0.00  0.00    +0.000 NA
ATOM     25  H   UNL     1      -1.070   8.801  17.330  0.00  0.00    +0.000 HD
ENDROOT
BRANCH  10  26
ATOM     26  C   UNL     1       0.763  14.424  21.797  0.00  0.00    +0.000 A 
ATOM     27  C   UNL     1       1.544  15.591  21.673  0.00  0.00    +0.000 A 
ATOM     28  C   UNL     1       2.670  15.640  20.844  0.00  0.00    +0.000 A 
ATOM     29  C   UNL     1       3.072  14.493  20.181  0.00  0.00    +0.000 A 
ATOM     30  F   UNL     1       4.154  14.529  19.394  0.00  0.00    +0.000 F 
ATOM     31  C   UNL     1       2.366  13.305  20.338  0.00  0.00    +0.000 A 
ATOM     32  C   UNL     1       1.212  13.273  21.137  0.00  0.00    +0.000 A 
ENDBRANCH  10  26
TORSDOF 1
ENDMDL
MODEL 8
REMARK VINA RESULT:      -7.0      3.002      7.884
REMARK  Name = 
REMARK  3 active torsions:
REMARK  status: ('A' for Active; 'I' for Inactive)
REMARK    1  A    between atoms: C_1  and  C_2
REMARK    2  A    between atoms: C_10  and  C_11
REMARK    3  A    between atoms: C_29  and  C_30
REMARK                            x       y       z     vdW  Elec       q    Type
REMARK                         _______ _______ _______ _____ _____    ______ ____
ROOT
ATOM      1  C   UNL     1       0.889  13.409  20.700  0.00  0.00    +0.000 C 
ATOM      2  C   UNL     1       0.417  11.954  20.641  0.00  0.00    +0.000 C 
ATOM      3  C   UNL     1      -0.259  11.534  21.982  0.00  0.00    +0.000 C 
ATOM      4  N   UNL     1      -1.614  12.112  22.086  0.00  0.00    +0.000 N 
ATOM      5  C   UNL     1      -1.766  13.195  22.993  0.00  0.00    +0.000 C 
ATOM      6  O   UNL     1      -0.805  13.486  23.714  0.00  0.00    +0.000 OA
ATOM      7  N   UNL     1      -2.996  13.886  23.077  0.00  0.00    +0.000 N 
ATOM      8  C   UNL     1      -4.107  13.337  22.377  0.00  0.00    +0.000 C 
ATOM      9  C   UNL     1      -5.440  13.827  22.653  0.00  0.00    +0.000 A 
ATOM     10  C   UNL     1      -6.671  13.410  22.194  0.00  0.00    +0.000 A 
ATOM     11  N   UNL     1      -7.616  14.332  22.577  0.00  0.00    +0.000 NA
ATOM     12  C   UNL     1      -6.962  15.238  23.286  0.00  0.00    +0.000 A 
ATOM     13  N   UNL     1      -5.618  14.961  23.371  0.00  0.00    +0.000 N 
ATOM     14  C   UNL     1      -4.544  15.640  23.985  0.00  0.00    +0.000 A 
ATOM     15  C   UNL     1      -4.786  16.818  24.712  0.00  0.00    +0.000 A 
ATOM     16  C   UNL     1      -3.724  17.476  25.323  0.00  0.00    +0.000 A 
ATOM     17  C   UNL     1      -2.442  16.961  25.205  0.00  0.00    +0.000 A 
ATOM     18  F   UNL     1      -1.422  17.607  25.787  0.00  0.00    +0.000 F 
ATOM     19  C   UNL     1      -2.190  15.795  24.482  0.00  0.00    +0.000 A 
ATOM     20  C   UNL     1      -3.228  15.094  23.854  0.00  0.00    +0.000 A 
ATOM     21  C   UNL     1      -2.388  11.658  20.908  0.00  0.00    +0.000 C 
ATOM     22  C   UNL     1      -1.793  12.258  19.626  0.00  0.00    +0.000 C 
ATOM     23  C   UNL     1      -2.703  11.934  18.440  0.00  0.00    +0.000 C 
ATOM     24  N   UNL     1      -0.433  11.722  19.439  0.00  0.00    +0.000 NA
ATOM     25  H   UNL     1      -0.001  12.151  18.620  0.00  0.00    +0.000 HD
ENDROOT
BRANCH  10  26
ATOM     26  C   UNL     1      -6.908  12.266  21.306  0.00  0.00    +0.000 A 
ATOM     27  C   UNL     1      -7.808  11.232  21.638  0.00  0.00    +0.000 A 
ATOM     28  C   UNL     1      -7.915  10.071  20.864  0.00  0.00    +0.000 A 
ATOM     29  C   UNL     1      -7.172   9.963  19.701  0.00  0.00    +0.000 A 
ATOM     30  F   UNL     1      -7.277   8.860  18.950  0.00  0.00    +0.000 F 
ATOM     31  C   UNL     1      -6.328  10.995  19.306  0.00  0.00    +0.000 A 
ATOM     32  C   UNL     1      -6.192  12.139  20.109  0.00  0.00    +0.000 A 
ENDBRANCH  10  26
TORSDOF 1
ENDMDL
MODEL 9
REMARK VINA RESULT:      -6.9      1.595      2.185
REMARK  Name = 
REMARK  3 active torsions:
REMARK  status: ('A' for Active; 'I' for Inactive)
REMARK    1  A    between atoms: C_1  and  C_2
REMARK    2  A    between atoms: C_10  and  C_11
REMARK    3  A    between atoms: C_29  and  C_30
REMARK                            x       y       z     vdW  Elec       q    Type
REMARK                         _______ _______ _______ _____ _____    ______ ____
ROOT
ATOM      1  C   UNL     1      -7.114  14.203  16.622  0.00  0.00    +0.000 C 
ATOM      2  C   UNL     1      -7.916  14.407  17.910  0.00  0.00    +0.000 C 
ATOM      3  C   UNL     1      -7.699  13.217  18.895  0.00  0.00    +0.000 C 
ATOM      4  N   UNL     1      -6.375  13.311  19.542  0.00  0.00    +0.000 N 
ATOM      5  C   UNL     1      -5.390  12.392  19.092  0.00  0.00    +0.000 C 
ATOM      6  O   UNL     1      -5.740  11.510  18.299  0.00  0.00    +0.000 OA
ATOM      7  N   UNL     1      -4.063  12.479  19.569  0.00  0.00    +0.000 N 
ATOM      8  C   UNL     1      -3.810  13.378  20.644  0.00  0.00    +0.000 C 
ATOM      9  C   UNL     1      -2.555  13.303  21.360  0.00  0.00    +0.000 A 
ATOM     10  C   UNL     1      -2.106  13.978  22.475  0.00  0.00    +0.000 A 
ATOM     11  N   UNL     1      -0.767  13.712  22.637  0.00  0.00    +0.000 NA
ATOM     12  C   UNL     1      -0.453  12.864  21.671  0.00  0.00    +0.000 A 
ATOM     13  N   UNL     1      -1.527  12.572  20.866  0.00  0.00    +0.000 N 
ATOM     14  C   UNL     1      -1.664  11.758  19.720  0.00  0.00    +0.000 A 
ATOM     15  C   UNL     1      -0.562  11.026  19.247  0.00  0.00    +0.000 A 
ATOM     16  C   UNL     1      -0.706  10.219  18.124  0.00  0.00    +0.000 A 
ATOM     17  C   UNL     1      -1.937  10.147  17.488  0.00  0.00    +0.000 A 
ATOM     18  F   UNL     1      -2.066   9.377  16.400  0.00  0.00    +0.000 F 
ATOM     19  C   UNL     1      -3.037  10.873  17.947  0.00  0.00    +0.000 A 
ATOM     20  C   UNL     1      -2.940  11.696  19.077  0.00  0.00    +0.000 A 
ATOM     21  C   UNL     1      -6.304  14.620  20.231  0.00  0.00    +0.000 C 
ATOM     22  C   UNL     1      -6.327  15.757  19.199  0.00  0.00    +0.000 C 
ATOM     23  C   UNL     1      -6.069  17.090  19.902  0.00  0.00    +0.000 C 
ATOM     24  N   UNL     1      -7.628  15.742  18.507  0.00  0.00    +0.000 NA
ATOM     25  H   UNL     1      -7.642  16.458  17.780  0.00  0.00    +0.000 HD
ENDROOT
BRANCH  10  26
ATOM     26  C   UNL     1      -2.884  14.945  23.258  0.00  0.00    +0.000 A 
ATOM     27  C   UNL     1      -2.270  15.913  24.078  0.00  0.00    +0.000 A 
ATOM     28  C   UNL     1      -3.014  16.729  24.938  0.00  0.00    +0.000 A 
ATOM     29  C   UNL     1      -4.395  16.636  24.933  0.00  0.00    +0.000 A 
ATOM     30  F   UNL     1      -5.113  17.420  25.745  0.00  0.00    +0.000 F 
ATOM     31  C   UNL     1      -5.037  15.742  24.083  0.00  0.00    +0.000 A 
ATOM     32  C   UNL     1      -4.284  14.894  23.254  0.00  0.00    +0.000 A 
ENDBRANCH  10  26
TORSDOF 1
ENDMDL
