MODEL 1
REMARK VINA RESULT:      -8.4      0.000      0.000
REMARK  Name = 
REMARK  4 active torsions:
REMARK  status: ('A' for Active; 'I' for Inactive)
REMARK    1  A    between atoms: C_2  and  C_3
REMARK    2  A    between atoms: C_15  and  O_16
REMARK    3  A    between atoms: O_16  and  C_17
REMARK    4  A    between atoms: C_17  and  C_18
REMARK                            x       y       z     vdW  Elec       q    Type
REMARK                         _______ _______ _______ _____ _____    ______ ____
ROOT
ATOM      1  O   UNL     1       0.347   9.040  21.291  0.00  0.00    +0.000 OA
ATOM      2  C   UNL     1       1.019   8.971  20.258  0.00  0.00    +0.000 C 
ATOM      3  N   UNL     1       1.828   7.873  19.998  0.00  0.00    +0.000 N 
ATOM      4  C   UNL     1       2.761   7.712  18.878  0.00  0.00    +0.000 C 
ATOM      5  C   UNL     1       2.389   6.482  18.048  0.00  0.00    +0.000 C 
ATOM      6  C   UNL     1       2.319   5.228  18.934  0.00  0.00    +0.000 C 
ATOM      7  C   UNL     1       1.332   5.482  20.083  0.00  0.00    +0.000 C 
ATOM      8  C   UNL     1       1.747   6.714  20.886  0.00  0.00    +0.000 C 
ENDROOT
BRANCH   2   9
ATOM      9  C   UNL     1       0.967  10.070  19.212  0.00  0.00    +0.000 C 
ATOM     10  C   UNL     1       1.264  11.443  19.817  0.00  0.00    +0.000 C 
ATOM     11  O   UNL     1       0.490  12.445  19.108  0.00  0.00    +0.000 OA
ATOM     12  C   UNL     1      -0.557  11.730  18.584  0.00  0.00    +0.000 A 
ATOM     13  C   UNL     1      -1.678  12.291  18.008  0.00  0.00    +0.000 A 
ATOM     14  C   UNL     1      -2.660  11.429  17.513  0.00  0.00    +0.000 A 
ATOM     15  C   UNL     1      -2.497  10.034  17.598  0.00  0.00    +0.000 A 
ATOM     16  C   UNL     1      -1.344   9.489  18.161  0.00  0.00    +0.000 A 
ATOM     17  C   UNL     1      -0.385  10.358  18.653  0.00  0.00    +0.000 A 
ENDBRANCH   2   9
BRANCH   6  18
ATOM     18  O   UNL     1       3.648   4.956  19.408  0.00  0.00    +0.000 OA
BRANCH  18  19
ATOM     19  C   UNL     1       4.217   3.767  18.861  0.00  0.00    +0.000 C 
BRANCH  19  20
ATOM     20  C   UNL     1       5.157   4.080  17.721  0.00  0.00    +0.000 A 
ATOM     21  C   UNL     1       4.699   3.932  16.399  0.00  0.00    +0.000 A 
ATOM     22  C   UNL     1       5.525   4.249  15.321  0.00  0.00    +0.000 A 
ATOM     23  C   UNL     1       6.808   4.724  15.560  0.00  0.00    +0.000 A 
ATOM     24  F   UNL     1       7.601   5.032  14.526  0.00  0.00    +0.000 F 
ATOM     25  C   UNL     1       7.279   4.886  16.859  0.00  0.00    +0.000 A 
ATOM     26  C   UNL     1       6.454   4.570  17.939  0.00  0.00    +0.000 A 
ENDBRANCH  19  20
ENDBRANCH  18  19
ENDBRANCH   6  18
TORSDOF 4
ENDMDL
MODEL 2
REMARK VINA RESULT:      -8.4      4.405      6.662
REMARK  Name = 
REMARK  4 active torsions:
REMARK  status: ('A' for Active; 'I' for Inactive)
REMARK    1  A    between atoms: C_2  and  C_3
REMARK    2  A    between atoms: C_15  and  O_16
REMARK    3  A    between atoms: O_16  and  C_17
REMARK    4  A    between atoms: C_17  and  C_18
REMARK                            x       y       z     vdW  Elec       q    Type
REMARK                         _______ _______ _______ _____ _____    ______ ____
ROOT
ATOM      1  O   UNL     1       5.793   5.320  19.285  0.00  0.00    +0.000 OA
ATOM      2  C   UNL     1       5.111   5.510  18.273  0.00  0.00    +0.000 C 
ATOM      3  N   UNL     1       5.692   5.556  17.013  0.00  0.00    +0.000 N 
ATOM      4  C   UNL     1       5.027   5.888  15.749  0.00  0.00    +0.000 C 
ATOM      5  C   UNL     1       5.153   4.727  14.761  0.00  0.00    +0.000 C 
ATOM      6  C   UNL     1       6.627   4.339  14.560  0.00  0.00    +0.000 C 
ATOM      7  C   UNL     1       7.249   4.018  15.928  0.00  0.00    +0.000 C 
ATOM      8  C   UNL     1       7.105   5.206  16.877  0.00  0.00    +0.000 C 
ENDROOT
BRANCH   2   9
ATOM      9  C   UNL     1       3.604   5.675  18.360  0.00  0.00    +0.000 C 
ATOM     10  C   UNL     1       3.179   6.321  19.679  0.00  0.00    +0.000 C 
ATOM     11  O   UNL     1       1.892   5.778  20.075  0.00  0.00    +0.000 OA
ATOM     12  C   UNL     1       1.846   4.566  19.434  0.00  0.00    +0.000 A 
ATOM     13  C   UNL     1       0.907   3.586  19.679  0.00  0.00    +0.000 A 
ATOM     14  C   UNL     1       0.988   2.402  18.941  0.00  0.00    +0.000 A 
ATOM     15  C   UNL     1       1.995   2.229  17.975  0.00  0.00    +0.000 A 
ATOM     16  C   UNL     1       2.919   3.243  17.725  0.00  0.00    +0.000 A 
ATOM     17  C   UNL     1       2.829   4.406  18.472  0.00  0.00    +0.000 A 
ENDBRANCH   2   9
BRANCH   6  18
ATOM     18  O   UNL     1       7.281   5.440  13.910  0.00  0.00    +0.000 OA
BRANCH  18  19
ATOM     19  C   UNL     1       7.470   5.245  12.509  0.00  0.00    +0.000 C 
BRANCH  19  20
ATOM     20  C   UNL     1       6.919   3.914  12.058  0.00  0.00    +0.000 A 
ATOM     21  C   UNL     1       7.815   2.889  11.704  0.00  0.00    +0.000 A 
ATOM     22  C   UNL     1       7.344   1.633  11.321  0.00  0.00    +0.000 A 
ATOM     23  C   UNL     1       5.976   1.395  11.299  0.00  0.00    +0.000 A 
ATOM     24  F   UNL     1       5.522   0.189  10.935  0.00  0.00    +0.000 F 
ATOM     25  C   UNL     1       5.071   2.391  11.653  0.00  0.00    +0.000 A 
ATOM     26  C   UNL     1       5.541   3.648  12.037  0.00  0.00    +0.000 A 
ENDBRANCH  19  20
ENDBRANCH  18  19
ENDBRANCH   6  18
TORSDOF 4
ENDMDL
MODEL 3
REMARK VINA RESULT:      -8.3      0.515      1.079
REMARK  Name = 
REMARK  4 active torsions:
REMARK  status: ('A' for Active; 'I' for Inactive)
REMARK    1  A    between atoms: C_2  and  C_3
REMARK    2  A    between atoms: C_15  and  O_16
REMARK    3  A    between atoms: O_16  and  C_17
REMARK    4  A    between atoms: C_17  and  C_18
REMARK                            x       y       z     vdW  Elec       q    Type
REMARK                         _______ _______ _______ _____ _____    ______ ____
ROOT
ATOM      1  O   UNL     1       0.159   8.481  21.576  0.00  0.00    +0.000 OA
ATOM      2  C   UNL     1       0.953   8.619  20.641  0.00  0.00    +0.000 C 
ATOM      3  N   UNL     1       1.779   7.578  20.239  0.00  0.00    +0.000 N 
ATOM      4  C   UNL     1       2.842   7.637  19.232  0.00  0.00    +0.000 C 
ATOM      5  C   UNL     1       2.566   6.637  18.108  0.00  0.00    +0.000 C 
ATOM      6  C   UNL     1       2.376   5.220  18.673  0.00  0.00    +0.000 C 
ATOM      7  C   UNL     1       1.256   5.248  19.724  0.00  0.00    +0.000 C 
ATOM      8  C   UNL     1       1.578   6.254  20.827  0.00  0.00    +0.000 C 
ENDROOT
BRANCH   2   9
ATOM      9  C   UNL     1       1.042   9.925  19.873  0.00  0.00    +0.000 C 
ATOM     10  C   UNL     1       0.971  11.137  20.802  0.00  0.00    +0.000 C 
ATOM     11  O   UNL     1       0.292  12.219  20.111  0.00  0.00    +0.000 OA
ATOM     12  C   UNL     1      -0.463  11.572  19.166  0.00  0.00    +0.000 A 
ATOM     13  C   UNL     1      -1.447  12.170  18.408  0.00  0.00    +0.000 A 
ATOM     14  C   UNL     1      -2.129  11.378  17.479  0.00  0.00    +0.000 A 
ATOM     15  C   UNL     1      -1.808  10.018  17.326  0.00  0.00    +0.000 A 
ATOM     16  C   UNL     1      -0.790   9.440  18.085  0.00  0.00    +0.000 A 
ATOM     17  C   UNL     1      -0.131  10.237  19.006  0.00  0.00    +0.000 A 
ENDBRANCH   2   9
BRANCH   6  18
ATOM     18  O   UNL     1       3.633   4.801  19.228  0.00  0.00    +0.000 OA
BRANCH  18  19
ATOM     19  C   UNL     1       4.211   3.684  18.554  0.00  0.00    +0.000 C 
BRANCH  19  20
ATOM     20  C   UNL     1       5.108   4.126  17.424  0.00  0.00    +0.000 A 
ATOM     21  C   UNL     1       6.411   4.568  17.719  0.00  0.00    +0.000 A 
ATOM     22  C   UNL     1       7.282   4.947  16.698  0.00  0.00    +0.000 A 
ATOM     23  C   UNL     1       6.859   4.876  15.378  0.00  0.00    +0.000 A 
ATOM     24  F   UNL     1       7.695   5.236  14.396  0.00  0.00    +0.000 F 
ATOM     25  C   UNL     1       5.577   4.435  15.061  0.00  0.00    +0.000 A 
ATOM     26  C   UNL     1       4.704   4.055  16.082  0.00  0.00    +0.000 A 
ENDBRANCH  19  20
ENDBRANCH  18  19
ENDBRANCH   6  18
TORSDOF 4
ENDMDL
MODEL 4
REMARK VINA RESULT:      -8.3      4.353      6.509
REMARK  Name = 
REMARK  4 active torsions:
REMARK  status: ('A' for Active; 'I' for Inactive)
REMARK    1  A    between atoms: C_2  and  C_3
REMARK    2  A    between atoms: C_15  and  O_16
REMARK    3  A    between atoms: O_16  and  C_17
REMARK    4  A    between atoms: C_17  and  C_18
REMARK                            x       y       z     vdW  Elec       q    Type
REMARK                         _______ _______ _______ _____ _____    ______ ____
ROOT
ATOM      1  O   UNL     1       5.684   5.604  19.618  0.00  0.00    +0.000 OA
ATOM      2  C   UNL     1       5.013   5.642  18.583  0.00  0.00    +0.000 C 
ATOM      3  N   UNL     1       5.614   5.574  17.332  0.00  0.00    +0.000 N 
ATOM      4  C   UNL     1       4.958   5.726  16.031  0.00  0.00    +0.000 C 
ATOM      5  C   UNL     1       5.160   4.468  15.184  0.00  0.00    +0.000 C 
ATOM      6  C   UNL     1       6.654   4.137  15.048  0.00  0.00    +0.000 C 
ATOM      7  C   UNL     1       7.266   4.005  16.451  0.00  0.00    +0.000 C 
ATOM      8  C   UNL     1       7.045   5.285  17.256  0.00  0.00    +0.000 C 
ENDROOT
BRANCH   2   9
ATOM      9  C   UNL     1       3.498   5.737  18.631  0.00  0.00    +0.000 C 
ATOM     10  C   UNL     1       3.009   6.344  19.946  0.00  0.00    +0.000 C 
ATOM     11  O   UNL     1       1.738   5.737  20.299  0.00  0.00    +0.000 OA
ATOM     12  C   UNL     1       1.764   4.535  19.640  0.00  0.00    +0.000 A 
ATOM     13  C   UNL     1       0.863   3.510  19.846  0.00  0.00    +0.000 A 
ATOM     14  C   UNL     1       1.017   2.342  19.093  0.00  0.00    +0.000 A 
ATOM     15  C   UNL     1       2.057   2.229  18.153  0.00  0.00    +0.000 A 
ATOM     16  C   UNL     1       2.941   3.287  17.942  0.00  0.00    +0.000 A 
ATOM     17  C   UNL     1       2.778   4.434  18.703  0.00  0.00    +0.000 A 
ENDBRANCH   2   9
BRANCH   6  18
ATOM     18  O   UNL     1       7.265   5.189  14.285  0.00  0.00    +0.000 OA
BRANCH  18  19
ATOM     19  C   UNL     1       6.784   5.275  12.944  0.00  0.00    +0.000 C 
BRANCH  19  20
ATOM     20  C   UNL     1       6.637   3.908  12.322  0.00  0.00    +0.000 A 
ATOM     21  C   UNL     1       5.348   3.368  12.157  0.00  0.00    +0.000 A 
ATOM     22  C   UNL     1       5.170   2.124  11.551  0.00  0.00    +0.000 A 
ATOM     23  C   UNL     1       6.277   1.421  11.098  0.00  0.00    +0.000 A 
ATOM     24  F   UNL     1       6.108   0.228  10.512  0.00  0.00    +0.000 F 
ATOM     25  C   UNL     1       7.561   1.938  11.242  0.00  0.00    +0.000 A 
ATOM     26  C   UNL     1       7.741   3.182  11.848  0.00  0.00    +0.000 A 
ENDBRANCH  19  20
ENDBRANCH  18  19
ENDBRANCH   6  18
TORSDOF 4
ENDMDL
MODEL 5
REMARK VINA RESULT:      -8.1      2.257      2.673
REMARK  Name = 
REMARK  4 active torsions:
REMARK  status: ('A' for Active; 'I' for Inactive)
REMARK    1  A    between atoms: C_2  and  C_3
REMARK    2  A    between atoms: C_15  and  O_16
REMARK    3  A    between atoms: O_16  and  C_17
REMARK    4  A    between atoms: C_17  and  C_18
REMARK                            x       y       z     vdW  Elec       q    Type
REMARK                         _______ _______ _______ _____ _____    ______ ____
ROOT
ATOM      1  O   UNL     1      -0.259   9.698  21.527  0.00  0.00    +0.000 OA
ATOM      2  C   UNL     1       0.153  10.047  20.417  0.00  0.00    +0.000 C 
ATOM      3  N   UNL     1       1.209   9.387  19.802  0.00  0.00    +0.000 N 
ATOM      4  C   UNL     1       1.872   9.763  18.550  0.00  0.00    +0.000 C 
ATOM      5  C   UNL     1       1.768   8.628  17.531  0.00  0.00    +0.000 C 
ATOM      6  C   UNL     1       2.322   7.319  18.114  0.00  0.00    +0.000 C 
ATOM      7  C   UNL     1       1.584   7.003  19.424  0.00  0.00    +0.000 C 
ATOM      8  C   UNL     1       1.722   8.161  20.411  0.00  0.00    +0.000 C 
ENDROOT
BRANCH   2   9
ATOM      9  C   UNL     1      -0.495  11.194  19.663  0.00  0.00    +0.000 C 
ATOM     10  C   UNL     1      -1.160  12.193  20.611  0.00  0.00    +0.000 C 
ATOM     11  O   UNL     1      -2.336  12.744  19.962  0.00  0.00    +0.000 OA
ATOM     12  C   UNL     1      -2.670  11.787  19.038  0.00  0.00    +0.000 A 
ATOM     13  C   UNL     1      -3.851  11.765  18.326  0.00  0.00    +0.000 A 
ATOM     14  C   UNL     1      -4.046  10.723  17.414  0.00  0.00    +0.000 A 
ATOM     15  C   UNL     1      -3.059   9.739  17.230  0.00  0.00    +0.000 A 
ATOM     16  C   UNL     1      -1.860   9.796  17.941  0.00  0.00    +0.000 A 
ATOM     17  C   UNL     1      -1.688  10.829  18.847  0.00  0.00    +0.000 A 
ENDBRANCH   2   9
BRANCH   6  18
ATOM     18  O   UNL     1       3.734   7.495  18.314  0.00  0.00    +0.000 OA
BRANCH  18  19
ATOM     19  C   UNL     1       4.536   6.595  17.551  0.00  0.00    +0.000 C 
BRANCH  19  20
ATOM     20  C   UNL     1       4.274   5.160  17.938  0.00  0.00    +0.000 A 
ATOM     21  C   UNL     1       3.568   4.331  17.048  0.00  0.00    +0.000 A 
ATOM     22  C   UNL     1       3.340   2.989  17.353  0.00  0.00    +0.000 A 
ATOM     23  C   UNL     1       3.827   2.468  18.544  0.00  0.00    +0.000 A 
ATOM     24  F   UNL     1       3.613   1.179  18.838  0.00  0.00    +0.000 F 
ATOM     25  C   UNL     1       4.535   3.267  19.437  0.00  0.00    +0.000 A 
ATOM     26  C   UNL     1       4.764   4.610  19.133  0.00  0.00    +0.000 A 
ENDBRANCH  19  20
ENDBRANCH  18  19
ENDBRANCH   6  18
TORSDOF 4
ENDMDL
MODEL 6
REMARK VINA RESULT:      -8.0      1.584      1.957
REMARK  Name = 
REMARK  4 active torsions:
REMARK  status: ('A' for Active; 'I' for Inactive)
REMARK    1  A    between atoms: C_2  and  C_3
REMARK    2  A    between atoms: C_15  and  O_16
REMARK    3  A    between atoms: O_16  and  C_17
REMARK    4  A    between atoms: C_17  and  C_18
REMARK                            x       y       z     vdW  Elec       q    Type
REMARK                         _______ _______ _______ _____ _____    ______ ____
ROOT
ATOM      1  O   UNL     1      -0.101   9.859  21.558  0.00  0.00    +0.000 OA
ATOM      2  C   UNL     1       0.254  10.146  20.410  0.00  0.00    +0.000 C 
ATOM      3  N   UNL     1       1.265   9.438  19.772  0.00  0.00    +0.000 N 
ATOM      4  C   UNL     1       1.863   9.741  18.469  0.00  0.00    +0.000 C 
ATOM      5  C   UNL     1       1.685   8.558  17.515  0.00  0.00    +0.000 C 
ATOM      6  C   UNL     1       2.252   7.270  18.131  0.00  0.00    +0.000 C 
ATOM      7  C   UNL     1       1.583   7.032  19.494  0.00  0.00    +0.000 C 
ATOM      8  C   UNL     1       1.792   8.235  20.413  0.00  0.00    +0.000 C 
ENDROOT
BRANCH   2   9
ATOM      9  C   UNL     1      -0.418  11.266  19.637  0.00  0.00    +0.000 C 
ATOM     10  C   UNL     1      -1.082  12.280  20.568  0.00  0.00    +0.000 C 
ATOM     11  O   UNL     1      -2.274  12.800  19.921  0.00  0.00    +0.000 OA
ATOM     12  C   UNL     1      -2.608  11.816  19.027  0.00  0.00    +0.000 A 
ATOM     13  C   UNL     1      -3.799  11.761  18.332  0.00  0.00    +0.000 A 
ATOM     14  C   UNL     1      -3.994  10.695  17.450  0.00  0.00    +0.000 A 
ATOM     15  C   UNL     1      -2.997   9.718  17.277  0.00  0.00    +0.000 A 
ATOM     16  C   UNL     1      -1.790   9.807  17.970  0.00  0.00    +0.000 A 
ATOM     17  C   UNL     1      -1.617  10.866  18.846  0.00  0.00    +0.000 A 
ENDBRANCH   2   9
BRANCH   6  18
ATOM     18  O   UNL     1       3.675   7.432  18.245  0.00  0.00    +0.000 OA
BRANCH  18  19
ATOM     19  C   UNL     1       4.367   6.217  18.531  0.00  0.00    +0.000 C 
BRANCH  19  20
ATOM     20  C   UNL     1       4.792   5.514  17.266  0.00  0.00    +0.000 A 
ATOM     21  C   UNL     1       5.213   6.282  16.165  0.00  0.00    +0.000 A 
ATOM     22  C   UNL     1       5.649   5.667  14.992  0.00  0.00    +0.000 A 
ATOM     23  C   UNL     1       5.677   4.281  14.918  0.00  0.00    +0.000 A 
ATOM     24  F   UNL     1       6.100   3.688  13.795  0.00  0.00    +0.000 F 
ATOM     25  C   UNL     1       5.273   3.499  15.997  0.00  0.00    +0.000 A 
ATOM     26  C   UNL     1       4.836   4.114  17.171  0.00  0.00    +0.000 A 
ENDBRANCH  19  20
ENDBRANCH  18  19
ENDBRANCH   6  18
TORSDOF 4
ENDMDL
MODEL 7
REMARK VINA RESULT:      -7.8      4.243      9.244
REMARK  Name = 
REMARK  4 active torsions:
REMARK  status: ('A' for Active; 'I' for Inactive)
REMARK    1  A    between atoms: C_2  and  C_3
REMARK    2  A    between atoms: C_15  and  O_16
REMARK    3  A    between atoms: O_16  and  C_17
REMARK    4  A    between atoms: C_17  and  C_18
REMARK                            x       y       z     vdW  Elec       q    Type
REMARK                         _______ _______ _______ _____ _____    ______ ____
ROOT
ATOM      1  O   UNL     1       2.850   7.181  17.655  0.00  0.00    +0.000 OA
ATOM      2  C   UNL     1       2.660   7.106  18.872  0.00  0.00    +0.000 C 
ATOM      3  N   UNL     1       2.036   8.133  19.568  0.00  0.00    +0.000 N 
ATOM      4  C   UNL     1       1.852   8.229  21.019  0.00  0.00    +0.000 C 
ATOM      5  C   UNL     1       0.365   8.325  21.362  0.00  0.00    +0.000 C 
ATOM      6  C   UNL     1      -0.293   9.495  20.613  0.00  0.00    +0.000 C 
ATOM      7  C   UNL     1      -0.047   9.324  19.106  0.00  0.00    +0.000 C 
ATOM      8  C   UNL     1       1.450   9.239  18.812  0.00  0.00    +0.000 C 
ENDROOT
BRANCH   2   9
ATOM      9  C   UNL     1       3.075   5.875  19.658  0.00  0.00    +0.000 C 
ATOM     10  C   UNL     1       4.557   5.552  19.466  0.00  0.00    +0.000 C 
ATOM     11  O   UNL     1       4.733   4.112  19.514  0.00  0.00    +0.000 OA
ATOM     12  C   UNL     1       3.497   3.626  19.170  0.00  0.00    +0.000 A 
ATOM     13  C   UNL     1       3.230   2.307  18.868  0.00  0.00    +0.000 A 
ATOM     14  C   UNL     1       1.916   1.963  18.540  0.00  0.00    +0.000 A 
ATOM     15  C   UNL     1       0.903   2.939  18.528  0.00  0.00    +0.000 A 
ATOM     16  C   UNL     1       1.190   4.262  18.862  0.00  0.00    +0.000 A 
ATOM     17  C   UNL     1       2.499   4.586  19.177  0.00  0.00    +0.000 A 
ENDBRANCH   2   9
BRANCH   6  18
ATOM     18  O   UNL     1       0.275  10.712  21.122  0.00  0.00    +0.000 OA
BRANCH  18  19
ATOM     19  C   UNL     1      -0.366  11.890  20.633  0.00  0.00    +0.000 C 
BRANCH  19  20
ATOM     20  C   UNL     1      -1.632  12.187  21.400  0.00  0.00    +0.000 A 
ATOM     21  C   UNL     1      -2.764  12.640  20.699  0.00  0.00    +0.000 A 
ATOM     22  C   UNL     1      -3.963  12.888  21.368  0.00  0.00    +0.000 A 
ATOM     23  C   UNL     1      -4.037  12.674  22.738  0.00  0.00    +0.000 A 
ATOM     24  F   UNL     1      -5.189  12.907  23.381  0.00  0.00    +0.000 F 
ATOM     25  C   UNL     1      -2.932  12.219  23.451  0.00  0.00    +0.000 A 
ATOM     26  C   UNL     1      -1.732  11.970  22.783  0.00  0.00    +0.000 A 
ENDBRANCH  19  20
ENDBRANCH  18  19
ENDBRANCH   6  18
TORSDOF 4
ENDMDL
MODEL 8
REMARK VINA RESULT:      -7.8      1.229      1.597
REMARK  Name = 
REMARK  4 active torsions:
REMARK  status: ('A' for Active; 'I' for Inactive)
REMARK    1  A    between atoms: C_2  and  C_3
REMARK    2  A    between atoms: C_15  and  O_16
REMARK    3  A    between atoms: O_16  and  C_17
REMARK    4  A    between atoms: C_17  and  C_18
REMARK                            x       y       z     vdW  Elec       q    Type
REMARK                         _______ _______ _______ _____ _____    ______ ____
ROOT
ATOM      1  O   UNL     1       0.251   8.817  21.528  0.00  0.00    +0.000 OA
ATOM      2  C   UNL     1       0.975   8.781  20.529  0.00  0.00    +0.000 C 
ATOM      3  N   UNL     1       1.724   7.651  20.223  0.00  0.00    +0.000 N 
ATOM      4  C   UNL     1       2.707   7.512  19.145  0.00  0.00    +0.000 C 
ATOM      5  C   UNL     1       2.302   6.380  18.199  0.00  0.00    +0.000 C 
ATOM      6  C   UNL     1       2.098   5.069  18.974  0.00  0.00    +0.000 C 
ATOM      7  C   UNL     1       1.065   5.302  20.087  0.00  0.00    +0.000 C 
ATOM      8  C   UNL     1       1.514   6.435  21.008  0.00  0.00    +0.000 C 
ENDROOT
BRANCH   2   9
ATOM      9  C   UNL     1       1.059   9.959  19.576  0.00  0.00    +0.000 C 
ATOM     10  C   UNL     1       1.180  11.287  20.324  0.00  0.00    +0.000 C 
ATOM     11  O   UNL     1       0.498  12.318  19.564  0.00  0.00    +0.000 OA
ATOM     12  C   UNL     1      -0.406  11.614  18.809  0.00  0.00    +0.000 A 
ATOM     13  C   UNL     1      -1.432  12.184  18.084  0.00  0.00    +0.000 A 
ATOM     14  C   UNL     1      -2.271  11.334  17.359  0.00  0.00    +0.000 A 
ATOM     15  C   UNL     1      -2.062   9.943  17.368  0.00  0.00    +0.000 A 
ATOM     16  C   UNL     1      -1.002   9.391  18.086  0.00  0.00    +0.000 A 
ATOM     17  C   UNL     1      -0.185  10.247  18.806  0.00  0.00    +0.000 A 
ENDBRANCH   2   9
BRANCH   6  18
ATOM     18  O   UNL     1       3.375   4.667  19.494  0.00  0.00    +0.000 OA
BRANCH  18  19
ATOM     19  C   UNL     1       4.256   4.143  18.501  0.00  0.00    +0.000 C 
BRANCH  19  20
ATOM     20  C   UNL     1       5.313   5.148  18.115  0.00  0.00    +0.000 A 
ATOM     21  C   UNL     1       6.395   5.370  18.988  0.00  0.00    +0.000 A 
ATOM     22  C   UNL     1       7.411   6.263  18.648  0.00  0.00    +0.000 A 
ATOM     23  C   UNL     1       7.357   6.929  17.432  0.00  0.00    +0.000 A 
ATOM     24  F   UNL     1       8.334   7.784  17.102  0.00  0.00    +0.000 F 
ATOM     25  C   UNL     1       6.301   6.719  16.549  0.00  0.00    +0.000 A 
ATOM     26  C   UNL     1       5.284   5.827  16.887  0.00  0.00    +0.000 A 
ENDBRANCH  19  20
ENDBRANCH  18  19
ENDBRANCH   6  18
TORSDOF 4
ENDMDL
MODEL 9
REMARK VINA RESULT:      -7.8      3.049      8.420
REMARK  Name = 
REMARK  4 active torsions:
REMARK  status: ('A' for Active; 'I' for Inactive)
REMARK    1  A    between atoms: C_2  and  C_3
REMARK    2  A    between atoms: C_15  and  O_16
REMARK    3  A    between atoms: O_16  and  C_17
REMARK    4  A    between atoms: C_17  and  C_18
REMARK                            x       y       z     vdW  Elec       q    Type
REMARK                         _______ _______ _______ _____ _____    ______ ____
ROOT
ATOM      1  O   UNL     1       3.066   4.824  20.099  0.00  0.00    +0.000 OA
ATOM      2  C   UNL     1       2.791   5.500  19.103  0.00  0.00    +0.000 C 
ATOM      3  N   UNL     1       1.951   6.603  19.193  0.00  0.00    +0.000 N 
ATOM      4  C   UNL     1       1.448   7.418  18.083  0.00  0.00    +0.000 C 
ATOM      5  C   UNL     1       1.875   8.877  18.260  0.00  0.00    +0.000 C 
ATOM      6  C   UNL     1       1.427   9.414  19.628  0.00  0.00    +0.000 C 
ATOM      7  C   UNL     1       1.985   8.501  20.730  0.00  0.00    +0.000 C 
ATOM      8  C   UNL     1       1.528   7.059  20.516  0.00  0.00    +0.000 C 
ENDROOT
BRANCH   2   9
ATOM      9  C   UNL     1       3.380   5.172  17.743  0.00  0.00    +0.000 C 
ATOM     10  C   UNL     1       3.624   3.672  17.576  0.00  0.00    +0.000 C 
ATOM     11  O   UNL     1       4.800   3.478  16.748  0.00  0.00    +0.000 OA
ATOM     12  C   UNL     1       5.500   4.647  16.906  0.00  0.00    +0.000 A 
ATOM     13  C   UNL     1       6.797   4.846  16.481  0.00  0.00    +0.000 A 
ATOM     14  C   UNL     1       7.376   6.097  16.710  0.00  0.00    +0.000 A 
ATOM     15  C   UNL     1       6.647   7.117  17.347  0.00  0.00    +0.000 A 
ATOM     16  C   UNL     1       5.327   6.903  17.745  0.00  0.00    +0.000 A 
ATOM     17  C   UNL     1       4.773   5.654  17.518  0.00  0.00    +0.000 A 
ENDBRANCH   2   9
BRANCH   6  18
ATOM     18  O   UNL     1      -0.009   9.454  19.630  0.00  0.00    +0.000 OA
BRANCH  18  19
ATOM     19  C   UNL     1      -0.544  10.756  19.391  0.00  0.00    +0.000 C 
BRANCH  19  20
ATOM     20  C   UNL     1      -1.651  10.716  18.366  0.00  0.00    +0.000 A 
ATOM     21  C   UNL     1      -2.782  11.533  18.551  0.00  0.00    +0.000 A 
ATOM     22  C   UNL     1      -3.808  11.553  17.607  0.00  0.00    +0.000 A 
ATOM     23  C   UNL     1      -3.703  10.765  16.468  0.00  0.00    +0.000 A 
ATOM     24  F   UNL     1      -4.685  10.785  15.558  0.00  0.00    +0.000 F 
ATOM     25  C   UNL     1      -2.590   9.955  16.260  0.00  0.00    +0.000 A 
ATOM     26  C   UNL     1      -1.563   9.934  17.204  0.00  0.00    +0.000 A 
ENDBRANCH  19  20
ENDBRANCH  18  19
ENDBRANCH   6  18
TORSDOF 4
ENDMDL
