MODEL 1
REMARK VINA RESULT:      -7.3      0.000      0.000
REMARK  Name = 
REMARK  10 active torsions:
REMARK  status: ('A' for Active; 'I' for Inactive)
REMARK    1  A    between atoms: C_1  and  O_2
REMARK    2  A    between atoms: O_2  and  C_3
REMARK    3  A    between atoms: C_3  and  C_4
REMARK    4  A    between atoms: C_7  and  C_8
REMARK    5  A    between atoms: N_10  and  C_11
REMARK    6  A    between atoms: C_11  and  C_12
REMARK    7  A    between atoms: C_16  and  C_17
REMARK    8  A    between atoms: C_16  and  C_18
REMARK    9  A    between atoms: C_22  and  C_23
REMARK   10  A    between atoms: C_23  and  C_24
REMARK                            x       y       z     vdW  Elec       q    Type
REMARK                         _______ _______ _______ _____ _____    ______ ____
ROOT
ATOM      1  C   UNL     1       2.100   8.420  18.258  0.00  0.00    +0.000 C 
ATOM      2  O   UNL     1       2.343   9.110  17.269  0.00  0.00    +0.000 OA
ATOM      3  N   UNL     1       1.594   8.930  19.453  0.00  0.00    +0.000 N 
ATOM      4  C   UNL     1       1.324   8.147  20.681  0.00  0.00    +0.000 C 
ATOM      5  C   UNL     1       0.824   9.122  21.768  0.00  0.00    +0.000 C 
ATOM      6  C   UNL     1      -0.571   8.738  22.262  0.00  0.00    +0.000 C 
ATOM      7  C   UNL     1       1.822   9.204  22.925  0.00  0.00    +0.000 C 
ATOM      8  C   UNL     1       0.777  10.419  20.995  0.00  0.00    +0.000 A 
ATOM      9  N   UNL     1       0.317  11.578  21.507  0.00  0.00    +0.000 NA
ATOM     10  C   UNL     1       0.341  12.629  20.649  0.00  0.00    +0.000 A 
ATOM     11  C   UNL     1       0.829  12.580  19.336  0.00  0.00    +0.000 A 
ATOM     12  C   UNL     1       1.291  11.348  18.858  0.00  0.00    +0.000 A 
ATOM     13  C   UNL     1       1.247  10.259  19.699  0.00  0.00    +0.000 A 
ENDROOT
BRANCH   1  14
ATOM     14  C   UNL     1       2.350   6.906  18.289  0.00  0.00    +0.000 C 
BRANCH  14  21
ATOM     15  C   UNL     1       4.044   5.366  19.190  0.00  0.00    +0.000 C 
ATOM     16  C   UNL     1       5.577   5.102  19.241  0.00  0.00    +0.000 C 
ATOM     17  N   UNL     1       6.203   4.913  17.914  0.00  0.00    +0.000 NA
ATOM     18  C   UNL     1       5.861   6.038  17.016  0.00  0.00    +0.000 C 
ATOM     19  C   UNL     1       6.641   7.302  17.396  0.00  0.00    +0.000 C 
ATOM     20  C   UNL     1       4.336   6.319  16.960  0.00  0.00    +0.000 C 
ATOM     21  N   UNL     1       3.770   6.536  18.304  0.00  0.00    +0.000 NA
ATOM     22  H   UNL     1       5.824   4.057  17.512  0.00  0.00    +0.000 HD
BRANCH  15  23
ATOM     23  C   UNL     1       3.296   4.054  18.816  0.00  0.00    +0.000 C 
BRANCH  23  25
ATOM     24  C   UNL     1       3.637   1.726  18.680  0.00  0.00    +0.000 C 
ATOM     25  O   UNL     1       4.231   3.010  18.529  0.00  0.00    +0.000 OA
ENDBRANCH  23  25
ENDBRANCH  15  23
ENDBRANCH  14  21
ENDBRANCH   1  14
BRANCH  11  26
ATOM     26  C   UNL     1       0.876  13.803  18.458  0.00  0.00    +0.000 C 
BRANCH  26  27
ATOM     27  C   UNL     1       2.086  14.691  18.642  0.00  0.00    +0.000 A 
ATOM     28  C   UNL     1       3.296  14.386  18.004  0.00  0.00    +0.000 A 
ATOM     29  C   UNL     1       4.392  15.246  18.109  0.00  0.00    +0.000 A 
ATOM     30  C   UNL     1       4.289  16.423  18.847  0.00  0.00    +0.000 A 
ATOM     31  C   UNL     1       3.097  16.730  19.500  0.00  0.00    +0.000 A 
ATOM     32  C   UNL     1       2.005  15.862  19.410  0.00  0.00    +0.000 A 
ENDBRANCH  26  27
ENDBRANCH  11  26
TORSDOF 6
ENDMDL
MODEL 2
REMARK VINA RESULT:      -7.3      2.600      8.694
REMARK  Name = 
REMARK  10 active torsions:
REMARK  status: ('A' for Active; 'I' for Inactive)
REMARK    1  A    between atoms: C_1  and  O_2
REMARK    2  A    between atoms: O_2  and  C_3
REMARK    3  A    between atoms: C_3  and  C_4
REMARK    4  A    between atoms: C_7  and  C_8
REMARK    5  A    between atoms: N_10  and  C_11
REMARK    6  A    between atoms: C_11  and  C_12
REMARK    7  A    between atoms: C_16  and  C_17
REMARK    8  A    between atoms: C_16  and  C_18
REMARK    9  A    between atoms: C_22  and  C_23
REMARK   10  A    between atoms: C_23  and  C_24
REMARK                            x       y       z     vdW  Elec       q    Type
REMARK                         _______ _______ _______ _____ _____    ______ ____
ROOT
ATOM      1  C   UNL     1       2.209   8.279  18.775  0.00  0.00    +0.000 C 
ATOM      2  O   UNL     1       2.858   8.938  17.965  0.00  0.00    +0.000 OA
ATOM      3  N   UNL     1       2.429   6.925  19.026  0.00  0.00    +0.000 N 
ATOM      4  C   UNL     1       1.650   6.082  19.960  0.00  0.00    +0.000 C 
ATOM      5  C   UNL     1       2.204   4.643  19.881  0.00  0.00    +0.000 C 
ATOM      6  C   UNL     1       2.709   4.165  21.243  0.00  0.00    +0.000 C 
ATOM      7  C   UNL     1       1.156   3.687  19.307  0.00  0.00    +0.000 C 
ATOM      8  C   UNL     1       3.357   4.830  18.922  0.00  0.00    +0.000 A 
ATOM      9  N   UNL     1       4.218   3.848  18.588  0.00  0.00    +0.000 NA
ATOM     10  C   UNL     1       5.196   4.217  17.724  0.00  0.00    +0.000 A 
ATOM     11  C   UNL     1       5.328   5.495  17.162  0.00  0.00    +0.000 A 
ATOM     12  C   UNL     1       4.406   6.475  17.549  0.00  0.00    +0.000 A 
ATOM     13  C   UNL     1       3.423   6.133  18.450  0.00  0.00    +0.000 A 
ENDROOT
BRANCH   1  14
ATOM     14  C   UNL     1       1.058   8.880  19.595  0.00  0.00    +0.000 C 
BRANCH  14  21
ATOM     15  C   UNL     1      -0.007  10.853  18.582  0.00  0.00    +0.000 C 
ATOM     16  C   UNL     1       0.067  12.406  18.519  0.00  0.00    +0.000 C 
ATOM     17  N   UNL     1      -0.090  13.072  19.831  0.00  0.00    +0.000 NA
ATOM     18  C   UNL     1       0.860  12.508  20.815  0.00  0.00    +0.000 C 
ATOM     19  C   UNL     1       2.288  12.997  20.544  0.00  0.00    +0.000 C 
ATOM     20  C   UNL     1       0.803  10.960  20.884  0.00  0.00    +0.000 C 
ATOM     21  N   UNL     1       1.002  10.346  19.559  0.00  0.00    +0.000 NA
ATOM     22  H   UNL     1      -1.037  12.890  20.159  0.00  0.00    +0.000 HD
BRANCH  15  23
ATOM     23  C   UNL     1      -1.474  10.406  18.843  0.00  0.00    +0.000 C 
BRANCH  23  25
ATOM     24  C   UNL     1      -3.274  11.076  17.476  0.00  0.00    +0.000 C 
ATOM     25  O   UNL     1      -2.383  11.461  18.517  0.00  0.00    +0.000 OA
ENDBRANCH  23  25
ENDBRANCH  15  23
ENDBRANCH  14  21
ENDBRANCH   1  14
BRANCH  11  26
ATOM     26  C   UNL     1       6.408   5.818  16.164  0.00  0.00    +0.000 C 
BRANCH  26  27
ATOM     27  C   UNL     1       6.312   5.091  14.841  0.00  0.00    +0.000 A 
ATOM     28  C   UNL     1       7.395   5.089  13.950  0.00  0.00    +0.000 A 
ATOM     29  C   UNL     1       7.338   4.355  12.763  0.00  0.00    +0.000 A 
ATOM     30  C   UNL     1       6.201   3.609  12.456  0.00  0.00    +0.000 A 
ATOM     31  C   UNL     1       5.112   3.615  13.325  0.00  0.00    +0.000 A 
ATOM     32  C   UNL     1       5.161   4.363  14.505  0.00  0.00    +0.000 A 
ENDBRANCH  26  27
ENDBRANCH  11  26
TORSDOF 6
ENDMDL
MODEL 3
REMARK VINA RESULT:      -7.2      2.693      8.651
REMARK  Name = 
REMARK  10 active torsions:
REMARK  status: ('A' for Active; 'I' for Inactive)
REMARK    1  A    between atoms: C_1  and  O_2
REMARK    2  A    between atoms: O_2  and  C_3
REMARK    3  A    between atoms: C_3  and  C_4
REMARK    4  A    between atoms: C_7  and  C_8
REMARK    5  A    between atoms: N_10  and  C_11
REMARK    6  A    between atoms: C_11  and  C_12
REMARK    7  A    between atoms: C_16  and  C_17
REMARK    8  A    between atoms: C_16  and  C_18
REMARK    9  A    between atoms: C_22  and  C_23
REMARK   10  A    between atoms: C_23  and  C_24
REMARK                            x       y       z     vdW  Elec       q    Type
REMARK                         _______ _______ _______ _____ _____    ______ ____
ROOT
ATOM      1  C   UNL     1       2.170   8.101  17.831  0.00  0.00    +0.000 C 
ATOM      2  O   UNL     1       2.903   8.689  17.037  0.00  0.00    +0.000 OA
ATOM      3  N   UNL     1       2.427   6.820  18.319  0.00  0.00    +0.000 N 
ATOM      4  C   UNL     1       1.558   6.058  19.244  0.00  0.00    +0.000 C 
ATOM      5  C   UNL     1       2.203   4.674  19.473  0.00  0.00    +0.000 C 
ATOM      6  C   UNL     1       2.506   4.440  20.954  0.00  0.00    +0.000 C 
ATOM      7  C   UNL     1       1.321   3.561  18.902  0.00  0.00    +0.000 C 
ATOM      8  C   UNL     1       3.483   4.817  18.684  0.00  0.00    +0.000 A 
ATOM      9  N   UNL     1       4.444   3.872  18.641  0.00  0.00    +0.000 NA
ATOM     10  C   UNL     1       5.526   4.194  17.889  0.00  0.00    +0.000 A 
ATOM     11  C   UNL     1       5.671   5.384  17.162  0.00  0.00    +0.000 A 
ATOM     12  C   UNL     1       4.642   6.329  17.248  0.00  0.00    +0.000 A 
ATOM     13  C   UNL     1       3.547   6.039  18.031  0.00  0.00    +0.000 A 
ENDROOT
BRANCH   1  14
ATOM     14  C   UNL     1       0.868   8.715  18.363  0.00  0.00    +0.000 C 
BRANCH  14  21
ATOM     15  C   UNL     1       1.033  10.973  19.325  0.00  0.00    +0.000 C 
ATOM     16  C   UNL     1       1.326  11.738  20.649  0.00  0.00    +0.000 C 
ATOM     17  N   UNL     1       0.407  11.401  21.758  0.00  0.00    +0.000 NA
ATOM     18  C   UNL     1       0.356   9.936  21.961  0.00  0.00    +0.000 C 
ATOM     19  C   UNL     1       1.636   9.429  22.637  0.00  0.00    +0.000 C 
ATOM     20  C   UNL     1       0.072   9.159  20.649  0.00  0.00    +0.000 C 
ATOM     21  N   UNL     1       1.037   9.504  19.589  0.00  0.00    +0.000 NA
ATOM     22  H   UNL     1      -0.524  11.720  21.497  0.00  0.00    +0.000 HD
BRANCH  15  23
ATOM     23  C   UNL     1      -0.262  11.532  18.671  0.00  0.00    +0.000 C 
BRANCH  23  25
ATOM     24  C   UNL     1      -2.279  12.324  19.597  0.00  0.00    +0.000 C 
ATOM     25  O   UNL     1      -0.871  12.509  19.520  0.00  0.00    +0.000 OA
ENDBRANCH  23  25
ENDBRANCH  15  23
ENDBRANCH  14  21
ENDBRANCH   1  14
BRANCH  11  26
ATOM     26  C   UNL     1       6.879   5.650  16.303  0.00  0.00    +0.000 C 
BRANCH  26  27
ATOM     27  C   UNL     1       6.842   5.037  14.921  0.00  0.00    +0.000 A 
ATOM     28  C   UNL     1       5.877   4.074  14.594  0.00  0.00    +0.000 A 
ATOM     29  C   UNL     1       5.792   3.563  13.297  0.00  0.00    +0.000 A 
ATOM     30  C   UNL     1       6.666   4.015  12.309  0.00  0.00    +0.000 A 
ATOM     31  C   UNL     1       7.640   4.960  12.624  0.00  0.00    +0.000 A 
ATOM     32  C   UNL     1       7.737   5.458  13.926  0.00  0.00    +0.000 A 
ENDBRANCH  26  27
ENDBRANCH  11  26
TORSDOF 6
ENDMDL
MODEL 4
REMARK VINA RESULT:      -7.1      0.912      1.357
REMARK  Name = 
REMARK  10 active torsions:
REMARK  status: ('A' for Active; 'I' for Inactive)
REMARK    1  A    between atoms: C_1  and  O_2
REMARK    2  A    between atoms: O_2  and  C_3
REMARK    3  A    between atoms: C_3  and  C_4
REMARK    4  A    between atoms: C_7  and  C_8
REMARK    5  A    between atoms: N_10  and  C_11
REMARK    6  A    between atoms: C_11  and  C_12
REMARK    7  A    between atoms: C_16  and  C_17
REMARK    8  A    between atoms: C_16  and  C_18
REMARK    9  A    between atoms: C_22  and  C_23
REMARK   10  A    between atoms: C_23  and  C_24
REMARK                            x       y       z     vdW  Elec       q    Type
REMARK                         _______ _______ _______ _____ _____    ______ ____
ROOT
ATOM      1  C   UNL     1       2.203   8.173  18.251  0.00  0.00    +0.000 C 
ATOM      2  O   UNL     1       2.509   8.819  17.251  0.00  0.00    +0.000 OA
ATOM      3  N   UNL     1       1.679   8.742  19.411  0.00  0.00    +0.000 N 
ATOM      4  C   UNL     1       1.333   8.012  20.652  0.00  0.00    +0.000 C 
ATOM      5  C   UNL     1       0.838   9.041  21.690  0.00  0.00    +0.000 C 
ATOM      6  C   UNL     1      -0.589   8.732  22.145  0.00  0.00    +0.000 C 
ATOM      7  C   UNL     1       1.798   9.120  22.879  0.00  0.00    +0.000 C 
ATOM      8  C   UNL     1       0.873  10.313  20.875  0.00  0.00    +0.000 A 
ATOM      9  N   UNL     1       0.446  11.506  21.334  0.00  0.00    +0.000 NA
ATOM     10  C   UNL     1       0.544  12.527  20.445  0.00  0.00    +0.000 A 
ATOM     11  C   UNL     1       1.074  12.415  19.152  0.00  0.00    +0.000 A 
ATOM     12  C   UNL     1       1.499  11.150  18.730  0.00  0.00    +0.000 A 
ATOM     13  C   UNL     1       1.380  10.091  19.603  0.00  0.00    +0.000 A 
ENDROOT
BRANCH   1  14
ATOM     14  C   UNL     1       2.387   6.651  18.338  0.00  0.00    +0.000 C 
BRANCH  14  21
ATOM     15  C   UNL     1       4.070   5.201  19.394  0.00  0.00    +0.000 C 
ATOM     16  C   UNL     1       5.591   4.873  19.406  0.00  0.00    +0.000 C 
ATOM     17  N   UNL     1       6.126   4.435  18.098  0.00  0.00    +0.000 NA
ATOM     18  C   UNL     1       5.775   5.410  17.043  0.00  0.00    +0.000 C 
ATOM     19  C   UNL     1       6.627   6.679  17.160  0.00  0.00    +0.000 C 
ATOM     20  C   UNL     1       4.262   5.753  17.023  0.00  0.00    +0.000 C 
ATOM     21  N   UNL     1       3.789   6.218  18.338  0.00  0.00    +0.000 NA
ATOM     22  H   UNL     1       5.690   3.544  17.868  0.00  0.00    +0.000 HD
BRANCH  15  23
ATOM     23  C   UNL     1       3.249   3.884  19.289  0.00  0.00    +0.000 C 
BRANCH  23  25
ATOM     24  C   UNL     1       3.594   1.674  18.545  0.00  0.00    +0.000 C 
ATOM     25  O   UNL     1       4.119   2.749  19.316  0.00  0.00    +0.000 OA
ENDBRANCH  23  25
ENDBRANCH  15  23
ENDBRANCH  14  21
ENDBRANCH   1  14
BRANCH  11  26
ATOM     26  C   UNL     1       1.204  13.606  18.239  0.00  0.00    +0.000 C 
BRANCH  26  27
ATOM     27  C   UNL     1       0.989  14.953  18.890  0.00  0.00    +0.000 A 
ATOM     28  C   UNL     1       2.047  15.610  19.534  0.00  0.00    +0.000 A 
ATOM     29  C   UNL     1       1.871  16.888  20.068  0.00  0.00    +0.000 A 
ATOM     30  C   UNL     1       0.638  17.528  19.960  0.00  0.00    +0.000 A 
ATOM     31  C   UNL     1      -0.428  16.879  19.338  0.00  0.00    +0.000 A 
ATOM     32  C   UNL     1      -0.257  15.594  18.818  0.00  0.00    +0.000 A 
ENDBRANCH  26  27
ENDBRANCH  11  26
TORSDOF 6
ENDMDL
MODEL 5
REMARK VINA RESULT:      -6.8      3.566      9.489
REMARK  Name = 
REMARK  10 active torsions:
REMARK  status: ('A' for Active; 'I' for Inactive)
REMARK    1  A    between atoms: C_1  and  O_2
REMARK    2  A    between atoms: O_2  and  C_3
REMARK    3  A    between atoms: C_3  and  C_4
REMARK    4  A    between atoms: C_7  and  C_8
REMARK    5  A    between atoms: N_10  and  C_11
REMARK    6  A    between atoms: C_11  and  C_12
REMARK    7  A    between atoms: C_16  and  C_17
REMARK    8  A    between atoms: C_16  and  C_18
REMARK    9  A    between atoms: C_22  and  C_23
REMARK   10  A    between atoms: C_23  and  C_24
REMARK                            x       y       z     vdW  Elec       q    Type
REMARK                         _______ _______ _______ _____ _____    ______ ____
ROOT
ATOM      1  C   UNL     1      -0.577  10.214  22.442  0.00  0.00    +0.000 C 
ATOM      2  O   UNL     1       0.094   9.391  23.061  0.00  0.00    +0.000 OA
ATOM      3  N   UNL     1      -0.476  10.418  21.066  0.00  0.00    +0.000 N 
ATOM      4  C   UNL     1      -1.232  11.422  20.283  0.00  0.00    +0.000 C 
ATOM      5  C   UNL     1      -0.767  11.331  18.814  0.00  0.00    +0.000 C 
ATOM      6  C   UNL     1      -1.933  11.004  17.880  0.00  0.00    +0.000 C 
ATOM      7  C   UNL     1      -0.055  12.617  18.388  0.00  0.00    +0.000 C 
ATOM      8  C   UNL     1       0.199  10.171  18.887  0.00  0.00    +0.000 A 
ATOM      9  N   UNL     1       0.821   9.648  17.812  0.00  0.00    +0.000 NA
ATOM     10  C   UNL     1       1.638   8.599  18.081  0.00  0.00    +0.000 A 
ATOM     11  C   UNL     1       1.882   8.082  19.361  0.00  0.00    +0.000 A 
ATOM     12  C   UNL     1       1.204   8.664  20.439  0.00  0.00    +0.000 A 
ATOM     13  C   UNL     1       0.345   9.709  20.187  0.00  0.00    +0.000 A 
ENDROOT
BRANCH   1  14
ATOM     14  C   UNL     1      -1.598  11.132  23.128  0.00  0.00    +0.000 C 
BRANCH  14  21
ATOM     15  C   UNL     1      -3.077  12.943  22.364  0.00  0.00    +0.000 C 
ATOM     16  C   UNL     1      -3.077  14.327  21.652  0.00  0.00    +0.000 C 
ATOM     17  N   UNL     1      -2.271  15.360  22.339  0.00  0.00    +0.000 NA
ATOM     18  C   UNL     1      -0.901  14.863  22.593  0.00  0.00    +0.000 C 
ATOM     19  C   UNL     1      -0.077  14.835  21.300  0.00  0.00    +0.000 C 
ATOM     20  C   UNL     1      -0.885  13.481  23.296  0.00  0.00    +0.000 C 
ATOM     21  N   UNL     1      -1.671  12.480  22.553  0.00  0.00    +0.000 NA
ATOM     22  H   UNL     1      -2.713  15.551  23.237  0.00  0.00    +0.000 HD
BRANCH  15  23
ATOM     23  C   UNL     1      -3.936  13.018  23.659  0.00  0.00    +0.000 C 
BRANCH  23  25
ATOM     24  C   UNL     1      -6.175  13.756  23.666  0.00  0.00    +0.000 C 
ATOM     25  O   UNL     1      -4.809  14.151  23.615  0.00  0.00    +0.000 OA
ENDBRANCH  23  25
ENDBRANCH  15  23
ENDBRANCH  14  21
ENDBRANCH   1  14
BRANCH  11  26
ATOM     26  C   UNL     1       2.847   6.948  19.591  0.00  0.00    +0.000 C 
BRANCH  26  27
ATOM     27  C   UNL     1       2.250   5.561  19.527  0.00  0.00    +0.000 A 
ATOM     28  C   UNL     1       1.801   4.925  20.694  0.00  0.00    +0.000 A 
ATOM     29  C   UNL     1       1.178   3.676  20.628  0.00  0.00    +0.000 A 
ATOM     30  C   UNL     1       0.990   3.052  19.397  0.00  0.00    +0.000 A 
ATOM     31  C   UNL     1       1.446   3.666  18.231  0.00  0.00    +0.000 A 
ATOM     32  C   UNL     1       2.085   4.907  18.297  0.00  0.00    +0.000 A 
ENDBRANCH  26  27
ENDBRANCH  11  26
TORSDOF 6
ENDMDL
MODEL 6
REMARK VINA RESULT:      -6.8      2.379      8.247
REMARK  Name = 
REMARK  10 active torsions:
REMARK  status: ('A' for Active; 'I' for Inactive)
REMARK    1  A    between atoms: C_1  and  O_2
REMARK    2  A    between atoms: O_2  and  C_3
REMARK    3  A    between atoms: C_3  and  C_4
REMARK    4  A    between atoms: C_7  and  C_8
REMARK    5  A    between atoms: N_10  and  C_11
REMARK    6  A    between atoms: C_11  and  C_12
REMARK    7  A    between atoms: C_16  and  C_17
REMARK    8  A    between atoms: C_16  and  C_18
REMARK    9  A    between atoms: C_22  and  C_23
REMARK   10  A    between atoms: C_23  and  C_24
REMARK                            x       y       z     vdW  Elec       q    Type
REMARK                         _______ _______ _______ _____ _____    ______ ____
ROOT
ATOM      1  C   UNL     1       1.501  11.263  18.570  0.00  0.00    +0.000 C 
ATOM      2  O   UNL     1       2.086  11.058  17.508  0.00  0.00    +0.000 OA
ATOM      3  N   UNL     1       1.275  10.280  19.533  0.00  0.00    +0.000 N 
ATOM      4  C   UNL     1       0.544  10.469  20.806  0.00  0.00    +0.000 C 
ATOM      5  C   UNL     1       0.489   9.108  21.533  0.00  0.00    +0.000 C 
ATOM      6  C   UNL     1       1.151   9.185  22.910  0.00  0.00    +0.000 C 
ATOM      7  C   UNL     1      -0.952   8.603  21.634  0.00  0.00    +0.000 C 
ATOM      8  C   UNL     1       1.305   8.248  20.597  0.00  0.00    +0.000 A 
ATOM      9  N   UNL     1       1.616   6.960  20.846  0.00  0.00    +0.000 NA
ATOM     10  C   UNL     1       2.371   6.361  19.891  0.00  0.00    +0.000 A 
ATOM     11  C   UNL     1       2.793   6.974  18.702  0.00  0.00    +0.000 A 
ATOM     12  C   UNL     1       2.443   8.314  18.500  0.00  0.00    +0.000 A 
ATOM     13  C   UNL     1       1.703   8.953  19.470  0.00  0.00    +0.000 A 
ENDROOT
BRANCH   1  14
ATOM     14  C   UNL     1       0.934  12.639  18.947  0.00  0.00    +0.000 C 
BRANCH  14  21
ATOM     15  C   UNL     1       1.192  15.078  18.769  0.00  0.00    +0.000 C 
ATOM     16  C   UNL     1       2.223  16.194  18.430  0.00  0.00    +0.000 C 
ATOM     17  N   UNL     1       3.422  16.194  19.296  0.00  0.00    +0.000 NA
ATOM     18  C   UNL     1       4.042  14.850  19.320  0.00  0.00    +0.000 C 
ATOM     19  C   UNL     1       4.779  14.561  18.006  0.00  0.00    +0.000 C 
ATOM     20  C   UNL     1       3.026  13.726  19.649  0.00  0.00    +0.000 C 
ATOM     21  N   UNL     1       1.870  13.749  18.735  0.00  0.00    +0.000 NA
ATOM     22  H   UNL     1       3.122  16.423  20.242  0.00  0.00    +0.000 HD
BRANCH  15  23
ATOM     23  C   UNL     1       0.462  15.424  20.099  0.00  0.00    +0.000 C 
BRANCH  23  25
ATOM     24  C   UNL     1      -0.343  17.441  21.015  0.00  0.00    +0.000 C 
ATOM     25  O   UNL     1       0.799  16.747  20.526  0.00  0.00    +0.000 OA
ENDBRANCH  23  25
ENDBRANCH  15  23
ENDBRANCH  14  21
ENDBRANCH   1  14
BRANCH  11  26
ATOM     26  C   UNL     1       3.584   6.228  17.660  0.00  0.00    +0.000 C 
BRANCH  26  27
ATOM     27  C   UNL     1       5.079   6.185  17.883  0.00  0.00    +0.000 A 
ATOM     28  C   UNL     1       5.938   6.978  17.109  0.00  0.00    +0.000 A 
ATOM     29  C   UNL     1       7.310   6.999  17.365  0.00  0.00    +0.000 A 
ATOM     30  C   UNL     1       7.840   6.233  18.402  0.00  0.00    +0.000 A 
ATOM     31  C   UNL     1       7.000   5.428  19.169  0.00  0.00    +0.000 A 
ATOM     32  C   UNL     1       5.629   5.394  18.902  0.00  0.00    +0.000 A 
ENDBRANCH  26  27
ENDBRANCH  11  26
TORSDOF 6
ENDMDL
MODEL 7
REMARK VINA RESULT:      -6.7      3.740      9.595
REMARK  Name = 
REMARK  10 active torsions:
REMARK  status: ('A' for Active; 'I' for Inactive)
REMARK    1  A    between atoms: C_1  and  O_2
REMARK    2  A    between atoms: O_2  and  C_3
REMARK    3  A    between atoms: C_3  and  C_4
REMARK    4  A    between atoms: C_7  and  C_8
REMARK    5  A    between atoms: N_10  and  C_11
REMARK    6  A    between atoms: C_11  and  C_12
REMARK    7  A    between atoms: C_16  and  C_17
REMARK    8  A    between atoms: C_16  and  C_18
REMARK    9  A    between atoms: C_22  and  C_23
REMARK   10  A    between atoms: C_23  and  C_24
REMARK                            x       y       z     vdW  Elec       q    Type
REMARK                         _______ _______ _______ _____ _____    ______ ____
ROOT
ATOM      1  C   UNL     1      -0.779  11.000  22.404  0.00  0.00    +0.000 C 
ATOM      2  O   UNL     1      -0.020  10.291  23.063  0.00  0.00    +0.000 OA
ATOM      3  N   UNL     1      -0.805  11.018  21.010  0.00  0.00    +0.000 N 
ATOM      4  C   UNL     1      -1.671  11.881  20.174  0.00  0.00    +0.000 C 
ATOM      5  C   UNL     1      -1.330  11.607  18.693  0.00  0.00    +0.000 C 
ATOM      6  C   UNL     1      -2.556  11.117  17.921  0.00  0.00    +0.000 C 
ATOM      7  C   UNL     1      -0.717  12.847  18.038  0.00  0.00    +0.000 C 
ATOM      8  C   UNL     1      -0.310  10.501  18.831  0.00  0.00    +0.000 A 
ATOM      9  N   UNL     1       0.241   9.859  17.781  0.00  0.00    +0.000 NA
ATOM     10  C   UNL     1       1.125   8.883  18.111  0.00  0.00    +0.000 A 
ATOM     11  C   UNL     1       1.502   8.553  19.421  0.00  0.00    +0.000 A 
ATOM     12  C   UNL     1       0.893   9.253  20.470  0.00  0.00    +0.000 A 
ATOM     13  C   UNL     1      -0.032  10.225  20.162  0.00  0.00    +0.000 A 
ENDROOT
BRANCH   1  14
ATOM     14  C   UNL     1      -1.778  11.967  23.054  0.00  0.00    +0.000 C 
BRANCH  14  21
ATOM     15  C   UNL     1      -2.816  14.196  23.019  0.00  0.00    +0.000 C 
ATOM     16  C   UNL     1      -2.699  15.609  22.375  0.00  0.00    +0.000 C 
ATOM     17  N   UNL     1      -1.407  16.284  22.630  0.00  0.00    +0.000 NA
ATOM     18  C   UNL     1      -0.280  15.403  22.252  0.00  0.00    +0.000 C 
ATOM     19  C   UNL     1      -0.134  15.321  20.727  0.00  0.00    +0.000 C 
ATOM     20  C   UNL     1      -0.387  13.989  22.879  0.00  0.00    +0.000 C 
ATOM     21  N   UNL     1      -1.676  13.347  22.565  0.00  0.00    +0.000 NA
ATOM     22  H   UNL     1      -1.346  16.469  23.630  0.00  0.00    +0.000 HD
BRANCH  15  23
ATOM     23  C   UNL     1      -2.978  14.333  24.560  0.00  0.00    +0.000 C 
BRANCH  23  25
ATOM     24  C   UNL     1      -1.708  15.703  25.997  0.00  0.00    +0.000 C 
ATOM     25  O   UNL     1      -2.699  15.673  24.976  0.00  0.00    +0.000 OA
ENDBRANCH  23  25
ENDBRANCH  15  23
ENDBRANCH  14  21
ENDBRANCH   1  14
BRANCH  11  26
ATOM     26  C   UNL     1       2.533   7.495  19.709  0.00  0.00    +0.000 C 
BRANCH  26  27
ATOM     27  C   UNL     1       2.069   6.067  19.531  0.00  0.00    +0.000 A 
ATOM     28  C   UNL     1       2.192   5.428  18.289  0.00  0.00    +0.000 A 
ATOM     29  C   UNL     1       1.836   4.086  18.141  0.00  0.00    +0.000 A 
ATOM     30  C   UNL     1       1.361   3.363  19.235  0.00  0.00    +0.000 A 
ATOM     31  C   UNL     1       1.219   3.990  20.471  0.00  0.00    +0.000 A 
ATOM     32  C   UNL     1       1.559   5.338  20.616  0.00  0.00    +0.000 A 
ENDBRANCH  26  27
ENDBRANCH  11  26
TORSDOF 6
ENDMDL
MODEL 8
REMARK VINA RESULT:      -6.6      2.610      8.754
REMARK  Name = 
REMARK  10 active torsions:
REMARK  status: ('A' for Active; 'I' for Inactive)
REMARK    1  A    between atoms: C_1  and  O_2
REMARK    2  A    between atoms: O_2  and  C_3
REMARK    3  A    between atoms: C_3  and  C_4
REMARK    4  A    between atoms: C_7  and  C_8
REMARK    5  A    between atoms: N_10  and  C_11
REMARK    6  A    between atoms: C_11  and  C_12
REMARK    7  A    between atoms: C_16  and  C_17
REMARK    8  A    between atoms: C_16  and  C_18
REMARK    9  A    between atoms: C_22  and  C_23
REMARK   10  A    between atoms: C_23  and  C_24
REMARK                            x       y       z     vdW  Elec       q    Type
REMARK                         _______ _______ _______ _____ _____    ______ ____
ROOT
ATOM      1  C   UNL     1       2.435   8.111  18.512  0.00  0.00    +0.000 C 
ATOM      2  O   UNL     1       3.141   8.771  17.752  0.00  0.00    +0.000 OA
ATOM      3  N   UNL     1       2.585   6.739  18.713  0.00  0.00    +0.000 N 
ATOM      4  C   UNL     1       1.736   5.896  19.586  0.00  0.00    +0.000 C 
ATOM      5  C   UNL     1       2.227   4.438  19.466  0.00  0.00    +0.000 C 
ATOM      6  C   UNL     1       2.662   3.883  20.824  0.00  0.00    +0.000 C 
ATOM      7  C   UNL     1       1.158   3.555  18.819  0.00  0.00    +0.000 C 
ATOM      8  C   UNL     1       3.420   4.608  18.554  0.00  0.00    +0.000 A 
ATOM      9  N   UNL     1       4.246   3.601  18.209  0.00  0.00    +0.000 NA
ATOM     10  C   UNL     1       5.270   3.959  17.393  0.00  0.00    +0.000 A 
ATOM     11  C   UNL     1       5.479   5.250  16.889  0.00  0.00    +0.000 A 
ATOM     12  C   UNL     1       4.590   6.256  17.285  0.00  0.00    +0.000 A 
ATOM     13  C   UNL     1       3.561   5.925  18.139  0.00  0.00    +0.000 A 
ENDROOT
BRANCH   1  14
ATOM     14  C   UNL     1       1.285   8.732  19.317  0.00  0.00    +0.000 C 
BRANCH  14  21
ATOM     15  C   UNL     1      -0.410  10.493  19.045  0.00  0.00    +0.000 C 
ATOM     16  C   UNL     1      -0.599  11.976  18.610  0.00  0.00    +0.000 C 
ATOM     17  N   UNL     1       0.189  12.944  19.405  0.00  0.00    +0.000 NA
ATOM     18  C   UNL     1       1.614  12.549  19.437  0.00  0.00    +0.000 C 
ATOM     19  C   UNL     1       2.295  12.836  18.093  0.00  0.00    +0.000 C 
ATOM     20  C   UNL     1       1.818  11.071  19.861  0.00  0.00    +0.000 C 
ATOM     21  N   UNL     1       1.041  10.147  19.015  0.00  0.00    +0.000 NA
ATOM     22  H   UNL     1      -0.169  12.925  20.358  0.00  0.00    +0.000 HD
BRANCH  15  23
ATOM     23  C   UNL     1      -1.129  10.248  20.402  0.00  0.00    +0.000 C 
BRANCH  23  25
ATOM     24  C   UNL     1      -0.970  11.282  22.514  0.00  0.00    +0.000 C 
ATOM     25  O   UNL     1      -1.251  11.472  21.132  0.00  0.00    +0.000 OA
ENDBRANCH  23  25
ENDBRANCH  15  23
ENDBRANCH  14  21
ENDBRANCH   1  14
BRANCH  11  26
ATOM     26  C   UNL     1       6.607   5.562  15.941  0.00  0.00    +0.000 C 
BRANCH  26  27
ATOM     27  C   UNL     1       6.541   4.870  14.599  0.00  0.00    +0.000 A 
ATOM     28  C   UNL     1       5.426   4.092  14.253  0.00  0.00    +0.000 A 
ATOM     29  C   UNL     1       5.327   3.516  12.985  0.00  0.00    +0.000 A 
ATOM     30  C   UNL     1       6.336   3.715  12.045  0.00  0.00    +0.000 A 
ATOM     31  C   UNL     1       7.457   4.472  12.381  0.00  0.00    +0.000 A 
ATOM     32  C   UNL     1       7.566   5.035  13.655  0.00  0.00    +0.000 A 
ENDBRANCH  26  27
ENDBRANCH  11  26
TORSDOF 6
ENDMDL
MODEL 9
REMARK VINA RESULT:      -6.6      5.595     10.346
REMARK  Name = 
REMARK  10 active torsions:
REMARK  status: ('A' for Active; 'I' for Inactive)
REMARK    1  A    between atoms: C_1  and  O_2
REMARK    2  A    between atoms: O_2  and  C_3
REMARK    3  A    between atoms: C_3  and  C_4
REMARK    4  A    between atoms: C_7  and  C_8
REMARK    5  A    between atoms: N_10  and  C_11
REMARK    6  A    between atoms: C_11  and  C_12
REMARK    7  A    between atoms: C_16  and  C_17
REMARK    8  A    between atoms: C_16  and  C_18
REMARK    9  A    between atoms: C_22  and  C_23
REMARK   10  A    between atoms: C_23  and  C_24
REMARK                            x       y       z     vdW  Elec       q    Type
REMARK                         _______ _______ _______ _____ _____    ______ ____
ROOT
ATOM      1  C   UNL     1      -3.472  13.779  20.773  0.00  0.00    +0.000 C 
ATOM      2  O   UNL     1      -2.343  14.035  21.188  0.00  0.00    +0.000 OA
ATOM      3  N   UNL     1      -3.737  12.832  19.784  0.00  0.00    +0.000 N 
ATOM      4  C   UNL     1      -5.072  12.517  19.225  0.00  0.00    +0.000 C 
ATOM      5  C   UNL     1      -4.889  11.450  18.124  0.00  0.00    +0.000 C 
ATOM      6  C   UNL     1      -5.685  10.183  18.440  0.00  0.00    +0.000 C 
ATOM      7  C   UNL     1      -5.261  12.016  16.752  0.00  0.00    +0.000 C 
ATOM      8  C   UNL     1      -3.405  11.185  18.222  0.00  0.00    +0.000 A 
ATOM      9  N   UNL     1      -2.764  10.248  17.495  0.00  0.00    +0.000 NA
ATOM     10  C   UNL     1      -1.433  10.151  17.737  0.00  0.00    +0.000 A 
ATOM     11  C   UNL     1      -0.721  10.961  18.633  0.00  0.00    +0.000 A 
ATOM     12  C   UNL     1      -1.441  11.916  19.362  0.00  0.00    +0.000 A 
ATOM     13  C   UNL     1      -2.799  12.011  19.158  0.00  0.00    +0.000 A 
ENDROOT
BRANCH   1  14
ATOM     14  C   UNL     1      -4.725  14.498  21.291  0.00  0.00    +0.000 C 
BRANCH  14  21
ATOM     15  C   UNL     1      -5.199  13.677  23.561  0.00  0.00    +0.000 C 
ATOM     16  C   UNL     1      -6.093  12.682  24.358  0.00  0.00    +0.000 C 
ATOM     17  N   UNL     1      -7.545  12.921  24.209  0.00  0.00    +0.000 NA
ATOM     18  C   UNL     1      -7.915  12.980  22.778  0.00  0.00    +0.000 C 
ATOM     19  C   UNL     1      -7.906  11.581  22.149  0.00  0.00    +0.000 C 
ATOM     20  C   UNL     1      -7.029  13.962  21.968  0.00  0.00    +0.000 C 
ATOM     21  N   UNL     1      -5.595  13.657  22.122  0.00  0.00    +0.000 NA
ATOM     22  H   UNL     1      -7.755  13.824  24.630  0.00  0.00    +0.000 HD
BRANCH  15  23
ATOM     23  C   UNL     1      -5.229  15.074  24.244  0.00  0.00    +0.000 C 
BRANCH  23  25
ATOM     24  C   UNL     1      -2.989  14.587  24.791  0.00  0.00    +0.000 C 
ATOM     25  O   UNL     1      -3.904  15.595  24.377  0.00  0.00    +0.000 OA
ENDBRANCH  23  25
ENDBRANCH  15  23
ENDBRANCH  14  21
ENDBRANCH   1  14
BRANCH  11  26
ATOM     26  C   UNL     1       0.770  10.834  18.810  0.00  0.00    +0.000 C 
BRANCH  26  27
ATOM     27  C   UNL     1       1.283   9.428  19.022  0.00  0.00    +0.000 A 
ATOM     28  C   UNL     1       1.916   8.736  17.979  0.00  0.00    +0.000 A 
ATOM     29  C   UNL     1       2.460   7.468  18.194  0.00  0.00    +0.000 A 
ATOM     30  C   UNL     1       2.384   6.879  19.455  0.00  0.00    +0.000 A 
ATOM     31  C   UNL     1       1.744   7.549  20.496  0.00  0.00    +0.000 A 
ATOM     32  C   UNL     1       1.184   8.810  20.278  0.00  0.00    +0.000 A 
ENDBRANCH  26  27
ENDBRANCH  11  26
TORSDOF 6
ENDMDL
