MODEL 1
REMARK VINA RESULT:      -7.7      0.000      0.000
REMARK  Name = 
REMARK  5 active torsions:
REMARK  status: ('A' for Active; 'I' for Inactive)
REMARK    1  A    between atoms: N_8  and  C_9
REMARK    2  A    between atoms: N_19  and  C_20
REMARK    3  A    between atoms: C_20  and  C_21
REMARK    4  A    between atoms: C_21  and  C_22
REMARK    5  A    between atoms: C_22  and  N_23
REMARK                            x       y       z     vdW  Elec       q    Type
REMARK                         _______ _______ _______ _____ _____    ______ ____
ROOT
ATOM      1  N   UNL     1       2.272   4.236  21.131  0.00  0.00    +0.000 N 
ATOM      2  C   UNL     1       2.538   5.260  20.239  0.00  0.00    +0.000 A 
ATOM      3  N   UNL     1       3.575   5.051  19.407  0.00  0.00    +0.000 NA
ATOM      4  C   UNL     1       3.962   6.021  18.526  0.00  0.00    +0.000 A 
ATOM      5  N   UNL     1       5.120   5.828  17.766  0.00  0.00    +0.000 N 
ATOM      6  C   UNL     1       5.498   6.867  16.796  0.00  0.00    +0.000 C 
ATOM      7  C   UNL     1       6.949   6.657  16.306  0.00  0.00    +0.000 C 
ATOM      8  N   UNL     1       7.248   5.305  15.780  0.00  0.00    +0.000 NA
ATOM      9  C   UNL     1       6.853   4.328  16.823  0.00  0.00    +0.000 C 
ATOM     10  C   UNL     1       5.404   4.448  17.357  0.00  0.00    +0.000 C 
ATOM     11  C   UNL     1       3.183   7.202  18.524  0.00  0.00    +0.000 A 
ATOM     12  N   UNL     1       3.254   8.345  17.758  0.00  0.00    +0.000 NA
ATOM     13  C   UNL     1       2.314   9.126  18.225  0.00  0.00    +0.000 A 
ATOM     14  N   UNL     1       1.612   8.544  19.250  0.00  0.00    +0.000 N 
ATOM     15  C   UNL     1       2.155   7.302  19.449  0.00  0.00    +0.000 A 
ATOM     16  N   UNL     1       1.789   6.372  20.346  0.00  0.00    +0.000 NA
ATOM     17  H   UNL     1       3.105   3.669  21.224  0.00  0.00    +0.000 HD
ATOM     18  H   UNL     1       1.887   4.624  21.981  0.00  0.00    +0.000 HD
ENDROOT
BRANCH   8  19
ATOM     19  C   UNL     1       6.638   5.069  14.463  0.00  0.00    +0.000 C 
ATOM     20  C   UNL     1       7.674   5.146  13.331  0.00  0.00    +0.000 C 
ATOM     21  C   UNL     1       6.996   4.448  12.166  0.00  0.00    +0.000 C 
ATOM     22  C   UNL     1       6.213   3.308  12.799  0.00  0.00    +0.000 C 
ATOM     23  C   UNL     1       6.056   3.659  14.280  0.00  0.00    +0.000 C 
ENDBRANCH   8  19
BRANCH  14  24
ATOM     24  C   UNL     1       0.532   9.161  20.009  0.00  0.00    +0.000 C 
BRANCH  24  25
ATOM     25  C   UNL     1       0.186  10.547  19.464  0.00  0.00    +0.000 C 
BRANCH  25  26
ATOM     26  C   UNL     1      -1.291  10.934  19.468  0.00  0.00    +0.000 C 
BRANCH  26  27
ATOM     27  N   UNL     1      -1.730  11.295  18.102  0.00  0.00    +0.000 NA
ATOM     28  C   UNL     1      -3.151  11.675  17.988  0.00  0.00    +0.000 C 
ATOM     29  C   UNL     1      -3.882  10.357  17.859  0.00  0.00    +0.000 C 
ATOM     30  C   UNL     1      -2.980   9.604  16.903  0.00  0.00    +0.000 C 
ATOM     31  C   UNL     1      -1.579  10.160  17.169  0.00  0.00    +0.000 C 
ENDBRANCH  26  27
ENDBRANCH  25  26
ENDBRANCH  24  25
ENDBRANCH  14  24
TORSDOF 5
ENDMDL
MODEL 2
REMARK VINA RESULT:      -7.4      1.719      8.699
REMARK  Name = 
REMARK  5 active torsions:
REMARK  status: ('A' for Active; 'I' for Inactive)
REMARK    1  A    between atoms: N_8  and  C_9
REMARK    2  A    between atoms: N_19  and  C_20
REMARK    3  A    between atoms: C_20  and  C_21
REMARK    4  A    between atoms: C_21  and  C_22
REMARK    5  A    between atoms: C_22  and  N_23
REMARK                            x       y       z     vdW  Elec       q    Type
REMARK                         _______ _______ _______ _____ _____    ______ ____
ROOT
ATOM      1  N   UNL     1       2.176   3.961  21.551  0.00  0.00    +0.000 N 
ATOM      2  C   UNL     1       2.528   4.884  20.582  0.00  0.00    +0.000 A 
ATOM      3  N   UNL     1       1.879   6.061  20.636  0.00  0.00    +0.000 NA
ATOM      4  C   UNL     1       2.105   7.022  19.692  0.00  0.00    +0.000 A 
ATOM      5  N   UNL     1       1.324   8.182  19.699  0.00  0.00    +0.000 N 
ATOM      6  C   UNL     1       1.609   9.220  18.698  0.00  0.00    +0.000 C 
ATOM      7  C   UNL     1       0.458  10.249  18.632  0.00  0.00    +0.000 C 
ATOM      8  N   UNL     1       0.076  10.853  19.929  0.00  0.00    +0.000 NA
ATOM      9  C   UNL     1      -0.208   9.741  20.868  0.00  0.00    +0.000 C 
ATOM     10  C   UNL     1       0.903   8.672  21.016  0.00  0.00    +0.000 C 
ATOM     11  C   UNL     1       3.080   6.711  18.714  0.00  0.00    +0.000 A 
ATOM     12  N   UNL     1       3.584   7.440  17.659  0.00  0.00    +0.000 NA
ATOM     13  C   UNL     1       4.424   6.635  17.062  0.00  0.00    +0.000 A 
ATOM     14  N   UNL     1       4.514   5.416  17.684  0.00  0.00    +0.000 N 
ATOM     15  C   UNL     1       3.659   5.452  18.754  0.00  0.00    +0.000 A 
ATOM     16  N   UNL     1       3.416   4.485  19.654  0.00  0.00    +0.000 NA
ATOM     17  H   UNL     1       1.264   4.209  21.912  0.00  0.00    +0.000 HD
ATOM     18  H   UNL     1       2.281   3.028  21.179  0.00  0.00    +0.000 HD
ENDROOT
BRANCH   8  19
ATOM     19  C   UNL     1       1.075  11.817  20.414  0.00  0.00    +0.000 C 
ATOM     20  C   UNL     1       1.644  12.674  19.272  0.00  0.00    +0.000 C 
ATOM     21  C   UNL     1       2.268  13.861  19.981  0.00  0.00    +0.000 C 
ATOM     22  C   UNL     1       1.336  14.150  21.148  0.00  0.00    +0.000 C 
ATOM     23  C   UNL     1       0.515  12.880  21.373  0.00  0.00    +0.000 C 
ENDBRANCH   8  19
BRANCH  14  24
ATOM     24  C   UNL     1       5.327   4.287  17.248  0.00  0.00    +0.000 C 
BRANCH  24  25
ATOM     25  C   UNL     1       6.729   4.735  16.837  0.00  0.00    +0.000 C 
BRANCH  25  26
ATOM     26  C   UNL     1       7.242   4.225  15.493  0.00  0.00    +0.000 C 
BRANCH  26  27
ATOM     27  N   UNL     1       6.648   5.007  14.386  0.00  0.00    +0.000 NA
ATOM     28  C   UNL     1       5.467   4.390  13.754  0.00  0.00    +0.000 C 
ATOM     29  C   UNL     1       6.046   3.426  12.742  0.00  0.00    +0.000 C 
ATOM     30  C   UNL     1       7.168   4.250  12.146  0.00  0.00    +0.000 C 
ATOM     31  C   UNL     1       7.607   5.186  13.276  0.00  0.00    +0.000 C 
ENDBRANCH  26  27
ENDBRANCH  25  26
ENDBRANCH  24  25
ENDBRANCH  14  24
TORSDOF 5
ENDMDL
MODEL 3
REMARK VINA RESULT:      -7.3      1.299      2.124
REMARK  Name = 
REMARK  5 active torsions:
REMARK  status: ('A' for Active; 'I' for Inactive)
REMARK    1  A    between atoms: N_8  and  C_9
REMARK    2  A    between atoms: N_19  and  C_20
REMARK    3  A    between atoms: C_20  and  C_21
REMARK    4  A    between atoms: C_21  and  C_22
REMARK    5  A    between atoms: C_22  and  N_23
REMARK                            x       y       z     vdW  Elec       q    Type
REMARK                         _______ _______ _______ _____ _____    ______ ____
ROOT
ATOM      1  N   UNL     1       2.267   4.095  20.995  0.00  0.00    +0.000 N 
ATOM      2  C   UNL     1       2.551   5.140  20.133  0.00  0.00    +0.000 A 
ATOM      3  N   UNL     1       3.597   4.946  19.309  0.00  0.00    +0.000 NA
ATOM      4  C   UNL     1       4.002   5.936  18.459  0.00  0.00    +0.000 A 
ATOM      5  N   UNL     1       5.168   5.755  17.708  0.00  0.00    +0.000 N 
ATOM      6  C   UNL     1       5.565   6.816  16.772  0.00  0.00    +0.000 C 
ATOM      7  C   UNL     1       7.020   6.610  16.294  0.00  0.00    +0.000 C 
ATOM      8  N   UNL     1       7.317   5.270  15.736  0.00  0.00    +0.000 NA
ATOM      9  C   UNL     1       6.902   4.268  16.747  0.00  0.00    +0.000 C 
ATOM     10  C   UNL     1       5.448   4.384  17.266  0.00  0.00    +0.000 C 
ATOM     11  C   UNL     1       3.231   7.122  18.479  0.00  0.00    +0.000 A 
ATOM     12  N   UNL     1       3.319   8.285  17.744  0.00  0.00    +0.000 NA
ATOM     13  C   UNL     1       2.378   9.059  18.221  0.00  0.00    +0.000 A 
ATOM     14  N   UNL     1       1.660   8.455  19.221  0.00  0.00    +0.000 N 
ATOM     15  C   UNL     1       2.192   7.205  19.393  0.00  0.00    +0.000 A 
ATOM     16  N   UNL     1       1.809   6.254  20.261  0.00  0.00    +0.000 NA
ATOM     17  H   UNL     1       3.095   3.519  21.083  0.00  0.00    +0.000 HD
ATOM     18  H   UNL     1       1.874   4.462  21.850  0.00  0.00    +0.000 HD
ENDROOT
BRANCH   8  19
ATOM     19  C   UNL     1       6.722   5.074  14.406  0.00  0.00    +0.000 C 
ATOM     20  C   UNL     1       7.772   5.174  13.288  0.00  0.00    +0.000 C 
ATOM     21  C   UNL     1       7.105   4.512  12.097  0.00  0.00    +0.000 C 
ATOM     22  C   UNL     1       6.307   3.360  12.690  0.00  0.00    +0.000 C 
ATOM     23  C   UNL     1       6.133   3.672  14.177  0.00  0.00    +0.000 C 
ENDBRANCH   8  19
BRANCH  14  24
ATOM     24  C   UNL     1       0.574   9.060  19.983  0.00  0.00    +0.000 C 
BRANCH  24  25
ATOM     25  C   UNL     1       0.077  10.345  19.323  0.00  0.00    +0.000 C 
BRANCH  25  26
ATOM     26  C   UNL     1      -1.240  10.916  19.845  0.00  0.00    +0.000 C 
BRANCH  26  27
ATOM     27  N   UNL     1      -0.981  12.063  20.743  0.00  0.00    +0.000 NA
ATOM     28  C   UNL     1      -0.207  11.740  21.955  0.00  0.00    +0.000 C 
ATOM     29  C   UNL     1      -1.239  11.225  22.933  0.00  0.00    +0.000 C 
ATOM     30  C   UNL     1      -2.374  12.205  22.718  0.00  0.00    +0.000 C 
ATOM     31  C   UNL     1      -2.241  12.641  21.256  0.00  0.00    +0.000 C 
ENDBRANCH  26  27
ENDBRANCH  25  26
ENDBRANCH  24  25
ENDBRANCH  14  24
TORSDOF 5
ENDMDL
MODEL 4
REMARK VINA RESULT:      -7.3      2.929      4.757
REMARK  Name = 
REMARK  5 active torsions:
REMARK  status: ('A' for Active; 'I' for Inactive)
REMARK    1  A    between atoms: N_8  and  C_9
REMARK    2  A    between atoms: N_19  and  C_20
REMARK    3  A    between atoms: C_20  and  C_21
REMARK    4  A    between atoms: C_21  and  C_22
REMARK    5  A    between atoms: C_22  and  N_23
REMARK                            x       y       z     vdW  Elec       q    Type
REMARK                         _______ _______ _______ _____ _____    ______ ____
ROOT
ATOM      1  N   UNL     1      -0.049   9.446  23.545  0.00  0.00    +0.000 N 
ATOM      2  C   UNL     1       0.025   9.495  22.164  0.00  0.00    +0.000 A 
ATOM      3  N   UNL     1       0.873   8.618  21.596  0.00  0.00    +0.000 NA
ATOM      4  C   UNL     1       1.069   8.621  20.244  0.00  0.00    +0.000 A 
ATOM      5  N   UNL     1       2.050   7.788  19.696  0.00  0.00    +0.000 N 
ATOM      6  C   UNL     1       2.219   7.778  18.236  0.00  0.00    +0.000 C 
ATOM      7  C   UNL     1       3.541   7.082  17.841  0.00  0.00    +0.000 C 
ATOM      8  N   UNL     1       3.735   5.727  18.408  0.00  0.00    +0.000 NA
ATOM      9  C   UNL     1       3.564   5.834  19.877  0.00  0.00    +0.000 C 
ATOM     10  C   UNL     1       2.253   6.498  20.365  0.00  0.00    +0.000 C 
ATOM     11  C   UNL     1       0.300   9.553  19.509  0.00  0.00    +0.000 A 
ATOM     12  N   UNL     1       0.208   9.802  18.156  0.00  0.00    +0.000 NA
ATOM     13  C   UNL     1      -0.621  10.809  18.052  0.00  0.00    +0.000 A 
ATOM     14  N   UNL     1      -1.099  11.222  19.270  0.00  0.00    +0.000 N 
ATOM     15  C   UNL     1      -0.520  10.418  20.217  0.00  0.00    +0.000 A 
ATOM     16  N   UNL     1      -0.692  10.452  21.548  0.00  0.00    +0.000 NA
ATOM     17  H   UNL     1       0.788   8.998  23.894  0.00  0.00    +0.000 HD
ATOM     18  H   UNL     1      -0.257  10.368  23.903  0.00  0.00    +0.000 HD
ENDROOT
BRANCH   8  19
ATOM     19  C   UNL     1       2.873   4.724  17.767  0.00  0.00    +0.000 C 
ATOM     20  C   UNL     1       3.634   3.425  17.462  0.00  0.00    +0.000 C 
ATOM     21  C   UNL     1       2.537   2.397  17.252  0.00  0.00    +0.000 C 
ATOM     22  C   UNL     1       1.457   2.772  18.256  0.00  0.00    +0.000 C 
ATOM     23  C   UNL     1       1.716   4.227  18.650  0.00  0.00    +0.000 C 
ENDBRANCH   8  19
BRANCH  14  24
ATOM     24  C   UNL     1      -2.006  12.339  19.502  0.00  0.00    +0.000 C 
BRANCH  24  25
ATOM     25  C   UNL     1      -3.429  12.005  19.055  0.00  0.00    +0.000 C 
BRANCH  25  26
ATOM     26  C   UNL     1      -4.563  12.632  19.862  0.00  0.00    +0.000 C 
BRANCH  26  27
ATOM     27  N   UNL     1      -5.819  12.617  19.079  0.00  0.00    +0.000 NA
ATOM     28  C   UNL     1      -7.048  12.464  19.880  0.00  0.00    +0.000 C 
ATOM     29  C   UNL     1      -7.176  10.971  20.087  0.00  0.00    +0.000 C 
ATOM     30  C   UNL     1      -6.820  10.444  18.712  0.00  0.00    +0.000 C 
ATOM     31  C   UNL     1      -5.852  11.481  18.135  0.00  0.00    +0.000 C 
ENDBRANCH  26  27
ENDBRANCH  25  26
ENDBRANCH  24  25
ENDBRANCH  14  24
TORSDOF 5
ENDMDL
MODEL 5
REMARK VINA RESULT:      -7.2      0.965      1.337
REMARK  Name = 
REMARK  5 active torsions:
REMARK  status: ('A' for Active; 'I' for Inactive)
REMARK    1  A    between atoms: N_8  and  C_9
REMARK    2  A    between atoms: N_19  and  C_20
REMARK    3  A    between atoms: C_20  and  C_21
REMARK    4  A    between atoms: C_21  and  C_22
REMARK    5  A    between atoms: C_22  and  N_23
REMARK                            x       y       z     vdW  Elec       q    Type
REMARK                         _______ _______ _______ _____ _____    ______ ____
ROOT
ATOM      1  N   UNL     1       2.293   4.111  21.159  0.00  0.00    +0.000 N 
ATOM      2  C   UNL     1       2.552   5.150  20.283  0.00  0.00    +0.000 A 
ATOM      3  N   UNL     1       3.587   4.959  19.444  0.00  0.00    +0.000 NA
ATOM      4  C   UNL     1       3.968   5.945  18.579  0.00  0.00    +0.000 A 
ATOM      5  N   UNL     1       5.124   5.768  17.811  0.00  0.00    +0.000 N 
ATOM      6  C   UNL     1       5.496   6.824  16.858  0.00  0.00    +0.000 C 
ATOM      7  C   UNL     1       6.945   6.629  16.360  0.00  0.00    +0.000 C 
ATOM      8  N   UNL     1       7.248   5.286  15.811  0.00  0.00    +0.000 NA
ATOM      9  C   UNL     1       6.859   4.290  16.838  0.00  0.00    +0.000 C 
ATOM     10  C   UNL     1       5.412   4.396  17.379  0.00  0.00    +0.000 C 
ATOM     11  C   UNL     1       3.184   7.123  18.598  0.00  0.00    +0.000 A 
ATOM     12  N   UNL     1       3.249   8.279  17.851  0.00  0.00    +0.000 NA
ATOM     13  C   UNL     1       2.308   9.048  18.334  0.00  0.00    +0.000 A 
ATOM     14  N   UNL     1       1.611   8.447  19.351  0.00  0.00    +0.000 N 
ATOM     15  C   UNL     1       2.159   7.204  19.528  0.00  0.00    +0.000 A 
ATOM     16  N   UNL     1       1.800   6.258  20.411  0.00  0.00    +0.000 NA
ATOM     17  H   UNL     1       3.128   3.546  21.240  0.00  0.00    +0.000 HD
ATOM     18  H   UNL     1       1.909   4.483  22.016  0.00  0.00    +0.000 HD
ENDROOT
BRANCH   8  19
ATOM     19  C   UNL     1       6.635   5.070  14.492  0.00  0.00    +0.000 C 
ATOM     20  C   UNL     1       7.658   5.211  13.355  0.00  0.00    +0.000 C 
ATOM     21  C   UNL     1       6.993   4.527  12.175  0.00  0.00    +0.000 C 
ATOM     22  C   UNL     1       6.250   3.345  12.781  0.00  0.00    +0.000 C 
ATOM     23  C   UNL     1       6.094   3.648  14.272  0.00  0.00    +0.000 C 
ENDBRANCH   8  19
BRANCH  14  24
ATOM     24  C   UNL     1       0.531   9.047  20.124  0.00  0.00    +0.000 C 
BRANCH  24  25
ATOM     25  C   UNL     1      -0.167  10.157  19.339  0.00  0.00    +0.000 C 
BRANCH  25  26
ATOM     26  C   UNL     1       0.029  11.583  19.849  0.00  0.00    +0.000 C 
BRANCH  26  27
ATOM     27  N   UNL     1      -0.851  12.517  19.113  0.00  0.00    +0.000 NA
ATOM     28  C   UNL     1      -1.389  13.629  19.920  0.00  0.00    +0.000 C 
ATOM     29  C   UNL     1      -2.605  13.042  20.602  0.00  0.00    +0.000 C 
ATOM     30  C   UNL     1      -3.230  12.247  19.474  0.00  0.00    +0.000 C 
ATOM     31  C   UNL     1      -2.051  11.830  18.591  0.00  0.00    +0.000 C 
ENDBRANCH  26  27
ENDBRANCH  25  26
ENDBRANCH  24  25
ENDBRANCH  14  24
TORSDOF 5
ENDMDL
MODEL 6
REMARK VINA RESULT:      -7.2      1.414      2.257
REMARK  Name = 
REMARK  5 active torsions:
REMARK  status: ('A' for Active; 'I' for Inactive)
REMARK    1  A    between atoms: N_8  and  C_9
REMARK    2  A    between atoms: N_19  and  C_20
REMARK    3  A    between atoms: C_20  and  C_21
REMARK    4  A    between atoms: C_21  and  C_22
REMARK    5  A    between atoms: C_22  and  N_23
REMARK                            x       y       z     vdW  Elec       q    Type
REMARK                         _______ _______ _______ _____ _____    ______ ____
ROOT
ATOM      1  N   UNL     1       2.048   4.294  21.116  0.00  0.00    +0.000 N 
ATOM      2  C   UNL     1       2.371   5.313  20.238  0.00  0.00    +0.000 A 
ATOM      3  N   UNL     1       3.417   5.072  19.426  0.00  0.00    +0.000 NA
ATOM      4  C   UNL     1       3.859   6.033  18.562  0.00  0.00    +0.000 A 
ATOM      5  N   UNL     1       5.025   5.801  17.825  0.00  0.00    +0.000 N 
ATOM      6  C   UNL     1       5.463   6.832  16.872  0.00  0.00    +0.000 C 
ATOM      7  C   UNL     1       6.914   6.572  16.411  0.00  0.00    +0.000 C 
ATOM      8  N   UNL     1       7.174   5.213  15.881  0.00  0.00    +0.000 NA
ATOM      9  C   UNL     1       6.720   4.244  16.907  0.00  0.00    +0.000 C 
ATOM     10  C   UNL     1       5.266   4.415  17.411  0.00  0.00    +0.000 C 
ATOM     11  C   UNL     1       3.125   7.242  18.552  0.00  0.00    +0.000 A 
ATOM     12  N   UNL     1       3.255   8.387  17.797  0.00  0.00    +0.000 NA
ATOM     13  C   UNL     1       2.335   9.199  18.251  0.00  0.00    +0.000 A 
ATOM     14  N   UNL     1       1.590   8.636  19.256  0.00  0.00    +0.000 N 
ATOM     15  C   UNL     1       2.082   7.374  19.456  0.00  0.00    +0.000 A 
ATOM     16  N   UNL     1       1.662   6.452  20.338  0.00  0.00    +0.000 NA
ATOM     17  H   UNL     1       2.857   3.695  21.223  0.00  0.00    +0.000 HD
ATOM     18  H   UNL     1       1.659   4.690  21.961  0.00  0.00    +0.000 HD
ENDROOT
BRANCH   8  19
ATOM     19  C   UNL     1       6.584   5.010  14.549  0.00  0.00    +0.000 C 
ATOM     20  C   UNL     1       7.637   5.113  13.435  0.00  0.00    +0.000 C 
ATOM     21  C   UNL     1       6.977   4.444  12.244  0.00  0.00    +0.000 C 
ATOM     22  C   UNL     1       6.183   3.290  12.837  0.00  0.00    +0.000 C 
ATOM     23  C   UNL     1       6.003   3.605  14.323  0.00  0.00    +0.000 C 
ENDBRANCH   8  19
BRANCH  14  24
ATOM     24  C   UNL     1       0.517   9.289  19.997  0.00  0.00    +0.000 C 
BRANCH  24  25
ATOM     25  C   UNL     1      -0.295  10.222  19.099  0.00  0.00    +0.000 C 
BRANCH  25  26
ATOM     26  C   UNL     1      -0.402  11.678  19.548  0.00  0.00    +0.000 C 
BRANCH  26  27
ATOM     27  N   UNL     1       0.257  12.567  18.565  0.00  0.00    +0.000 NA
ATOM     28  C   UNL     1       1.719  12.691  18.723  0.00  0.00    +0.000 C 
ATOM     29  C   UNL     1       1.891  13.757  19.782  0.00  0.00    +0.000 C 
ATOM     30  C   UNL     1       0.854  14.775  19.359  0.00  0.00    +0.000 C 
ATOM     31  C   UNL     1      -0.241  13.954  18.673  0.00  0.00    +0.000 C 
ENDBRANCH  26  27
ENDBRANCH  25  26
ENDBRANCH  24  25
ENDBRANCH  14  24
TORSDOF 5
ENDMDL
MODEL 7
REMARK VINA RESULT:      -7.2      1.177      1.532
REMARK  Name = 
REMARK  5 active torsions:
REMARK  status: ('A' for Active; 'I' for Inactive)
REMARK    1  A    between atoms: N_8  and  C_9
REMARK    2  A    between atoms: N_19  and  C_20
REMARK    3  A    between atoms: C_20  and  C_21
REMARK    4  A    between atoms: C_21  and  C_22
REMARK    5  A    between atoms: C_22  and  N_23
REMARK                            x       y       z     vdW  Elec       q    Type
REMARK                         _______ _______ _______ _____ _____    ______ ____
ROOT
ATOM      1  N   UNL     1       2.775   2.981  21.212  0.00  0.00    +0.000 N 
ATOM      2  C   UNL     1       2.900   4.139  20.464  0.00  0.00    +0.000 A 
ATOM      3  N   UNL     1       3.909   4.151  19.574  0.00  0.00    +0.000 NA
ATOM      4  C   UNL     1       4.160   5.266  18.826  0.00  0.00    +0.000 A 
ATOM      5  N   UNL     1       5.292   5.294  18.003  0.00  0.00    +0.000 N 
ATOM      6  C   UNL     1       5.523   6.488  17.178  0.00  0.00    +0.000 C 
ATOM      7  C   UNL     1       6.960   6.493  16.610  0.00  0.00    +0.000 C 
ATOM      8  N   UNL     1       7.357   5.262  15.887  0.00  0.00    +0.000 NA
ATOM      9  C   UNL     1       7.106   4.116  16.794  0.00  0.00    +0.000 C 
ATOM     10  C   UNL     1       5.681   4.018  17.393  0.00  0.00    +0.000 C 
ATOM     11  C   UNL     1       3.276   6.353  19.019  0.00  0.00    +0.000 A 
ATOM     12  N   UNL     1       3.203   7.592  18.421  0.00  0.00    +0.000 NA
ATOM     13  C   UNL     1       2.219   8.205  19.029  0.00  0.00    +0.000 A 
ATOM     14  N   UNL     1       1.626   7.421  19.985  0.00  0.00    +0.000 N 
ATOM     15  C   UNL     1       2.291   6.223  19.986  0.00  0.00    +0.000 A 
ATOM     16  N   UNL     1       2.059   5.147  20.755  0.00  0.00    +0.000 NA
ATOM     17  H   UNL     1       3.661   2.492  21.193  0.00  0.00    +0.000 HD
ATOM     18  H   UNL     1       2.399   3.209  22.121  0.00  0.00    +0.000 HD
ENDROOT
BRANCH   8  19
ATOM     19  C   UNL     1       6.706   5.151  14.573  0.00  0.00    +0.000 C 
ATOM     20  C   UNL     1       7.725   5.189  13.424  0.00  0.00    +0.000 C 
ATOM     21  C   UNL     1       6.967   4.617  12.241  0.00  0.00    +0.000 C 
ATOM     22  C   UNL     1       6.092   3.523  12.834  0.00  0.00    +0.000 C 
ATOM     23  C   UNL     1       5.992   3.810  14.333  0.00  0.00    +0.000 C 
ENDBRANCH   8  19
BRANCH  14  24
ATOM     24  C   UNL     1       0.533   7.818  20.864  0.00  0.00    +0.000 C 
BRANCH  24  25
ATOM     25  C   UNL     1       0.747   9.226  21.419  0.00  0.00    +0.000 C 
BRANCH  25  26
ATOM     26  C   UNL     1      -0.378  10.232  21.182  0.00  0.00    +0.000 C 
BRANCH  26  27
ATOM     27  N   UNL     1      -0.169  10.941  19.901  0.00  0.00    +0.000 NA
ATOM     28  C   UNL     1      -0.409  12.396  19.951  0.00  0.00    +0.000 C 
ATOM     29  C   UNL     1      -1.904  12.535  19.768  0.00  0.00    +0.000 C 
ATOM     30  C   UNL     1      -2.170  11.528  18.670  0.00  0.00    +0.000 C 
ATOM     31  C   UNL     1      -1.095  10.453  18.857  0.00  0.00    +0.000 C 
ENDBRANCH  26  27
ENDBRANCH  25  26
ENDBRANCH  24  25
ENDBRANCH  14  24
TORSDOF 5
ENDMDL
MODEL 8
REMARK VINA RESULT:      -7.1      1.198      1.760
REMARK  Name = 
REMARK  5 active torsions:
REMARK  status: ('A' for Active; 'I' for Inactive)
REMARK    1  A    between atoms: N_8  and  C_9
REMARK    2  A    between atoms: N_19  and  C_20
REMARK    3  A    between atoms: C_20  and  C_21
REMARK    4  A    between atoms: C_21  and  C_22
REMARK    5  A    between atoms: C_22  and  N_23
REMARK                            x       y       z     vdW  Elec       q    Type
REMARK                         _______ _______ _______ _____ _____    ______ ____
ROOT
ATOM      1  N   UNL     1       2.470   3.800  20.986  0.00  0.00    +0.000 N 
ATOM      2  C   UNL     1       2.702   4.881  20.154  0.00  0.00    +0.000 A 
ATOM      3  N   UNL     1       3.739   4.751  19.306  0.00  0.00    +0.000 NA
ATOM      4  C   UNL     1       4.094   5.780  18.482  0.00  0.00    +0.000 A 
ATOM      5  N   UNL     1       5.252   5.664  17.706  0.00  0.00    +0.000 N 
ATOM      6  C   UNL     1       5.595   6.768  16.797  0.00  0.00    +0.000 C 
ATOM      7  C   UNL     1       7.047   6.628  16.288  0.00  0.00    +0.000 C 
ATOM      8  N   UNL     1       7.380   5.317  15.682  0.00  0.00    +0.000 NA
ATOM      9  C   UNL     1       7.018   4.270  16.668  0.00  0.00    +0.000 C 
ATOM     10  C   UNL     1       5.570   4.318  17.215  0.00  0.00    +0.000 C 
ATOM     11  C   UNL     1       3.282   6.937  18.552  0.00  0.00    +0.000 A 
ATOM     12  N   UNL     1       3.317   8.125  17.854  0.00  0.00    +0.000 NA
ATOM     13  C   UNL     1       2.359   8.851  18.372  0.00  0.00    +0.000 A 
ATOM     14  N   UNL     1       1.680   8.190  19.364  0.00  0.00    +0.000 N 
ATOM     15  C   UNL     1       2.259   6.955  19.487  0.00  0.00    +0.000 A 
ATOM     16  N   UNL     1       1.924   5.964  20.330  0.00  0.00    +0.000 NA
ATOM     17  H   UNL     1       3.319   3.252  21.042  0.00  0.00    +0.000 HD
ATOM     18  H   UNL     1       2.080   4.127  21.859  0.00  0.00    +0.000 HD
ENDROOT
BRANCH   8  19
ATOM     19  C   UNL     1       6.768   5.142  14.357  0.00  0.00    +0.000 C 
ATOM     20  C   UNL     1       7.826   5.046  13.246  0.00  0.00    +0.000 C 
ATOM     21  C   UNL     1       7.078   4.427  12.080  0.00  0.00    +0.000 C 
ATOM     22  C   UNL     1       6.129   3.423  12.717  0.00  0.00    +0.000 C 
ATOM     23  C   UNL     1       5.994   3.825  14.187  0.00  0.00    +0.000 C 
ENDBRANCH   8  19
BRANCH  14  24
ATOM     24  C   UNL     1       0.589   8.732  20.163  0.00  0.00    +0.000 C 
BRANCH  24  25
ATOM     25  C   UNL     1       0.072  10.049  19.584  0.00  0.00    +0.000 C 
BRANCH  25  26
ATOM     26  C   UNL     1      -0.388  11.103  20.588  0.00  0.00    +0.000 C 
BRANCH  26  27
ATOM     27  N   UNL     1      -1.421  11.973  19.982  0.00  0.00    +0.000 NA
ATOM     28  C   UNL     1      -1.269  12.198  18.533  0.00  0.00    +0.000 C 
ATOM     29  C   UNL     1      -0.275  13.334  18.433  0.00  0.00    +0.000 C 
ATOM     30  C   UNL     1      -0.759  14.257  19.531  0.00  0.00    +0.000 C 
ATOM     31  C   UNL     1      -1.396  13.329  20.569  0.00  0.00    +0.000 C 
ENDBRANCH  26  27
ENDBRANCH  25  26
ENDBRANCH  24  25
ENDBRANCH  14  24
TORSDOF 5
ENDMDL
MODEL 9
REMARK VINA RESULT:      -7.1      1.863      8.793
REMARK  Name = 
REMARK  5 active torsions:
REMARK  status: ('A' for Active; 'I' for Inactive)
REMARK    1  A    between atoms: N_8  and  C_9
REMARK    2  A    between atoms: N_19  and  C_20
REMARK    3  A    between atoms: C_20  and  C_21
REMARK    4  A    between atoms: C_21  and  C_22
REMARK    5  A    between atoms: C_22  and  N_23
REMARK                            x       y       z     vdW  Elec       q    Type
REMARK                         _______ _______ _______ _____ _____    ______ ____
ROOT
ATOM      1  N   UNL     1       2.534   3.863  20.920  0.00  0.00    +0.000 N 
ATOM      2  C   UNL     1       2.896   4.820  19.989  0.00  0.00    +0.000 A 
ATOM      3  N   UNL     1       2.225   5.985  20.061  0.00  0.00    +0.000 NA
ATOM      4  C   UNL     1       2.460   6.977  19.152  0.00  0.00    +0.000 A 
ATOM      5  N   UNL     1       1.659   8.124  19.174  0.00  0.00    +0.000 N 
ATOM      6  C   UNL     1       1.953   9.196  18.211  0.00  0.00    +0.000 C 
ATOM      7  C   UNL     1       0.787  10.209  18.146  0.00  0.00    +0.000 C 
ATOM      8  N   UNL     1       0.362  10.767  19.451  0.00  0.00    +0.000 NA
ATOM      9  C   UNL     1       0.073   9.622  20.348  0.00  0.00    +0.000 C 
ATOM     10  C   UNL     1       1.197   8.567  20.494  0.00  0.00    +0.000 C 
ATOM     11  C   UNL     1       3.464   6.711  18.191  0.00  0.00    +0.000 A 
ATOM     12  N   UNL     1       3.983   7.480  17.172  0.00  0.00    +0.000 NA
ATOM     13  C   UNL     1       4.851   6.706  16.573  0.00  0.00    +0.000 A 
ATOM     14  N   UNL     1       4.945   5.471  17.161  0.00  0.00    +0.000 N 
ATOM     15  C   UNL     1       4.063   5.461  18.209  0.00  0.00    +0.000 A 
ATOM     16  N   UNL     1       3.813   4.464  19.073  0.00  0.00    +0.000 NA
ATOM     17  H   UNL     1       1.609   4.086  21.265  0.00  0.00    +0.000 HD
ATOM     18  H   UNL     1       2.664   2.943  20.524  0.00  0.00    +0.000 HD
ENDROOT
BRANCH   8  19
ATOM     19  C   UNL     1       1.332  11.731  19.989  0.00  0.00    +0.000 C 
ATOM     20  C   UNL     1       1.808  12.724  18.917  0.00  0.00    +0.000 C 
ATOM     21  C   UNL     1       2.402  13.869  19.716  0.00  0.00    +0.000 C 
ATOM     22  C   UNL     1       1.509  13.993  20.940  0.00  0.00    +0.000 C 
ATOM     23  C   UNL     1       0.763  12.664  21.070  0.00  0.00    +0.000 C 
ENDBRANCH   8  19
BRANCH  14  24
ATOM     24  C   UNL     1       5.788   4.369  16.713  0.00  0.00    +0.000 C 
BRANCH  24  25
ATOM     25  C   UNL     1       6.181   4.528  15.245  0.00  0.00    +0.000 C 
BRANCH  25  26
ATOM     26  C   UNL     1       5.649   3.473  14.277  0.00  0.00    +0.000 C 
BRANCH  26  27
ATOM     27  N   UNL     1       5.746   3.961  12.883  0.00  0.00    +0.000 NA
ATOM     28  C   UNL     1       4.851   3.284  11.925  0.00  0.00    +0.000 C 
ATOM     29  C   UNL     1       5.607   2.036  11.526  0.00  0.00    +0.000 C 
ATOM     30  C   UNL     1       7.012   2.575  11.355  0.00  0.00    +0.000 C 
ATOM     31  C   UNL     1       7.100   3.751  12.331  0.00  0.00    +0.000 C 
ENDBRANCH  26  27
ENDBRANCH  25  26
ENDBRANCH  24  25
ENDBRANCH  14  24
TORSDOF 5
ENDMDL
