MODEL 1
REMARK VINA RESULT:      -8.2      0.000      0.000
REMARK  Name = 
REMARK  6 active torsions:
REMARK  status: ('A' for Active; 'I' for Inactive)
REMARK    1  A    between atoms: C_1  and  C_2
REMARK    2  A    between atoms: N_7  and  S_8
REMARK    3  A    between atoms: S_8  and  C_11
REMARK    4  A    between atoms: C_14  and  N_15
REMARK    5  A    between atoms: C_16  and  C_18
REMARK    6  A    between atoms: C_21  and  N_22
REMARK                            x       y       z     vdW  Elec       q    Type
REMARK                         _______ _______ _______ _____ _____    ______ ____
ROOT
ATOM      1  C   UNL     1       6.588   6.191  17.935  0.00  0.00    +0.000 A 
ATOM      2  C   UNL     1       7.706   6.201  18.764  0.00  0.00    +0.000 A 
ATOM      3  C   UNL     1       8.487   7.356  18.860  0.00  0.00    +0.000 A 
ATOM      4  C   UNL     1       8.170   8.501  18.122  0.00  0.00    +0.000 A 
ATOM      5  C   UNL     1       7.045   8.474  17.287  0.00  0.00    +0.000 A 
ATOM      6  C   UNL     1       6.249   7.325  17.192  0.00  0.00    +0.000 A 
ENDROOT
BRANCH   4   7
ATOM      7  N   UNL     1       8.937   9.689  18.159  0.00  0.00    +0.000 N 
ATOM      8  C   UNL     1       9.303  10.414  19.285  0.00  0.00    +0.000 C 
ATOM      9  O   UNL     1       8.957  10.139  20.429  0.00  0.00    +0.000 OA
ATOM     10  H   UNL     1       9.265  10.045  17.270  0.00  0.00    +0.000 HD
BRANCH   8  11
ATOM     11  C   UNL     1      10.161  11.575  19.049  0.00  0.00    +0.000 A 
ATOM     12  C   UNL     1      11.535  11.606  19.220  0.00  0.00    +0.000 A 
ATOM     13  C   UNL     1      12.108  12.871  18.892  0.00  0.00    +0.000 A 
ATOM     14  C   UNL     1      11.140  13.762  18.483  0.00  0.00    +0.000 A 
ATOM     15  S   UNL     1       9.576  13.092  18.504  0.00  0.00    +0.000 S 
BRANCH  14  16
ATOM     16  N   UNL     1      11.354  15.125  18.064  0.00  0.00    +0.000 N 
ATOM     17  O   UNL     1      11.806  15.280  16.919  0.00  0.00    +0.000 OA
ATOM     18  O   UNL     1      11.090  16.032  18.864  0.00  0.00    +0.000 OA
ENDBRANCH  14  16
ENDBRANCH   8  11
ENDBRANCH   4   7
BRANCH   1  19
ATOM     19  S   UNL     1       5.601   4.717  17.845  0.00  0.00    +0.000 S 
ATOM     20  O   UNL     1       5.676   4.092  19.151  0.00  0.00    +0.000 OA
ATOM     21  O   UNL     1       5.988   3.987  16.656  0.00  0.00    +0.000 OA
BRANCH  19  28
ATOM     22  C   UNL     1       0.685   2.243  18.884  0.00  0.00    +0.000 C 
ATOM     23  C   UNL     1       1.492   3.454  19.233  0.00  0.00    +0.000 A 
ATOM     24  C   UNL     1       1.261   4.171  20.390  0.00  0.00    +0.000 A 
ATOM     25  C   UNL     1       2.042   5.293  20.575  0.00  0.00    +0.000 A 
ATOM     26  N   UNL     1       2.977   5.703  19.699  0.00  0.00    +0.000 NA
ATOM     27  C   UNL     1       3.144   4.906  18.646  0.00  0.00    +0.000 A 
ATOM     28  N   UNL     1       4.060   5.295  17.688  0.00  0.00    +0.000 N 
ATOM     29  N   UNL     1       2.441   3.812  18.347  0.00  0.00    +0.000 NA
ATOM     30  H   UNL     1       3.925   6.178  17.219  0.00  0.00    +0.000 HD
ENDBRANCH  19  28
ENDBRANCH   1  19
TORSDOF 5
ENDMDL
MODEL 2
REMARK VINA RESULT:      -8.1      5.202      8.209
REMARK  Name = 
REMARK  6 active torsions:
REMARK  status: ('A' for Active; 'I' for Inactive)
REMARK    1  A    between atoms: C_1  and  C_2
REMARK    2  A    between atoms: N_7  and  S_8
REMARK    3  A    between atoms: S_8  and  C_11
REMARK    4  A    between atoms: C_14  and  N_15
REMARK    5  A    between atoms: C_16  and  C_18
REMARK    6  A    between atoms: C_21  and  N_22
REMARK                            x       y       z     vdW  Elec       q    Type
REMARK                         _______ _______ _______ _____ _____    ______ ____
ROOT
ATOM      1  C   UNL     1       4.845   5.190  16.404  0.00  0.00    +0.000 A 
ATOM      2  C   UNL     1       4.115   4.590  17.426  0.00  0.00    +0.000 A 
ATOM      3  C   UNL     1       3.327   5.377  18.269  0.00  0.00    +0.000 A 
ATOM      4  C   UNL     1       3.270   6.766  18.111  0.00  0.00    +0.000 A 
ATOM      5  C   UNL     1       4.015   7.357  17.080  0.00  0.00    +0.000 A 
ATOM      6  C   UNL     1       4.801   6.575  16.223  0.00  0.00    +0.000 A 
ENDROOT
BRANCH   4   7
ATOM      7  N   UNL     1       2.510   7.616  18.947  0.00  0.00    +0.000 N 
ATOM      8  C   UNL     1       1.779   8.731  18.564  0.00  0.00    +0.000 C 
ATOM      9  O   UNL     1       1.734   9.171  17.420  0.00  0.00    +0.000 OA
ATOM     10  H   UNL     1       2.487   7.380  19.932  0.00  0.00    +0.000 HD
BRANCH   8  11
ATOM     11  C   UNL     1       1.023   9.398  19.625  0.00  0.00    +0.000 A 
ATOM     12  C   UNL     1       0.207  10.504  19.455  0.00  0.00    +0.000 A 
ATOM     13  C   UNL     1      -0.420  10.923  20.666  0.00  0.00    +0.000 A 
ATOM     14  C   UNL     1      -0.051  10.117  21.720  0.00  0.00    +0.000 A 
ATOM     15  S   UNL     1       1.034   8.888  21.261  0.00  0.00    +0.000 S 
BRANCH  14  16
ATOM     16  N   UNL     1      -0.498  10.236  23.086  0.00  0.00    +0.000 N 
ATOM     17  O   UNL     1      -1.539  10.887  23.266  0.00  0.00    +0.000 OA
ATOM     18  O   UNL     1       0.182   9.702  23.973  0.00  0.00    +0.000 OA
ENDBRANCH  14  16
ENDBRANCH   8  11
ENDBRANCH   4   7
BRANCH   1  19
ATOM     19  S   UNL     1       5.825   4.165  15.335  0.00  0.00    +0.000 S 
ATOM     20  O   UNL     1       5.654   4.689  13.994  0.00  0.00    +0.000 OA
ATOM     21  O   UNL     1       5.519   2.781  15.629  0.00  0.00    +0.000 OA
BRANCH  19  28
ATOM     22  C   UNL     1       7.951   8.770  17.712  0.00  0.00    +0.000 C 
ATOM     23  C   UNL     1       7.848   7.288  17.896  0.00  0.00    +0.000 A 
ATOM     24  C   UNL     1       8.004   6.699  19.135  0.00  0.00    +0.000 A 
ATOM     25  C   UNL     1       7.931   5.322  19.167  0.00  0.00    +0.000 A 
ATOM     26  N   UNL     1       7.731   4.562  18.075  0.00  0.00    +0.000 NA
ATOM     27  C   UNL     1       7.546   5.242  16.946  0.00  0.00    +0.000 A 
ATOM     28  N   UNL     1       7.378   4.518  15.782  0.00  0.00    +0.000 N 
ATOM     29  N   UNL     1       7.613   6.565  16.785  0.00  0.00    +0.000 NA
ATOM     30  H   UNL     1       8.114   3.891  15.490  0.00  0.00    +0.000 HD
ENDBRANCH  19  28
ENDBRANCH   1  19
TORSDOF 5
ENDMDL
MODEL 3
REMARK VINA RESULT:      -7.9      0.251      1.108
REMARK  Name = 
REMARK  6 active torsions:
REMARK  status: ('A' for Active; 'I' for Inactive)
REMARK    1  A    between atoms: C_1  and  C_2
REMARK    2  A    between atoms: N_7  and  S_8
REMARK    3  A    between atoms: S_8  and  C_11
REMARK    4  A    between atoms: C_14  and  N_15
REMARK    5  A    between atoms: C_16  and  C_18
REMARK    6  A    between atoms: C_21  and  N_22
REMARK                            x       y       z     vdW  Elec       q    Type
REMARK                         _______ _______ _______ _____ _____    ______ ____
ROOT
ATOM      1  C   UNL     1       6.521   6.209  17.984  0.00  0.00    +0.000 A 
ATOM      2  C   UNL     1       6.083   7.300  17.239  0.00  0.00    +0.000 A 
ATOM      3  C   UNL     1       6.843   8.472  17.215  0.00  0.00    +0.000 A 
ATOM      4  C   UNL     1       8.033   8.573  17.942  0.00  0.00    +0.000 A 
ATOM      5  C   UNL     1       8.459   7.468  18.693  0.00  0.00    +0.000 A 
ATOM      6  C   UNL     1       7.709   6.284  18.716  0.00  0.00    +0.000 A 
ENDROOT
BRANCH   4   7
ATOM      7  N   UNL     1       8.831   9.741  17.976  0.00  0.00    +0.000 N 
ATOM      8  C   UNL     1       9.264  10.425  19.103  0.00  0.00    +0.000 C 
ATOM      9  O   UNL     1       8.962  10.128  20.253  0.00  0.00    +0.000 OA
ATOM     10  H   UNL     1       9.128  10.113  17.082  0.00  0.00    +0.000 HD
BRANCH   8  11
ATOM     11  C   UNL     1      10.141  11.572  18.859  0.00  0.00    +0.000 A 
ATOM     12  C   UNL     1      11.502  11.504  18.619  0.00  0.00    +0.000 A 
ATOM     13  C   UNL     1      12.092  12.783  18.394  0.00  0.00    +0.000 A 
ATOM     14  C   UNL     1      11.149  13.784  18.475  0.00  0.00    +0.000 A 
ATOM     15  S   UNL     1       9.591  13.195  18.825  0.00  0.00    +0.000 S 
BRANCH  14  16
ATOM     16  N   UNL     1      11.381  15.195  18.291  0.00  0.00    +0.000 N 
ATOM     17  O   UNL     1      11.257  15.906  19.301  0.00  0.00    +0.000 OA
ATOM     18  O   UNL     1      11.670  15.598  17.157  0.00  0.00    +0.000 OA
ENDBRANCH  14  16
ENDBRANCH   8  11
ENDBRANCH   4   7
BRANCH   1  19
ATOM     19  S   UNL     1       5.547   4.724  17.985  0.00  0.00    +0.000 S 
ATOM     20  O   UNL     1       5.610   4.192  19.332  0.00  0.00    +0.000 OA
ATOM     21  O   UNL     1       5.953   3.917  16.854  0.00  0.00    +0.000 OA
BRANCH  19  28
ATOM     22  C   UNL     1       0.635   2.196  18.909  0.00  0.00    +0.000 C 
ATOM     23  C   UNL     1       1.414   3.424  19.263  0.00  0.00    +0.000 A 
ATOM     24  C   UNL     1       1.136   4.156  20.401  0.00  0.00    +0.000 A 
ATOM     25  C   UNL     1       1.895   5.291  20.593  0.00  0.00    +0.000 A 
ATOM     26  N   UNL     1       2.851   5.701  19.740  0.00  0.00    +0.000 NA
ATOM     27  C   UNL     1       3.063   4.890  18.705  0.00  0.00    +0.000 A 
ATOM     28  N   UNL     1       4.003   5.277  17.770  0.00  0.00    +0.000 N 
ATOM     29  N   UNL     1       2.384   3.782  18.402  0.00  0.00    +0.000 NA
ATOM     30  H   UNL     1       3.871   6.151  17.283  0.00  0.00    +0.000 HD
ENDBRANCH  19  28
ENDBRANCH   1  19
TORSDOF 5
ENDMDL
MODEL 4
REMARK VINA RESULT:      -7.8      6.116      8.225
REMARK  Name = 
REMARK  6 active torsions:
REMARK  status: ('A' for Active; 'I' for Inactive)
REMARK    1  A    between atoms: C_1  and  C_2
REMARK    2  A    between atoms: N_7  and  S_8
REMARK    3  A    between atoms: S_8  and  C_11
REMARK    4  A    between atoms: C_14  and  N_15
REMARK    5  A    between atoms: C_16  and  C_18
REMARK    6  A    between atoms: C_21  and  N_22
REMARK                            x       y       z     vdW  Elec       q    Type
REMARK                         _______ _______ _______ _____ _____    ______ ____
ROOT
ATOM      1  C   UNL     1       4.373   5.895  18.521  0.00  0.00    +0.000 A 
ATOM      2  C   UNL     1       4.088   6.662  17.395  0.00  0.00    +0.000 A 
ATOM      3  C   UNL     1       3.039   7.584  17.432  0.00  0.00    +0.000 A 
ATOM      4  C   UNL     1       2.258   7.739  18.583  0.00  0.00    +0.000 A 
ATOM      5  C   UNL     1       2.554   6.956  19.707  0.00  0.00    +0.000 A 
ATOM      6  C   UNL     1       3.610   6.035  19.683  0.00  0.00    +0.000 A 
ENDROOT
BRANCH   4   7
ATOM      7  N   UNL     1       1.169   8.637  18.671  0.00  0.00    +0.000 N 
ATOM      8  C   UNL     1       1.179   9.994  18.382  0.00  0.00    +0.000 C 
ATOM      9  O   UNL     1       2.176  10.625  18.050  0.00  0.00    +0.000 OA
ATOM     10  H   UNL     1       0.283   8.247  18.966  0.00  0.00    +0.000 HD
BRANCH   8  11
ATOM     11  C   UNL     1      -0.108  10.682  18.492  0.00  0.00    +0.000 A 
ATOM     12  C   UNL     1      -0.359  11.795  19.277  0.00  0.00    +0.000 A 
ATOM     13  C   UNL     1      -1.702  12.262  19.166  0.00  0.00    +0.000 A 
ATOM     14  C   UNL     1      -2.429  11.479  18.297  0.00  0.00    +0.000 A 
ATOM     15  S   UNL     1      -1.515  10.204  17.638  0.00  0.00    +0.000 S 
BRANCH  14  16
ATOM     16  N   UNL     1      -3.813  11.661  17.934  0.00  0.00    +0.000 N 
ATOM     17  O   UNL     1      -4.104  11.419  16.752  0.00  0.00    +0.000 OA
ATOM     18  O   UNL     1      -4.600  12.053  18.805  0.00  0.00    +0.000 OA
ENDBRANCH  14  16
ENDBRANCH   8  11
ENDBRANCH   4   7
BRANCH   1  19
ATOM     19  S   UNL     1       5.723   4.743  18.454  0.00  0.00    +0.000 S 
ATOM     20  O   UNL     1       6.368   4.789  19.752  0.00  0.00    +0.000 OA
ATOM     21  O   UNL     1       6.479   5.002  17.247  0.00  0.00    +0.000 OA
BRANCH  19  28
ATOM     22  C   UNL     1       1.734   2.496  21.681  0.00  0.00    +0.000 C 
ATOM     23  C   UNL     1       2.045   2.840  20.258  0.00  0.00    +0.000 A 
ATOM     24  C   UNL     1       1.046   3.014  19.320  0.00  0.00    +0.000 A 
ATOM     25  C   UNL     1       1.462   3.285  18.033  0.00  0.00    +0.000 A 
ATOM     26  N   UNL     1       2.755   3.373  17.671  0.00  0.00    +0.000 NA
ATOM     27  C   UNL     1       3.626   3.236  18.669  0.00  0.00    +0.000 A 
ATOM     28  N   UNL     1       4.970   3.274  18.356  0.00  0.00    +0.000 N 
ATOM     29  N   UNL     1       3.349   2.953  19.943  0.00  0.00    +0.000 NA
ATOM     30  H   UNL     1       5.337   2.591  17.709  0.00  0.00    +0.000 HD
ENDBRANCH  19  28
ENDBRANCH   1  19
TORSDOF 5
ENDMDL
MODEL 5
REMARK VINA RESULT:      -7.8      1.463      2.043
REMARK  Name = 
REMARK  6 active torsions:
REMARK  status: ('A' for Active; 'I' for Inactive)
REMARK    1  A    between atoms: C_1  and  C_2
REMARK    2  A    between atoms: N_7  and  S_8
REMARK    3  A    between atoms: S_8  and  C_11
REMARK    4  A    between atoms: C_14  and  N_15
REMARK    5  A    between atoms: C_16  and  C_18
REMARK    6  A    between atoms: C_21  and  N_22
REMARK                            x       y       z     vdW  Elec       q    Type
REMARK                         _______ _______ _______ _____ _____    ______ ____
ROOT
ATOM      1  C   UNL     1       6.628   5.788  17.524  0.00  0.00    +0.000 A 
ATOM      2  C   UNL     1       7.467   5.632  18.624  0.00  0.00    +0.000 A 
ATOM      3  C   UNL     1       8.229   6.713  19.072  0.00  0.00    +0.000 A 
ATOM      4  C   UNL     1       8.172   7.951  18.423  0.00  0.00    +0.000 A 
ATOM      5  C   UNL     1       7.327   8.092  17.313  0.00  0.00    +0.000 A 
ATOM      6  C   UNL     1       6.552   7.015  16.861  0.00  0.00    +0.000 A 
ENDROOT
BRANCH   4   7
ATOM      7  N   UNL     1       8.938   9.074  18.816  0.00  0.00    +0.000 N 
ATOM      8  C   UNL     1       8.781  10.384  18.389  0.00  0.00    +0.000 C 
ATOM      9  O   UNL     1       7.964  10.746  17.548  0.00  0.00    +0.000 OA
ATOM     10  H   UNL     1       9.673   8.907  19.492  0.00  0.00    +0.000 HD
BRANCH   8  11
ATOM     11  C   UNL     1       9.667  11.371  19.007  0.00  0.00    +0.000 A 
ATOM     12  C   UNL     1      10.398  11.178  20.167  0.00  0.00    +0.000 A 
ATOM     13  C   UNL     1      11.192  12.310  20.519  0.00  0.00    +0.000 A 
ATOM     14  C   UNL     1      11.029  13.331  19.609  0.00  0.00    +0.000 A 
ATOM     15  S   UNL     1       9.938  12.937  18.364  0.00  0.00    +0.000 S 
BRANCH  14  16
ATOM     16  N   UNL     1      11.681  14.616  19.640  0.00  0.00    +0.000 N 
ATOM     17  O   UNL     1      11.523  15.285  20.673  0.00  0.00    +0.000 OA
ATOM     18  O   UNL     1      12.333  14.967  18.647  0.00  0.00    +0.000 OA
ENDBRANCH  14  16
ENDBRANCH   8  11
ENDBRANCH   4   7
BRANCH   1  19
ATOM     19  S   UNL     1       5.657   4.402  16.984  0.00  0.00    +0.000 S 
ATOM     20  O   UNL     1       6.500   3.633  16.088  0.00  0.00    +0.000 OA
ATOM     21  O   UNL     1       4.371   4.897  16.540  0.00  0.00    +0.000 OA
BRANCH  19  28
ATOM     22  C   UNL     1       1.905   4.793  21.124  0.00  0.00    +0.000 C 
ATOM     23  C   UNL     1       2.459   3.829  20.122  0.00  0.00    +0.000 A 
ATOM     24  C   UNL     1       1.752   2.712  19.723  0.00  0.00    +0.000 A 
ATOM     25  C   UNL     1       2.388   1.877  18.829  0.00  0.00    +0.000 A 
ATOM     26  N   UNL     1       3.628   2.099  18.356  0.00  0.00    +0.000 NA
ATOM     27  C   UNL     1       4.192   3.232  18.772  0.00  0.00    +0.000 A 
ATOM     28  N   UNL     1       5.482   3.496  18.356  0.00  0.00    +0.000 N 
ATOM     29  N   UNL     1       3.688   4.104  19.648  0.00  0.00    +0.000 NA
ATOM     30  H   UNL     1       6.211   2.841  18.593  0.00  0.00    +0.000 HD
ENDBRANCH  19  28
ENDBRANCH   1  19
TORSDOF 5
ENDMDL
MODEL 6
REMARK VINA RESULT:      -7.7      5.225      8.148
REMARK  Name = 
REMARK  6 active torsions:
REMARK  status: ('A' for Active; 'I' for Inactive)
REMARK    1  A    between atoms: C_1  and  C_2
REMARK    2  A    between atoms: N_7  and  S_8
REMARK    3  A    between atoms: S_8  and  C_11
REMARK    4  A    between atoms: C_14  and  N_15
REMARK    5  A    between atoms: C_16  and  C_18
REMARK    6  A    between atoms: C_21  and  N_22
REMARK                            x       y       z     vdW  Elec       q    Type
REMARK                         _______ _______ _______ _____ _____    ______ ____
ROOT
ATOM      1  C   UNL     1       4.759   5.143  16.676  0.00  0.00    +0.000 A 
ATOM      2  C   UNL     1       4.200   4.484  17.767  0.00  0.00    +0.000 A 
ATOM      3  C   UNL     1       3.465   5.206  18.710  0.00  0.00    +0.000 A 
ATOM      4  C   UNL     1       3.294   6.589  18.583  0.00  0.00    +0.000 A 
ATOM      5  C   UNL     1       3.868   7.240  17.481  0.00  0.00    +0.000 A 
ATOM      6  C   UNL     1       4.599   6.523  16.525  0.00  0.00    +0.000 A 
ENDROOT
BRANCH   4   7
ATOM      7  N   UNL     1       2.582   7.376  19.517  0.00  0.00    +0.000 N 
ATOM      8  C   UNL     1       1.716   8.424  19.241  0.00  0.00    +0.000 C 
ATOM      9  O   UNL     1       1.484   8.854  18.116  0.00  0.00    +0.000 OA
ATOM     10  H   UNL     1       2.708   7.143  20.495  0.00  0.00    +0.000 HD
BRANCH   8  11
ATOM     11  C   UNL     1       1.053   9.030  20.396  0.00  0.00    +0.000 A 
ATOM     12  C   UNL     1       0.948   8.458  21.652  0.00  0.00    +0.000 A 
ATOM     13  C   UNL     1       0.266   9.292  22.588  0.00  0.00    +0.000 A 
ATOM     14  C   UNL     1      -0.130  10.474  22.001  0.00  0.00    +0.000 A 
ATOM     15  S   UNL     1       0.304  10.572  20.359  0.00  0.00    +0.000 S 
BRANCH  14  16
ATOM     16  N   UNL     1      -0.831  11.556  22.646  0.00  0.00    +0.000 N 
ATOM     17  O   UNL     1      -1.882  11.254  23.232  0.00  0.00    +0.000 OA
ATOM     18  O   UNL     1      -0.354  12.696  22.562  0.00  0.00    +0.000 OA
ENDBRANCH  14  16
ENDBRANCH   8  11
ENDBRANCH   4   7
BRANCH   1  19
ATOM     19  S   UNL     1       5.675   4.199  15.481  0.00  0.00    +0.000 S 
ATOM     20  O   UNL     1       5.409   4.802  14.190  0.00  0.00    +0.000 OA
ATOM     21  O   UNL     1       5.401   2.796  15.708  0.00  0.00    +0.000 OA
BRANCH  19  28
ATOM     22  C   UNL     1       7.956   8.815  17.684  0.00  0.00    +0.000 C 
ATOM     23  C   UNL     1       7.851   7.337  17.894  0.00  0.00    +0.000 A 
ATOM     24  C   UNL     1       8.064   6.764  19.132  0.00  0.00    +0.000 A 
ATOM     25  C   UNL     1       7.981   5.388  19.186  0.00  0.00    +0.000 A 
ATOM     26  N   UNL     1       7.720   4.615  18.117  0.00  0.00    +0.000 NA
ATOM     27  C   UNL     1       7.483   5.281  16.988  0.00  0.00    +0.000 A 
ATOM     28  N   UNL     1       7.251   4.543  15.845  0.00  0.00    +0.000 N 
ATOM     29  N   UNL     1       7.554   6.602  16.806  0.00  0.00    +0.000 NA
ATOM     30  H   UNL     1       7.965   3.906  15.525  0.00  0.00    +0.000 HD
ENDBRANCH  19  28
ENDBRANCH   1  19
TORSDOF 5
ENDMDL
MODEL 7
REMARK VINA RESULT:      -7.7      6.431      9.088
REMARK  Name = 
REMARK  6 active torsions:
REMARK  status: ('A' for Active; 'I' for Inactive)
REMARK    1  A    between atoms: C_1  and  C_2
REMARK    2  A    between atoms: N_7  and  S_8
REMARK    3  A    between atoms: S_8  and  C_11
REMARK    4  A    between atoms: C_14  and  N_15
REMARK    5  A    between atoms: C_16  and  C_18
REMARK    6  A    between atoms: C_21  and  N_22
REMARK                            x       y       z     vdW  Elec       q    Type
REMARK                         _______ _______ _______ _____ _____    ______ ____
ROOT
ATOM      1  C   UNL     1       0.903   9.925  19.892  0.00  0.00    +0.000 A 
ATOM      2  C   UNL     1       1.208   8.680  20.433  0.00  0.00    +0.000 A 
ATOM      3  C   UNL     1       2.007   7.789  19.712  0.00  0.00    +0.000 A 
ATOM      4  C   UNL     1       2.496   8.124  18.445  0.00  0.00    +0.000 A 
ATOM      5  C   UNL     1       2.176   9.380  17.911  0.00  0.00    +0.000 A 
ATOM      6  C   UNL     1       1.383  10.285  18.630  0.00  0.00    +0.000 A 
ENDROOT
BRANCH   4   7
ATOM      7  N   UNL     1       3.288   7.255  17.659  0.00  0.00    +0.000 N 
ATOM      8  C   UNL     1       3.979   6.132  18.092  0.00  0.00    +0.000 C 
ATOM      9  O   UNL     1       4.038   5.762  19.260  0.00  0.00    +0.000 OA
ATOM     10  H   UNL     1       3.349   7.467  16.671  0.00  0.00    +0.000 HD
BRANCH   8  11
ATOM     11  C   UNL     1       4.670   5.365  17.055  0.00  0.00    +0.000 A 
ATOM     12  C   UNL     1       4.824   3.989  17.043  0.00  0.00    +0.000 A 
ATOM     13  C   UNL     1       5.523   3.517  15.893  0.00  0.00    +0.000 A 
ATOM     14  C   UNL     1       5.880   4.561  15.068  0.00  0.00    +0.000 A 
ATOM     15  S   UNL     1       5.392   6.075  15.672  0.00  0.00    +0.000 S 
BRANCH  14  16
ATOM     16  N   UNL     1       6.585   4.458  13.814  0.00  0.00    +0.000 N 
ATOM     17  O   UNL     1       7.498   5.278  13.632  0.00  0.00    +0.000 OA
ATOM     18  O   UNL     1       6.229   3.584  13.012  0.00  0.00    +0.000 OA
ENDBRANCH  14  16
ENDBRANCH   8  11
ENDBRANCH   4   7
BRANCH   1  19
ATOM     19  S   UNL     1      -0.100  11.047  20.836  0.00  0.00    +0.000 S 
ATOM     20  O   UNL     1       0.810  11.822  21.656  0.00  0.00    +0.000 OA
ATOM     21  O   UNL     1      -1.176  10.291  21.442  0.00  0.00    +0.000 OA
BRANCH  19  28
ATOM     22  C   UNL     1      -3.383  10.045  16.410  0.00  0.00    +0.000 C 
ATOM     23  C   UNL     1      -3.296  10.883  17.647  0.00  0.00    +0.000 A 
ATOM     24  C   UNL     1      -4.419  11.440  18.226  0.00  0.00    +0.000 A 
ATOM     25  C   UNL     1      -4.201  12.229  19.336  0.00  0.00    +0.000 A 
ATOM     26  N   UNL     1      -2.982  12.471  19.850  0.00  0.00    +0.000 NA
ATOM     27  C   UNL     1      -1.981  11.840  19.239  0.00  0.00    +0.000 A 
ATOM     28  N   UNL     1      -0.699  12.082  19.693  0.00  0.00    +0.000 N 
ATOM     29  N   UNL     1      -2.062  11.073  18.150  0.00  0.00    +0.000 NA
ATOM     30  H   UNL     1      -0.348  13.028  19.673  0.00  0.00    +0.000 HD
ENDBRANCH  19  28
ENDBRANCH   1  19
TORSDOF 5
ENDMDL
MODEL 8
REMARK VINA RESULT:      -7.6      6.519      9.241
REMARK  Name = 
REMARK  6 active torsions:
REMARK  status: ('A' for Active; 'I' for Inactive)
REMARK    1  A    between atoms: C_1  and  C_2
REMARK    2  A    between atoms: N_7  and  S_8
REMARK    3  A    between atoms: S_8  and  C_11
REMARK    4  A    between atoms: C_14  and  N_15
REMARK    5  A    between atoms: C_16  and  C_18
REMARK    6  A    between atoms: C_21  and  N_22
REMARK                            x       y       z     vdW  Elec       q    Type
REMARK                         _______ _______ _______ _____ _____    ______ ____
ROOT
ATOM      1  C   UNL     1       0.704  10.303  19.975  0.00  0.00    +0.000 A 
ATOM      2  C   UNL     1       1.169  10.642  18.707  0.00  0.00    +0.000 A 
ATOM      3  C   UNL     1       1.985   9.750  18.007  0.00  0.00    +0.000 A 
ATOM      4  C   UNL     1       2.357   8.524  18.568  0.00  0.00    +0.000 A 
ATOM      5  C   UNL     1       1.886   8.198  19.848  0.00  0.00    +0.000 A 
ATOM      6  C   UNL     1       1.059   9.081  20.554  0.00  0.00    +0.000 A 
ENDROOT
BRANCH   4   7
ATOM      7  N   UNL     1       3.200   7.593  17.918  0.00  0.00    +0.000 N 
ATOM      8  C   UNL     1       3.077   6.211  17.918  0.00  0.00    +0.000 C 
ATOM      9  O   UNL     1       2.223   5.591  18.543  0.00  0.00    +0.000 OA
ATOM     10  H   UNL     1       3.971   7.975  17.384  0.00  0.00    +0.000 HD
BRANCH   8  11
ATOM     11  C   UNL     1       4.049   5.480  17.104  0.00  0.00    +0.000 A 
ATOM     12  C   UNL     1       4.262   4.113  17.143  0.00  0.00    +0.000 A 
ATOM     13  C   UNL     1       5.259   3.678  16.220  0.00  0.00    +0.000 A 
ATOM     14  C   UNL     1       5.774   4.741  15.511  0.00  0.00    +0.000 A 
ATOM     15  S   UNL     1       5.077   6.229  15.955  0.00  0.00    +0.000 S 
BRANCH  14  16
ATOM     16  N   UNL     1       6.787   4.676  14.487  0.00  0.00    +0.000 N 
ATOM     17  O   UNL     1       7.810   5.349  14.687  0.00  0.00    +0.000 OA
ATOM     18  O   UNL     1       6.568   3.977  13.489  0.00  0.00    +0.000 OA
ENDBRANCH  14  16
ENDBRANCH   8  11
ENDBRANCH   4   7
BRANCH   1  19
ATOM     19  S   UNL     1      -0.347  11.446  20.837  0.00  0.00    +0.000 S 
ATOM     20  O   UNL     1       0.529  12.321  21.591  0.00  0.00    +0.000 OA
ATOM     21  O   UNL     1      -1.385  10.690  21.506  0.00  0.00    +0.000 OA
BRANCH  19  28
ATOM     22  C   UNL     1      -3.204   9.910  16.271  0.00  0.00    +0.000 C 
ATOM     23  C   UNL     1      -3.295  10.790  17.479  0.00  0.00    +0.000 A 
ATOM     24  C   UNL     1      -4.511  11.222  17.970  0.00  0.00    +0.000 A 
ATOM     25  C   UNL     1      -4.460  12.065  19.061  0.00  0.00    +0.000 A 
ATOM     26  N   UNL     1      -3.314  12.472  19.634  0.00  0.00    +0.000 NA
ATOM     27  C   UNL     1      -2.208  11.951  19.106  0.00  0.00    +0.000 A 
ATOM     28  N   UNL     1      -0.995  12.363  19.623  0.00  0.00    +0.000 N 
ATOM     29  N   UNL     1      -2.127  11.147  18.044  0.00  0.00    +0.000 NA
ATOM     30  H   UNL     1      -0.761  13.344  19.588  0.00  0.00    +0.000 HD
ENDBRANCH  19  28
ENDBRANCH   1  19
TORSDOF 5
ENDMDL
MODEL 9
REMARK VINA RESULT:      -7.6      7.341      9.515
REMARK  Name = 
REMARK  6 active torsions:
REMARK  status: ('A' for Active; 'I' for Inactive)
REMARK    1  A    between atoms: C_1  and  C_2
REMARK    2  A    between atoms: N_7  and  S_8
REMARK    3  A    between atoms: S_8  and  C_11
REMARK    4  A    between atoms: C_14  and  N_15
REMARK    5  A    between atoms: C_16  and  C_18
REMARK    6  A    between atoms: C_21  and  N_22
REMARK                            x       y       z     vdW  Elec       q    Type
REMARK                         _______ _______ _______ _____ _____    ______ ____
ROOT
ATOM      1  C   UNL     1       1.910   8.091  19.228  0.00  0.00    +0.000 A 
ATOM      2  C   UNL     1       1.511   7.872  20.543  0.00  0.00    +0.000 A 
ATOM      3  C   UNL     1       0.736   8.830  21.201  0.00  0.00    +0.000 A 
ATOM      4  C   UNL     1       0.365  10.017  20.562  0.00  0.00    +0.000 A 
ATOM      5  C   UNL     1       0.780  10.228  19.239  0.00  0.00    +0.000 A 
ATOM      6  C   UNL     1       1.549   9.268  18.567  0.00  0.00    +0.000 A 
ENDROOT
BRANCH   4   7
ATOM      7  N   UNL     1      -0.397  11.033  21.184  0.00  0.00    +0.000 N 
ATOM      8  C   UNL     1      -0.624  11.195  22.543  0.00  0.00    +0.000 C 
ATOM      9  O   UNL     1      -0.225  10.424  23.409  0.00  0.00    +0.000 OA
ATOM     10  H   UNL     1      -0.812  11.727  20.574  0.00  0.00    +0.000 HD
BRANCH   8  11
ATOM     11  C   UNL     1      -1.396  12.377  22.929  0.00  0.00    +0.000 A 
ATOM     12  C   UNL     1      -0.910  13.672  22.975  0.00  0.00    +0.000 A 
ATOM     13  C   UNL     1      -1.899  14.624  23.366  0.00  0.00    +0.000 A 
ATOM     14  C   UNL     1      -3.108  14.010  23.607  0.00  0.00    +0.000 A 
ATOM     15  S   UNL     1      -3.050  12.325  23.377  0.00  0.00    +0.000 S 
BRANCH  14  16
ATOM     16  N   UNL     1      -4.332  14.659  24.006  0.00  0.00    +0.000 N 
ATOM     17  O   UNL     1      -5.383  14.143  23.598  0.00  0.00    +0.000 OA
ATOM     18  O   UNL     1      -4.253  15.678  24.706  0.00  0.00    +0.000 OA
ENDBRANCH  14  16
ENDBRANCH   8  11
ENDBRANCH   4   7
BRANCH   1  19
ATOM     19  S   UNL     1       2.881   6.850  18.408  0.00  0.00    +0.000 S 
ATOM     20  O   UNL     1       3.843   7.557  17.586  0.00  0.00    +0.000 OA
ATOM     21  O   UNL     1       1.976   5.886  17.818  0.00  0.00    +0.000 OA
BRANCH  19  28
ATOM     22  C   UNL     1       1.547   2.588  21.789  0.00  0.00    +0.000 C 
ATOM     23  C   UNL     1       2.600   3.047  20.829  0.00  0.00    +0.000 A 
ATOM     24  C   UNL     1       3.454   2.156  20.210  0.00  0.00    +0.000 A 
ATOM     25  C   UNL     1       4.410   2.706  19.383  0.00  0.00    +0.000 A 
ATOM     26  N   UNL     1       4.541   4.028  19.172  0.00  0.00    +0.000 NA
ATOM     27  C   UNL     1       3.631   4.785  19.782  0.00  0.00    +0.000 A 
ATOM     28  N   UNL     1       3.737   6.155  19.640  0.00  0.00    +0.000 N 
ATOM     29  N   UNL     1       2.676   4.374  20.619  0.00  0.00    +0.000 NA
ATOM     30  H   UNL     1       4.581   6.611  19.953  0.00  0.00    +0.000 HD
ENDBRANCH  19  28
ENDBRANCH   1  19
TORSDOF 5
ENDMDL
