MODEL 1
REMARK VINA RESULT:      -7.9      0.000      0.000
REMARK  Name = 
REMARK  6 active torsions:
REMARK  status: ('A' for Active; 'I' for Inactive)
REMARK    1  A    between atoms: C_2  and  C_3
REMARK    2  A    between atoms: C_6  and  N_7
REMARK    3  A    between atoms: C_10  and  C_11
REMARK    4  A    between atoms: C_14  and  O_15
REMARK    5  A    between atoms: C_17  and  O_18
REMARK    6  A    between atoms: C_22  and  C_23
REMARK                            x       y       z     vdW  Elec       q    Type
REMARK                         _______ _______ _______ _____ _____    ______ ____
ROOT
ATOM      1  N   UNL     1       1.895   5.963  21.170  0.00  0.00    +0.000 N 
ATOM      2  C   UNL     1       2.672   5.149  20.413  0.00  0.00    +0.000 A 
ATOM      3  N   UNL     1       3.570   5.516  19.529  0.00  0.00    +0.000 NA
ATOM      4  C   UNL     1       4.075   4.424  18.842  0.00  0.00    +0.000 A 
ATOM      5  C   UNL     1       3.585   3.209  19.272  0.00  0.00    +0.000 A 
ATOM      6  S   UNL     1       2.478   3.438  20.556  0.00  0.00    +0.000 S 
ATOM      7  H   UNL     1       1.232   5.490  21.771  0.00  0.00    +0.000 HD
ENDROOT
BRANCH   1  11
ATOM      8  C   UNL     1       0.787   9.982  20.376  0.00  0.00    +0.000 A 
ATOM      9  C   UNL     1       0.614   9.406  21.644  0.00  0.00    +0.000 A 
ATOM     10  C   UNL     1       1.003   8.086  21.892  0.00  0.00    +0.000 A 
ATOM     11  C   UNL     1       1.563   7.300  20.880  0.00  0.00    +0.000 A 
ATOM     12  C   UNL     1       1.742   7.892  19.623  0.00  0.00    +0.000 A 
ATOM     13  C   UNL     1       1.357   9.222  19.347  0.00  0.00    +0.000 A 
BRANCH  13  14
ATOM     14  C   UNL     1       1.588   9.731  17.944  0.00  0.00    +0.000 C 
ATOM     15  F   UNL     1       2.311  10.876  17.857  0.00  0.00    +0.000 F 
ATOM     16  F   UNL     1       2.251   8.821  17.175  0.00  0.00    +0.000 F 
ATOM     17  F   UNL     1       0.420   9.986  17.290  0.00  0.00    +0.000 F 
ENDBRANCH  13  14
BRANCH   8  19
ATOM     18  N   UNL     1       0.060  12.448  20.032  0.00  0.00    +0.000 NA
ATOM     19  C   UNL     1       0.369  11.341  20.202  0.00  0.00    +0.000 C 
ENDBRANCH   8  19
ENDBRANCH   1  11
BRANCH   4  20
ATOM     20  C   UNL     1       5.069   4.605  17.790  0.00  0.00    +0.000 A 
ATOM     21  C   UNL     1       4.667   4.426  16.453  0.00  0.00    +0.000 A 
ATOM     22  C   UNL     1       5.567   4.603  15.398  0.00  0.00    +0.000 A 
ATOM     23  C   UNL     1       6.882   4.952  15.680  0.00  0.00    +0.000 A 
ATOM     24  C   UNL     1       7.314   5.111  16.992  0.00  0.00    +0.000 A 
ATOM     25  C   UNL     1       6.411   4.932  18.042  0.00  0.00    +0.000 A 
BRANCH  23  26
ATOM     26  O   UNL     1       7.794   5.151  14.687  0.00  0.00    +0.000 OA
ATOM     27  H   UNL     1       7.320   5.249  13.843  0.00  0.00    +0.000 HD
ENDBRANCH  23  26
BRANCH  25  28
ATOM     28  O   UNL     1       6.865   5.062  19.329  0.00  0.00    +0.000 OA
ATOM     29  H   UNL     1       6.549   4.305  19.850  0.00  0.00    +0.000 HD
ENDBRANCH  25  28
ENDBRANCH   4  20
TORSDOF 6
ENDMDL
MODEL 2
REMARK VINA RESULT:      -7.7      4.985      8.353
REMARK  Name = 
REMARK  6 active torsions:
REMARK  status: ('A' for Active; 'I' for Inactive)
REMARK    1  A    between atoms: C_2  and  C_3
REMARK    2  A    between atoms: C_6  and  N_7
REMARK    3  A    between atoms: C_10  and  C_11
REMARK    4  A    between atoms: C_14  and  O_15
REMARK    5  A    between atoms: C_17  and  O_18
REMARK    6  A    between atoms: C_22  and  C_23
REMARK                            x       y       z     vdW  Elec       q    Type
REMARK                         _______ _______ _______ _____ _____    ______ ____
ROOT
ATOM      1  N   UNL     1       1.620   8.304  21.073  0.00  0.00    +0.000 N 
ATOM      2  C   UNL     1       0.809   9.350  20.779  0.00  0.00    +0.000 A 
ATOM      3  N   UNL     1      -0.203   9.353  19.942  0.00  0.00    +0.000 NA
ATOM      4  C   UNL     1      -0.719  10.627  19.782  0.00  0.00    +0.000 A 
ATOM      5  C   UNL     1      -0.117  11.586  20.569  0.00  0.00    +0.000 A 
ATOM      6  S   UNL     1       1.113  10.879  21.525  0.00  0.00    +0.000 S 
ATOM      7  H   UNL     1       2.372   8.508  21.718  0.00  0.00    +0.000 HD
ENDROOT
BRANCH   1  11
ATOM      8  C   UNL     1       2.243   4.961  18.534  0.00  0.00    +0.000 A 
ATOM      9  C   UNL     1       2.513   6.271  18.107  0.00  0.00    +0.000 A 
ATOM     10  C   UNL     1       2.320   7.358  18.964  0.00  0.00    +0.000 A 
ATOM     11  C   UNL     1       1.841   7.172  20.266  0.00  0.00    +0.000 A 
ATOM     12  C   UNL     1       1.589   5.858  20.682  0.00  0.00    +0.000 A 
ATOM     13  C   UNL     1       1.775   4.743  19.835  0.00  0.00    +0.000 A 
BRANCH  13  14
ATOM     14  C   UNL     1       1.447   3.383  20.403  0.00  0.00    +0.000 C 
ATOM     15  F   UNL     1       2.429   2.454  20.279  0.00  0.00    +0.000 F 
ATOM     16  F   UNL     1       1.164   3.441  21.735  0.00  0.00    +0.000 F 
ATOM     17  F   UNL     1       0.347   2.832  19.815  0.00  0.00    +0.000 F 
ENDBRANCH  13  14
BRANCH   8  19
ATOM     18  N   UNL     1       2.616   3.028  16.844  0.00  0.00    +0.000 NA
ATOM     19  C   UNL     1       2.472   3.899  17.598  0.00  0.00    +0.000 C 
ENDBRANCH   8  19
ENDBRANCH   1  11
BRANCH   4  20
ATOM     20  C   UNL     1      -1.835  10.866  18.872  0.00  0.00    +0.000 A 
ATOM     21  C   UNL     1      -2.940  11.596  19.349  0.00  0.00    +0.000 A 
ATOM     22  C   UNL     1      -4.032  11.875  18.521  0.00  0.00    +0.000 A 
ATOM     23  C   UNL     1      -4.026  11.414  17.212  0.00  0.00    +0.000 A 
ATOM     24  C   UNL     1      -2.959  10.668  16.721  0.00  0.00    +0.000 A 
ATOM     25  C   UNL     1      -1.871  10.392  17.552  0.00  0.00    +0.000 A 
BRANCH  23  26
ATOM     26  O   UNL     1      -5.059  11.671  16.361  0.00  0.00    +0.000 OA
ATOM     27  H   UNL     1      -4.808  12.409  15.780  0.00  0.00    +0.000 HD
ENDBRANCH  23  26
BRANCH  25  28
ATOM     28  O   UNL     1      -0.845   9.629  17.058  0.00  0.00    +0.000 OA
ATOM     29  H   UNL     1      -0.181   9.509  17.757  0.00  0.00    +0.000 HD
ENDBRANCH  25  28
ENDBRANCH   4  20
TORSDOF 6
ENDMDL
MODEL 3
REMARK VINA RESULT:      -7.6      1.866      2.358
REMARK  Name = 
REMARK  6 active torsions:
REMARK  status: ('A' for Active; 'I' for Inactive)
REMARK    1  A    between atoms: C_2  and  C_3
REMARK    2  A    between atoms: C_6  and  N_7
REMARK    3  A    between atoms: C_10  and  C_11
REMARK    4  A    between atoms: C_14  and  O_15
REMARK    5  A    between atoms: C_17  and  O_18
REMARK    6  A    between atoms: C_22  and  C_23
REMARK                            x       y       z     vdW  Elec       q    Type
REMARK                         _______ _______ _______ _____ _____    ______ ____
ROOT
ATOM      1  N   UNL     1       1.858   6.452  20.902  0.00  0.00    +0.000 N 
ATOM      2  C   UNL     1       2.665   5.584  20.244  0.00  0.00    +0.000 A 
ATOM      3  N   UNL     1       3.555   5.877  19.324  0.00  0.00    +0.000 NA
ATOM      4  C   UNL     1       4.097   4.731  18.767  0.00  0.00    +0.000 A 
ATOM      5  C   UNL     1       3.645   3.557  19.332  0.00  0.00    +0.000 A 
ATOM      6  S   UNL     1       2.526   3.895  20.581  0.00  0.00    +0.000 S 
ATOM      7  H   UNL     1       1.208   6.030  21.552  0.00  0.00    +0.000 HD
ENDROOT
BRANCH   1  11
ATOM      8  C   UNL     1       0.847  10.331  19.506  0.00  0.00    +0.000 A 
ATOM      9  C   UNL     1       1.493   9.396  18.682  0.00  0.00    +0.000 A 
ATOM     10  C   UNL     1       1.801   8.116  19.154  0.00  0.00    +0.000 A 
ATOM     11  C   UNL     1       1.485   7.736  20.462  0.00  0.00    +0.000 A 
ATOM     12  C   UNL     1       0.829   8.675  21.269  0.00  0.00    +0.000 A 
ATOM     13  C   UNL     1       0.508   9.974  20.817  0.00  0.00    +0.000 A 
BRANCH  13  14
ATOM     14  C   UNL     1      -0.183  10.895  21.795  0.00  0.00    +0.000 C 
ATOM     15  F   UNL     1       0.422  12.095  21.984  0.00  0.00    +0.000 F 
ATOM     16  F   UNL     1      -1.457  11.185  21.407  0.00  0.00    +0.000 F 
ATOM     17  F   UNL     1      -0.291  10.340  23.035  0.00  0.00    +0.000 F 
ENDBRANCH  13  14
BRANCH   8  19
ATOM     18  N   UNL     1       0.314  12.676  18.534  0.00  0.00    +0.000 NA
ATOM     19  C   UNL     1       0.561  11.620  18.948  0.00  0.00    +0.000 C 
ENDBRANCH   8  19
ENDBRANCH   1  11
BRANCH   4  20
ATOM     20  C   UNL     1       5.090   4.823  17.702  0.00  0.00    +0.000 A 
ATOM     21  C   UNL     1       4.638   4.856  16.369  0.00  0.00    +0.000 A 
ATOM     22  C   UNL     1       5.539   4.963  15.304  0.00  0.00    +0.000 A 
ATOM     23  C   UNL     1       6.900   5.028  15.571  0.00  0.00    +0.000 A 
ATOM     24  C   UNL     1       7.376   4.972  16.876  0.00  0.00    +0.000 A 
ATOM     25  C   UNL     1       6.474   4.864  17.936  0.00  0.00    +0.000 A 
BRANCH  23  26
ATOM     26  O   UNL     1       7.817   5.147  14.569  0.00  0.00    +0.000 OA
ATOM     27  H   UNL     1       8.537   5.724  14.874  0.00  0.00    +0.000 HD
ENDBRANCH  23  26
BRANCH  25  28
ATOM     28  O   UNL     1       6.966   4.779  19.212  0.00  0.00    +0.000 OA
ATOM     29  H   UNL     1       7.357   3.898  19.338  0.00  0.00    +0.000 HD
ENDBRANCH  25  28
ENDBRANCH   4  20
TORSDOF 6
ENDMDL
MODEL 4
REMARK VINA RESULT:      -7.6      1.897      2.401
REMARK  Name = 
REMARK  6 active torsions:
REMARK  status: ('A' for Active; 'I' for Inactive)
REMARK    1  A    between atoms: C_2  and  C_3
REMARK    2  A    between atoms: C_6  and  N_7
REMARK    3  A    between atoms: C_10  and  C_11
REMARK    4  A    between atoms: C_14  and  O_15
REMARK    5  A    between atoms: C_17  and  O_18
REMARK    6  A    between atoms: C_22  and  C_23
REMARK                            x       y       z     vdW  Elec       q    Type
REMARK                         _______ _______ _______ _____ _____    ______ ____
ROOT
ATOM      1  N   UNL     1       2.289   5.752  20.692  0.00  0.00    +0.000 N 
ATOM      2  C   UNL     1       3.095   4.976  19.925  0.00  0.00    +0.000 A 
ATOM      3  N   UNL     1       3.898   5.378  18.968  0.00  0.00    +0.000 NA
ATOM      4  C   UNL     1       4.464   4.304  18.302  0.00  0.00    +0.000 A 
ATOM      5  C   UNL     1       4.121   3.072  18.820  0.00  0.00    +0.000 A 
ATOM      6  S   UNL     1       3.077   3.265  20.161  0.00  0.00    +0.000 S 
ATOM      7  H   UNL     1       1.712   5.252  21.356  0.00  0.00    +0.000 HD
ENDROOT
BRANCH   1  11
ATOM      8  C   UNL     1       0.970   9.646  19.638  0.00  0.00    +0.000 A 
ATOM      9  C   UNL     1       1.765   8.878  18.773  0.00  0.00    +0.000 A 
ATOM     10  C   UNL     1       2.174   7.589  19.129  0.00  0.00    +0.000 A 
ATOM     11  C   UNL     1       1.812   7.035  20.362  0.00  0.00    +0.000 A 
ATOM     12  C   UNL     1       1.008   7.808  21.209  0.00  0.00    +0.000 A 
ATOM     13  C   UNL     1       0.583   9.112  20.873  0.00  0.00    +0.000 A 
BRANCH  13  14
ATOM     14  C   UNL     1      -0.265   9.845  21.885  0.00  0.00    +0.000 C 
ATOM     15  F   UNL     1      -0.841   9.060  22.832  0.00  0.00    +0.000 F 
ATOM     16  F   UNL     1       0.452  10.778  22.572  0.00  0.00    +0.000 F 
ATOM     17  F   UNL     1      -1.292  10.525  21.300  0.00  0.00    +0.000 F 
ENDBRANCH  13  14
BRANCH   8  19
ATOM     18  N   UNL     1       0.305  12.033  18.868  0.00  0.00    +0.000 NA
ATOM     19  C   UNL     1       0.587  10.955  19.198  0.00  0.00    +0.000 C 
ENDBRANCH   8  19
ENDBRANCH   1  11
BRANCH   4  20
ATOM     20  C   UNL     1       5.371   4.521  17.180  0.00  0.00    +0.000 A 
ATOM     21  C   UNL     1       4.816   4.713  15.901  0.00  0.00    +0.000 A 
ATOM     22  C   UNL     1       5.631   4.945  14.788  0.00  0.00    +0.000 A 
ATOM     23  C   UNL     1       7.009   4.975  14.952  0.00  0.00    +0.000 A 
ATOM     24  C   UNL     1       7.586   4.764  16.199  0.00  0.00    +0.000 A 
ATOM     25  C   UNL     1       6.769   4.532  17.307  0.00  0.00    +0.000 A 
BRANCH  23  26
ATOM     26  O   UNL     1       7.846   5.212  13.902  0.00  0.00    +0.000 OA
ATOM     27  H   UNL     1       8.418   5.966  14.124  0.00  0.00    +0.000 HD
ENDBRANCH  23  26
BRANCH  25  28
ATOM     28  O   UNL     1       7.359   4.294  18.521  0.00  0.00    +0.000 OA
ATOM     29  H   UNL     1       8.173   4.821  18.582  0.00  0.00    +0.000 HD
ENDBRANCH  25  28
ENDBRANCH   4  20
TORSDOF 6
ENDMDL
MODEL 5
REMARK VINA RESULT:      -7.6      5.270      8.386
REMARK  Name = 
REMARK  6 active torsions:
REMARK  status: ('A' for Active; 'I' for Inactive)
REMARK    1  A    between atoms: C_2  and  C_3
REMARK    2  A    between atoms: C_6  and  N_7
REMARK    3  A    between atoms: C_10  and  C_11
REMARK    4  A    between atoms: C_14  and  O_15
REMARK    5  A    between atoms: C_17  and  O_18
REMARK    6  A    between atoms: C_22  and  C_23
REMARK                            x       y       z     vdW  Elec       q    Type
REMARK                         _______ _______ _______ _____ _____    ______ ____
ROOT
ATOM      1  N   UNL     1       1.697   8.165  20.933  0.00  0.00    +0.000 N 
ATOM      2  C   UNL     1       0.896   9.209  20.605  0.00  0.00    +0.000 A 
ATOM      3  N   UNL     1      -0.114   9.194  19.767  0.00  0.00    +0.000 NA
ATOM      4  C   UNL     1      -0.618  10.468  19.565  0.00  0.00    +0.000 A 
ATOM      5  C   UNL     1      -0.007  11.446  20.322  0.00  0.00    +0.000 A 
ATOM      6  S   UNL     1       1.215  10.757  21.302  0.00  0.00    +0.000 S 
ATOM      7  H   UNL     1       2.450   8.382  21.572  0.00  0.00    +0.000 HD
ENDROOT
BRANCH   1  11
ATOM      8  C   UNL     1       2.296   4.738  18.502  0.00  0.00    +0.000 A 
ATOM      9  C   UNL     1       2.641   6.024  18.060  0.00  0.00    +0.000 A 
ATOM     10  C   UNL     1       2.454   7.139  18.883  0.00  0.00    +0.000 A 
ATOM     11  C   UNL     1       1.907   7.005  20.163  0.00  0.00    +0.000 A 
ATOM     12  C   UNL     1       1.580   5.713  20.596  0.00  0.00    +0.000 A 
ATOM     13  C   UNL     1       1.758   4.571  19.785  0.00  0.00    +0.000 A 
BRANCH  13  14
ATOM     14  C   UNL     1       1.347   3.240  20.366  0.00  0.00    +0.000 C 
ATOM     15  F   UNL     1       0.963   3.272  21.668  0.00  0.00    +0.000 F 
ATOM     16  F   UNL     1       0.299   2.690  19.690  0.00  0.00    +0.000 F 
ATOM     17  F   UNL     1       2.350   2.319  20.303  0.00  0.00    +0.000 F 
ENDBRANCH  13  14
BRANCH   8  19
ATOM     18  N   UNL     1       2.672   2.740  16.890  0.00  0.00    +0.000 NA
ATOM     19  C   UNL     1       2.523   3.644  17.603  0.00  0.00    +0.000 C 
ENDBRANCH   8  19
ENDBRANCH   1  11
BRANCH   4  20
ATOM     20  C   UNL     1      -1.730  10.689  18.647  0.00  0.00    +0.000 A 
ATOM     21  C   UNL     1      -1.722  10.012  17.413  0.00  0.00    +0.000 A 
ATOM     22  C   UNL     1      -2.768  10.166  16.498  0.00  0.00    +0.000 A 
ATOM     23  C   UNL     1      -3.825  11.010  16.812  0.00  0.00    +0.000 A 
ATOM     24  C   UNL     1      -3.847  11.712  18.012  0.00  0.00    +0.000 A 
ATOM     25  C   UNL     1      -2.800  11.555  18.923  0.00  0.00    +0.000 A 
BRANCH  23  26
ATOM     26  O   UNL     1      -4.875  11.183  15.960  0.00  0.00    +0.000 OA
ATOM     27  H   UNL     1      -5.190  10.309  15.673  0.00  0.00    +0.000 HD
ENDBRANCH  23  26
BRANCH  25  28
ATOM     28  O   UNL     1      -2.826  12.281  20.085  0.00  0.00    +0.000 OA
ATOM     29  H   UNL     1      -2.288  11.823  20.752  0.00  0.00    +0.000 HD
ENDBRANCH  25  28
ENDBRANCH   4  20
TORSDOF 6
ENDMDL
MODEL 6
REMARK VINA RESULT:      -7.4      4.169      7.685
REMARK  Name = 
REMARK  6 active torsions:
REMARK  status: ('A' for Active; 'I' for Inactive)
REMARK    1  A    between atoms: C_2  and  C_3
REMARK    2  A    between atoms: C_6  and  N_7
REMARK    3  A    between atoms: C_10  and  C_11
REMARK    4  A    between atoms: C_14  and  O_15
REMARK    5  A    between atoms: C_17  and  O_18
REMARK    6  A    between atoms: C_22  and  C_23
REMARK                            x       y       z     vdW  Elec       q    Type
REMARK                         _______ _______ _______ _____ _____    ______ ____
ROOT
ATOM      1  N   UNL     1       4.568   3.410  17.393  0.00  0.00    +0.000 N 
ATOM      2  C   UNL     1       3.815   4.178  18.219  0.00  0.00    +0.000 A 
ATOM      3  N   UNL     1       3.388   5.398  17.990  0.00  0.00    +0.000 NA
ATOM      4  C   UNL     1       2.767   5.931  19.107  0.00  0.00    +0.000 A 
ATOM      5  C   UNL     1       2.674   5.061  20.173  0.00  0.00    +0.000 A 
ATOM      6  S   UNL     1       3.373   3.553  19.768  0.00  0.00    +0.000 S 
ATOM      7  H   UNL     1       4.831   2.506  17.763  0.00  0.00    +0.000 HD
ENDROOT
BRANCH   1  11
ATOM      8  C   UNL     1       7.074   4.928  14.323  0.00  0.00    +0.000 A 
ATOM      9  C   UNL     1       7.246   5.299  15.665  0.00  0.00    +0.000 A 
ATOM     10  C   UNL     1       6.423   4.773  16.666  0.00  0.00    +0.000 A 
ATOM     11  C   UNL     1       5.398   3.874  16.355  0.00  0.00    +0.000 A 
ATOM     12  C   UNL     1       5.246   3.503  15.012  0.00  0.00    +0.000 A 
ATOM     13  C   UNL     1       6.063   4.020  13.983  0.00  0.00    +0.000 A 
BRANCH  13  14
ATOM     14  C   UNL     1       5.781   3.552  12.576  0.00  0.00    +0.000 C 
ATOM     15  F   UNL     1       6.529   4.143  11.610  0.00  0.00    +0.000 F 
ATOM     16  F   UNL     1       5.990   2.213  12.433  0.00  0.00    +0.000 F 
ATOM     17  F   UNL     1       4.484   3.764  12.214  0.00  0.00    +0.000 F 
ENDBRANCH  13  14
BRANCH   8  19
ATOM     18  N   UNL     1       8.654   6.008  12.571  0.00  0.00    +0.000 NA
ATOM     19  C   UNL     1       7.961   5.506  13.356  0.00  0.00    +0.000 C 
ENDBRANCH   8  19
ENDBRANCH   1  11
BRANCH   4  20
ATOM     20  C   UNL     1       2.240   7.291  19.084  0.00  0.00    +0.000 A 
ATOM     21  C   UNL     1       2.288   8.005  17.872  0.00  0.00    +0.000 A 
ATOM     22  C   UNL     1       1.781   9.305  17.780  0.00  0.00    +0.000 A 
ATOM     23  C   UNL     1       1.232   9.901  18.907  0.00  0.00    +0.000 A 
ATOM     24  C   UNL     1       1.194   9.229  20.124  0.00  0.00    +0.000 A 
ATOM     25  C   UNL     1       1.701   7.931  20.212  0.00  0.00    +0.000 A 
BRANCH  23  26
ATOM     26  O   UNL     1       0.712  11.160  18.866  0.00  0.00    +0.000 OA
ATOM     27  H   UNL     1       1.329  11.736  18.383  0.00  0.00    +0.000 HD
ENDBRANCH  23  26
BRANCH  25  28
ATOM     28  O   UNL     1       1.683   7.299  21.428  0.00  0.00    +0.000 OA
ATOM     29  H   UNL     1       0.861   7.533  21.890  0.00  0.00    +0.000 HD
ENDBRANCH  25  28
ENDBRANCH   4  20
TORSDOF 6
ENDMDL
MODEL 7
REMARK VINA RESULT:      -7.4      3.990      7.652
REMARK  Name = 
REMARK  6 active torsions:
REMARK  status: ('A' for Active; 'I' for Inactive)
REMARK    1  A    between atoms: C_2  and  C_3
REMARK    2  A    between atoms: C_6  and  N_7
REMARK    3  A    between atoms: C_10  and  C_11
REMARK    4  A    between atoms: C_14  and  O_15
REMARK    5  A    between atoms: C_17  and  O_18
REMARK    6  A    between atoms: C_22  and  C_23
REMARK                            x       y       z     vdW  Elec       q    Type
REMARK                         _______ _______ _______ _____ _____    ______ ____
ROOT
ATOM      1  N   UNL     1       4.556   3.289  17.507  0.00  0.00    +0.000 N 
ATOM      2  C   UNL     1       3.806   4.034  18.356  0.00  0.00    +0.000 A 
ATOM      3  N   UNL     1       3.392   5.266  18.168  0.00  0.00    +0.000 NA
ATOM      4  C   UNL     1       2.769   5.765  19.300  0.00  0.00    +0.000 A 
ATOM      5  C   UNL     1       2.660   4.858  20.333  0.00  0.00    +0.000 A 
ATOM      6  S   UNL     1       3.347   3.358  19.878  0.00  0.00    +0.000 S 
ATOM      7  H   UNL     1       4.807   2.369  17.846  0.00  0.00    +0.000 HD
ENDROOT
BRANCH   1  11
ATOM      8  C   UNL     1       7.097   4.890  14.509  0.00  0.00    +0.000 A 
ATOM      9  C   UNL     1       7.265   5.210  15.865  0.00  0.00    +0.000 A 
ATOM     10  C   UNL     1       6.430   4.657  16.841  0.00  0.00    +0.000 A 
ATOM     11  C   UNL     1       5.397   3.781  16.491  0.00  0.00    +0.000 A 
ATOM     12  C   UNL     1       5.250   3.461  15.135  0.00  0.00    +0.000 A 
ATOM     13  C   UNL     1       6.079   4.006  14.130  0.00  0.00    +0.000 A 
BRANCH  13  14
ATOM     14  C   UNL     1       5.800   3.593  12.705  0.00  0.00    +0.000 C 
ATOM     15  F   UNL     1       6.503   4.268  11.760  0.00  0.00    +0.000 F 
ATOM     16  F   UNL     1       6.076   2.275  12.493  0.00  0.00    +0.000 F 
ATOM     17  F   UNL     1       4.489   3.754  12.370  0.00  0.00    +0.000 F 
ENDBRANCH  13  14
BRANCH   8  19
ATOM     18  N   UNL     1       8.749   5.994  12.840  0.00  0.00    +0.000 NA
ATOM     19  C   UNL     1       7.996   5.493  13.569  0.00  0.00    +0.000 C 
ENDBRANCH   8  19
ENDBRANCH   1  11
BRANCH   4  20
ATOM     20  C   UNL     1       2.255   7.130  19.322  0.00  0.00    +0.000 A 
ATOM     21  C   UNL     1       1.518   7.547  20.446  0.00  0.00    +0.000 A 
ATOM     22  C   UNL     1       1.014   8.849  20.536  0.00  0.00    +0.000 A 
ATOM     23  C   UNL     1       1.241   9.737  19.494  0.00  0.00    +0.000 A 
ATOM     24  C   UNL     1       1.944   9.345  18.360  0.00  0.00    +0.000 A 
ATOM     25  C   UNL     1       2.444   8.045  18.274  0.00  0.00    +0.000 A 
BRANCH  23  26
ATOM     26  O   UNL     1       0.784  11.021  19.540  0.00  0.00    +0.000 OA
ATOM     27  H   UNL     1       0.999  11.458  18.699  0.00  0.00    +0.000 HD
ENDBRANCH  23  26
BRANCH  25  28
ATOM     28  O   UNL     1       3.106   7.669  17.134  0.00  0.00    +0.000 OA
ATOM     29  H   UNL     1       2.522   7.100  16.606  0.00  0.00    +0.000 HD
ENDBRANCH  25  28
ENDBRANCH   4  20
TORSDOF 6
ENDMDL
MODEL 8
REMARK VINA RESULT:      -7.4      1.140      1.174
REMARK  Name = 
REMARK  6 active torsions:
REMARK  status: ('A' for Active; 'I' for Inactive)
REMARK    1  A    between atoms: C_2  and  C_3
REMARK    2  A    between atoms: C_6  and  N_7
REMARK    3  A    between atoms: C_10  and  C_11
REMARK    4  A    between atoms: C_14  and  O_15
REMARK    5  A    between atoms: C_17  and  O_18
REMARK    6  A    between atoms: C_22  and  C_23
REMARK                            x       y       z     vdW  Elec       q    Type
REMARK                         _______ _______ _______ _____ _____    ______ ____
ROOT
ATOM      1  N   UNL     1       1.224   6.675  21.260  0.00  0.00    +0.000 N 
ATOM      2  C   UNL     1       1.940   5.836  20.471  0.00  0.00    +0.000 A 
ATOM      3  N   UNL     1       2.965   6.148  19.713  0.00  0.00    +0.000 NA
ATOM      4  C   UNL     1       3.362   5.072  18.937  0.00  0.00    +0.000 A 
ATOM      5  C   UNL     1       2.654   3.912  19.170  0.00  0.00    +0.000 A 
ATOM      6  S   UNL     1       1.474   4.174  20.382  0.00  0.00    +0.000 S 
ATOM      7  H   UNL     1       0.442   6.253  21.742  0.00  0.00    +0.000 HD
ENDROOT
BRANCH   1  11
ATOM      8  C   UNL     1       0.843  10.888  20.916  0.00  0.00    +0.000 A 
ATOM      9  C   UNL     1       0.718  10.235  22.153  0.00  0.00    +0.000 A 
ATOM     10  C   UNL     1       0.866   8.848  22.249  0.00  0.00    +0.000 A 
ATOM     11  C   UNL     1       1.130   8.073  21.116  0.00  0.00    +0.000 A 
ATOM     12  C   UNL     1       1.265   8.739  19.891  0.00  0.00    +0.000 A 
ATOM     13  C   UNL     1       1.119  10.138  19.766  0.00  0.00    +0.000 A 
BRANCH  13  14
ATOM     14  C   UNL     1       1.270  10.729  18.385  0.00  0.00    +0.000 C 
ATOM     15  F   UNL     1       2.271  11.636  18.251  0.00  0.00    +0.000 F 
ATOM     16  F   UNL     1       1.517   9.772  17.446  0.00  0.00    +0.000 F 
ATOM     17  F   UNL     1       0.139  11.368  17.972  0.00  0.00    +0.000 F 
ENDBRANCH  13  14
BRANCH   8  19
ATOM     18  N   UNL     1       0.554  13.466  20.929  0.00  0.00    +0.000 NA
ATOM     19  C   UNL     1       0.683  12.312  20.900  0.00  0.00    +0.000 C 
ENDBRANCH   8  19
ENDBRANCH   1  11
BRANCH   4  20
ATOM     20  C   UNL     1       4.471   5.205  17.998  0.00  0.00    +0.000 A 
ATOM     21  C   UNL     1       4.343   6.124  16.940  0.00  0.00    +0.000 A 
ATOM     22  C   UNL     1       5.378   6.311  16.017  0.00  0.00    +0.000 A 
ATOM     23  C   UNL     1       6.544   5.569  16.146  0.00  0.00    +0.000 A 
ATOM     24  C   UNL     1       6.688   4.636  17.167  0.00  0.00    +0.000 A 
ATOM     25  C   UNL     1       5.653   4.451  18.085  0.00  0.00    +0.000 A 
BRANCH  23  26
ATOM     26  O   UNL     1       7.586   5.725  15.282  0.00  0.00    +0.000 OA
ATOM     27  H   UNL     1       7.887   4.846  14.995  0.00  0.00    +0.000 HD
ENDBRANCH  23  26
BRANCH  25  28
ATOM     28  O   UNL     1       5.802   3.503  19.063  0.00  0.00    +0.000 OA
ATOM     29  H   UNL     1       4.989   2.975  19.114  0.00  0.00    +0.000 HD
ENDBRANCH  25  28
ENDBRANCH   4  20
TORSDOF 6
ENDMDL
MODEL 9
REMARK VINA RESULT:      -7.3      2.160      2.668
REMARK  Name = 
REMARK  6 active torsions:
REMARK  status: ('A' for Active; 'I' for Inactive)
REMARK    1  A    between atoms: C_2  and  C_3
REMARK    2  A    between atoms: C_6  and  N_7
REMARK    3  A    between atoms: C_10  and  C_11
REMARK    4  A    between atoms: C_14  and  O_15
REMARK    5  A    between atoms: C_17  and  O_18
REMARK    6  A    between atoms: C_22  and  C_23
REMARK                            x       y       z     vdW  Elec       q    Type
REMARK                         _______ _______ _______ _____ _____    ______ ____
ROOT
ATOM      1  N   UNL     1       1.420   7.207  20.977  0.00  0.00    +0.000 N 
ATOM      2  C   UNL     1       2.186   6.274  20.358  0.00  0.00    +0.000 A 
ATOM      3  N   UNL     1       3.114   6.489  19.456  0.00  0.00    +0.000 NA
ATOM      4  C   UNL     1       3.595   5.299  18.937  0.00  0.00    +0.000 A 
ATOM      5  C   UNL     1       3.056   4.169  19.515  0.00  0.00    +0.000 A 
ATOM      6  S   UNL     1       1.930   4.606  20.727  0.00  0.00    +0.000 S 
ATOM      7  H   UNL     1       0.729   6.842  21.620  0.00  0.00    +0.000 HD
ENDROOT
BRANCH   1  11
ATOM      8  C   UNL     1       0.695  11.109  19.474  0.00  0.00    +0.000 A 
ATOM      9  C   UNL     1       1.296  10.116  18.686  0.00  0.00    +0.000 A 
ATOM     10  C   UNL     1       1.510   8.830  19.192  0.00  0.00    +0.000 A 
ATOM     11  C   UNL     1       1.141   8.502  20.501  0.00  0.00    +0.000 A 
ATOM     12  C   UNL     1       0.530   9.500  21.272  0.00  0.00    +0.000 A 
ATOM     13  C   UNL     1       0.304  10.806  20.785  0.00  0.00    +0.000 A 
BRANCH  13  14
ATOM     14  C   UNL     1      -0.346  11.792  21.726  0.00  0.00    +0.000 C 
ATOM     15  F   UNL     1      -0.553  11.336  22.987  0.00  0.00    +0.000 F 
ATOM     16  F   UNL     1       0.394  12.928  21.864  0.00  0.00    +0.000 F 
ATOM     17  F   UNL     1      -1.568  12.199  21.279  0.00  0.00    +0.000 F 
ENDBRANCH  13  14
BRANCH   8  19
ATOM     18  N   UNL     1       0.310  13.438  18.398  0.00  0.00    +0.000 NA
ATOM     19  C   UNL     1       0.505  12.401  18.882  0.00  0.00    +0.000 C 
ENDBRANCH   8  19
ENDBRANCH   1  11
BRANCH   4  20
ATOM     20  C   UNL     1       4.618   5.304  17.896  0.00  0.00    +0.000 A 
ATOM     21  C   UNL     1       4.447   6.167  16.797  0.00  0.00    +0.000 A 
ATOM     22  C   UNL     1       5.401   6.232  15.776  0.00  0.00    +0.000 A 
ATOM     23  C   UNL     1       6.527   5.423  15.847  0.00  0.00    +0.000 A 
ATOM     24  C   UNL     1       6.709   4.543  16.907  0.00  0.00    +0.000 A 
ATOM     25  C   UNL     1       5.755   4.480  17.924  0.00  0.00    +0.000 A 
BRANCH  23  26
ATOM     26  O   UNL     1       7.492   5.460  14.885  0.00  0.00    +0.000 OA
ATOM     27  H   UNL     1       7.558   4.580  14.476  0.00  0.00    +0.000 HD
ENDBRANCH  23  26
BRANCH  25  28
ATOM     28  O   UNL     1       5.937   3.583  18.944  0.00  0.00    +0.000 OA
ATOM     29  H   UNL     1       5.671   2.701  18.636  0.00  0.00    +0.000 HD
ENDBRANCH  25  28
ENDBRANCH   4  20
TORSDOF 6
ENDMDL
