MODEL 1
REMARK VINA RESULT:      -8.9      0.000      0.000
REMARK  Name = 
REMARK  4 active torsions:
REMARK  status: ('A' for Active; 'I' for Inactive)
REMARK    1  A    between atoms: C_2  and  C_15
REMARK    2  A    between atoms: N_3  and  C_4
REMARK    3  A    between atoms: C_4  and  C_5
REMARK    4  A    between atoms: C_17  and  N_18
REMARK                            x       y       z     vdW  Elec       q    Type
REMARK                         _______ _______ _______ _____ _____    ______ ____
ROOT
ATOM      1  O   UNL     1       2.154   9.018  17.502  0.00  0.00    +0.000 OA
ATOM      2  C   UNL     1       1.699   8.676  18.589  0.00  0.00    +0.000 C 
ATOM      3  N   UNL     1       2.127   7.563  19.273  0.00  0.00    +0.000 N 
ATOM      4  H   UNL     1       1.659   7.320  20.137  0.00  0.00    +0.000 HD
ENDROOT
BRANCH   2   5
ATOM      5  C   UNL     1       0.651   9.512  19.250  0.00  0.00    +0.000 A 
ATOM      6  C   UNL     1      -0.420   9.951  18.441  0.00  0.00    +0.000 A 
ATOM      7  C   UNL     1      -1.468  10.746  18.938  0.00  0.00    +0.000 A 
ATOM      8  C   UNL     1      -1.411  11.073  20.299  0.00  0.00    +0.000 A 
ATOM      9  C   UNL     1      -0.367  10.645  21.122  0.00  0.00    +0.000 A 
ATOM     10  C   UNL     1       0.666   9.869  20.604  0.00  0.00    +0.000 A 
ATOM     11 CL   UNL     1       1.887   9.391  21.735  0.00  0.00    +0.000 Cl
BRANCH   7  12
ATOM     12  N   UNL     1      -2.475  11.220  18.125  0.00  0.00    +0.000 N 
ATOM     13  C   UNL     1      -2.348  11.283  16.660  0.00  0.00    +0.000 C 
ATOM     14  C   UNL     1      -3.621  10.691  16.015  0.00  0.00    +0.000 C 
ATOM     15  N   UNL     1      -4.859  11.365  16.448  0.00  0.00    +0.000 NA
ATOM     16  C   UNL     1      -4.943  11.320  17.926  0.00  0.00    +0.000 C 
ATOM     17  C   UNL     1      -3.689  11.880  18.641  0.00  0.00    +0.000 C 
ATOM     18  H   UNL     1      -5.659  10.873  16.058  0.00  0.00    +0.000 HD
ENDBRANCH   7  12
ENDBRANCH   2   5
BRANCH   3  19
ATOM     19  C   UNL     1       3.065   6.595  18.740  0.00  0.00    +0.000 C 
BRANCH  19  20
ATOM     20  C   UNL     1       2.698   5.143  19.118  0.00  0.00    +0.000 C 
ATOM     21  C   UNL     1       3.961   4.283  19.389  0.00  0.00    +0.000 C 
ATOM     22  C   UNL     1       3.567   2.847  19.776  0.00  0.00    +0.000 C 
ATOM     23  C   UNL     1       2.709   2.887  21.051  0.00  0.00    +0.000 C 
ATOM     24  C   UNL     1       1.437   3.713  20.800  0.00  0.00    +0.000 C 
ATOM     25  C   UNL     1       0.635   3.074  19.656  0.00  0.00    +0.000 C 
ATOM     26  C   UNL     1       1.483   3.041  18.374  0.00  0.00    +0.000 C 
ATOM     27  C   UNL     1       2.756   2.221  18.629  0.00  0.00    +0.000 C 
ATOM     28  C   UNL     1       1.873   4.477  17.986  0.00  0.00    +0.000 C 
ATOM     29  C   UNL     1       1.831   5.147  20.406  0.00  0.00    +0.000 C 
ENDBRANCH  19  20
ENDBRANCH   3  19
TORSDOF 4
ENDMDL
MODEL 2
REMARK VINA RESULT:      -8.7      0.189      1.439
REMARK  Name = 
REMARK  4 active torsions:
REMARK  status: ('A' for Active; 'I' for Inactive)
REMARK    1  A    between atoms: C_2  and  C_15
REMARK    2  A    between atoms: N_3  and  C_4
REMARK    3  A    between atoms: C_4  and  C_5
REMARK    4  A    between atoms: C_17  and  N_18
REMARK                            x       y       z     vdW  Elec       q    Type
REMARK                         _______ _______ _______ _____ _____    ______ ____
ROOT
ATOM      1  O   UNL     1       2.513   9.320  17.942  0.00  0.00    +0.000 OA
ATOM      2  C   UNL     1       1.791   8.805  18.789  0.00  0.00    +0.000 C 
ATOM      3  N   UNL     1       1.956   7.518  19.243  0.00  0.00    +0.000 N 
ATOM      4  H   UNL     1       1.281   7.150  19.902  0.00  0.00    +0.000 HD
ENDROOT
BRANCH   2   5
ATOM      5  C   UNL     1       0.689   9.602  19.408  0.00  0.00    +0.000 A 
ATOM      6  C   UNL     1      -0.362  10.008  18.556  0.00  0.00    +0.000 A 
ATOM      7  C   UNL     1      -1.456  10.766  19.010  0.00  0.00    +0.000 A 
ATOM      8  C   UNL     1      -1.467  11.089  20.374  0.00  0.00    +0.000 A 
ATOM      9  C   UNL     1      -0.444  10.693  21.238  0.00  0.00    +0.000 A 
ATOM     10  C   UNL     1       0.635   9.954  20.763  0.00  0.00    +0.000 A 
ATOM     11 CL   UNL     1       1.823   9.512  21.942  0.00  0.00    +0.000 Cl
BRANCH   7  12
ATOM     12  N   UNL     1      -2.444  11.209  18.157  0.00  0.00    +0.000 N 
ATOM     13  C   UNL     1      -2.277  11.231  16.695  0.00  0.00    +0.000 C 
ATOM     14  C   UNL     1      -3.529  10.611  16.033  0.00  0.00    +0.000 C 
ATOM     15  N   UNL     1      -4.782  11.289  16.414  0.00  0.00    +0.000 NA
ATOM     16  C   UNL     1      -4.906  11.286  17.889  0.00  0.00    +0.000 C 
ATOM     17  C   UNL     1      -3.676  11.875  18.622  0.00  0.00    +0.000 C 
ATOM     18  H   UNL     1      -5.569  10.779  16.016  0.00  0.00    +0.000 HD
ENDBRANCH   7  12
ENDBRANCH   2   5
BRANCH   3  19
ATOM     19  C   UNL     1       2.911   6.578  18.690  0.00  0.00    +0.000 C 
BRANCH  19  20
ATOM     20  C   UNL     1       2.592   5.116  19.068  0.00  0.00    +0.000 C 
ATOM     21  C   UNL     1       1.877   4.366  17.913  0.00  0.00    +0.000 C 
ATOM     22  C   UNL     1       1.584   2.908  18.310  0.00  0.00    +0.000 C 
ATOM     23  C   UNL     1       2.910   2.196  18.620  0.00  0.00    +0.000 C 
ATOM     24  C   UNL     1       3.628   2.905  19.780  0.00  0.00    +0.000 C 
ATOM     25  C   UNL     1       2.725   2.882  21.024  0.00  0.00    +0.000 C 
ATOM     26  C   UNL     1       1.401   3.604  20.726  0.00  0.00    +0.000 C 
ATOM     27  C   UNL     1       0.690   2.898  19.562  0.00  0.00    +0.000 C 
ATOM     28  C   UNL     1       1.695   5.061  20.332  0.00  0.00    +0.000 C 
ATOM     29  C   UNL     1       3.914   4.365  19.385  0.00  0.00    +0.000 C 
ENDBRANCH  19  20
ENDBRANCH   3  19
TORSDOF 4
ENDMDL
MODEL 3
REMARK VINA RESULT:      -8.7      0.343      1.360
REMARK  Name = 
REMARK  4 active torsions:
REMARK  status: ('A' for Active; 'I' for Inactive)
REMARK    1  A    between atoms: C_2  and  C_15
REMARK    2  A    between atoms: N_3  and  C_4
REMARK    3  A    between atoms: C_4  and  C_5
REMARK    4  A    between atoms: C_17  and  N_18
REMARK                            x       y       z     vdW  Elec       q    Type
REMARK                         _______ _______ _______ _____ _____    ______ ____
ROOT
ATOM      1  O   UNL     1       2.379   9.246  17.551  0.00  0.00    +0.000 OA
ATOM      2  C   UNL     1       1.797   8.770  18.521  0.00  0.00    +0.000 C 
ATOM      3  N   UNL     1       2.124   7.557  19.079  0.00  0.00    +0.000 N 
ATOM      4  H   UNL     1       1.555   7.211  19.842  0.00  0.00    +0.000 HD
ENDROOT
BRANCH   2   5
ATOM      5  C   UNL     1       0.697   9.540  19.176  0.00  0.00    +0.000 A 
ATOM      6  C   UNL     1      -0.358   9.981  18.347  0.00  0.00    +0.000 A 
ATOM      7  C   UNL     1      -1.450  10.718  18.837  0.00  0.00    +0.000 A 
ATOM      8  C   UNL     1      -1.455  10.984  20.213  0.00  0.00    +0.000 A 
ATOM      9  C   UNL     1      -0.429  10.554  21.055  0.00  0.00    +0.000 A 
ATOM     10  C   UNL     1       0.649   9.836  20.545  0.00  0.00    +0.000 A 
ATOM     11 CL   UNL     1       1.842   9.346  21.700  0.00  0.00    +0.000 Cl
BRANCH   7  12
ATOM     12  N   UNL     1      -2.442  11.196  18.008  0.00  0.00    +0.000 N 
ATOM     13  C   UNL     1      -2.324  11.179  16.541  0.00  0.00    +0.000 C 
ATOM     14  C   UNL     1      -3.627  10.613  15.934  0.00  0.00    +0.000 C 
ATOM     15  N   UNL     1      -4.830  11.364  16.340  0.00  0.00    +0.000 NA
ATOM     16  C   UNL     1      -4.904  11.397  17.818  0.00  0.00    +0.000 C 
ATOM     17  C   UNL     1      -3.621  11.935  18.497  0.00  0.00    +0.000 C 
ATOM     18  H   UNL     1      -5.655  10.889  15.980  0.00  0.00    +0.000 HD
ENDBRANCH   7  12
ENDBRANCH   2   5
BRANCH   3  19
ATOM     19  C   UNL     1       3.097   6.642  18.518  0.00  0.00    +0.000 C 
BRANCH  19  20
ATOM     20  C   UNL     1       2.797   5.168  18.868  0.00  0.00    +0.000 C 
ATOM     21  C   UNL     1       2.256   5.019  20.315  0.00  0.00    +0.000 C 
ATOM     22  C   UNL     1       1.952   3.545  20.633  0.00  0.00    +0.000 C 
ATOM     23  C   UNL     1       0.890   3.028  19.649  0.00  0.00    +0.000 C 
ATOM     24  C   UNL     1       1.411   3.140  18.208  0.00  0.00    +0.000 C 
ATOM     25  C   UNL     1       2.696   2.308  18.067  0.00  0.00    +0.000 C 
ATOM     26  C   UNL     1       3.768   2.828  19.040  0.00  0.00    +0.000 C 
ATOM     27  C   UNL     1       3.241   2.721  20.479  0.00  0.00    +0.000 C 
ATOM     28  C   UNL     1       4.073   4.300  18.719  0.00  0.00    +0.000 C 
ATOM     29  C   UNL     1       1.723   4.614  17.893  0.00  0.00    +0.000 C 
ENDBRANCH  19  20
ENDBRANCH   3  19
TORSDOF 4
ENDMDL
MODEL 4
REMARK VINA RESULT:      -8.4      0.774      1.899
REMARK  Name = 
REMARK  4 active torsions:
REMARK  status: ('A' for Active; 'I' for Inactive)
REMARK    1  A    between atoms: C_2  and  C_15
REMARK    2  A    between atoms: N_3  and  C_4
REMARK    3  A    between atoms: C_4  and  C_5
REMARK    4  A    between atoms: C_17  and  N_18
REMARK                            x       y       z     vdW  Elec       q    Type
REMARK                         _______ _______ _______ _____ _____    ______ ____
ROOT
ATOM      1  O   UNL     1       2.525   9.146  17.477  0.00  0.00    +0.000 OA
ATOM      2  C   UNL     1       1.811   8.789  18.409  0.00  0.00    +0.000 C 
ATOM      3  N   UNL     1       2.050   7.658  19.155  0.00  0.00    +0.000 N 
ATOM      4  H   UNL     1       1.379   7.404  19.869  0.00  0.00    +0.000 HD
ENDROOT
BRANCH   2   5
ATOM      5  C   UNL     1       0.635   9.622  18.804  0.00  0.00    +0.000 A 
ATOM      6  C   UNL     1      -0.499   9.567  17.964  0.00  0.00    +0.000 A 
ATOM      7  C   UNL     1      -1.668  10.305  18.219  0.00  0.00    +0.000 A 
ATOM      8  C   UNL     1      -1.665  11.096  19.375  0.00  0.00    +0.000 A 
ATOM      9  C   UNL     1      -0.560  11.161  20.227  0.00  0.00    +0.000 A 
ATOM     10  C   UNL     1       0.591  10.431  19.947  0.00  0.00    +0.000 A 
ATOM     11 CL   UNL     1       1.879  10.587  21.092  0.00  0.00    +0.000 Cl
BRANCH   7  12
ATOM     12  N   UNL     1      -2.744  10.291  17.358  0.00  0.00    +0.000 N 
ATOM     13  C   UNL     1      -4.099  10.685  17.778  0.00  0.00    +0.000 C 
ATOM     14  C   UNL     1      -4.692  11.655  16.732  0.00  0.00    +0.000 C 
ATOM     15  N   UNL     1      -4.724  11.090  15.370  0.00  0.00    +0.000 NA
ATOM     16  C   UNL     1      -3.357  10.669  14.987  0.00  0.00    +0.000 C 
ATOM     17  C   UNL     1      -2.691   9.710  16.004  0.00  0.00    +0.000 C 
ATOM     18  H   UNL     1      -5.041  11.808  14.721  0.00  0.00    +0.000 HD
ENDBRANCH   7  12
ENDBRANCH   2   5
BRANCH   3  19
ATOM     19  C   UNL     1       3.086   6.692  18.854  0.00  0.00    +0.000 C 
BRANCH  19  20
ATOM     20  C   UNL     1       2.663   5.244  19.187  0.00  0.00    +0.000 C 
ATOM     21  C   UNL     1       1.865   4.596  18.024  0.00  0.00    +0.000 C 
ATOM     22  C   UNL     1       1.469   3.152  18.375  0.00  0.00    +0.000 C 
ATOM     23  C   UNL     1       2.743   2.328  18.625  0.00  0.00    +0.000 C 
ATOM     24  C   UNL     1       3.540   2.935  19.791  0.00  0.00    +0.000 C 
ATOM     25  C   UNL     1       2.666   2.935  21.056  0.00  0.00    +0.000 C 
ATOM     26  C   UNL     1       1.396   3.767  20.818  0.00  0.00    +0.000 C 
ATOM     27  C   UNL     1       0.605   3.163  19.648  0.00  0.00    +0.000 C 
ATOM     28  C   UNL     1       1.793   5.211  20.470  0.00  0.00    +0.000 C 
ATOM     29  C   UNL     1       3.929   4.382  19.443  0.00  0.00    +0.000 C 
ENDBRANCH  19  20
ENDBRANCH   3  19
TORSDOF 4
ENDMDL
MODEL 5
REMARK VINA RESULT:      -8.4      0.761      1.216
REMARK  Name = 
REMARK  4 active torsions:
REMARK  status: ('A' for Active; 'I' for Inactive)
REMARK    1  A    between atoms: C_2  and  C_15
REMARK    2  A    between atoms: N_3  and  C_4
REMARK    3  A    between atoms: C_4  and  C_5
REMARK    4  A    between atoms: C_17  and  N_18
REMARK                            x       y       z     vdW  Elec       q    Type
REMARK                         _______ _______ _______ _____ _____    ______ ____
ROOT
ATOM      1  O   UNL     1       2.581   9.272  17.603  0.00  0.00    +0.000 OA
ATOM      2  C   UNL     1       1.820   8.849  18.468  0.00  0.00    +0.000 C 
ATOM      3  N   UNL     1       2.019   7.666  19.138  0.00  0.00    +0.000 N 
ATOM      4  H   UNL     1       1.313   7.362  19.797  0.00  0.00    +0.000 HD
ENDROOT
BRANCH   2   5
ATOM      5  C   UNL     1       0.627   9.656  18.864  0.00  0.00    +0.000 A 
ATOM      6  C   UNL     1      -0.495   9.601  18.008  0.00  0.00    +0.000 A 
ATOM      7  C   UNL     1      -1.679  10.317  18.263  0.00  0.00    +0.000 A 
ATOM      8  C   UNL     1      -1.703  11.084  19.435  0.00  0.00    +0.000 A 
ATOM      9  C   UNL     1      -0.610  11.149  20.302  0.00  0.00    +0.000 A 
ATOM     10  C   UNL     1       0.556  10.442  20.022  0.00  0.00    +0.000 A 
ATOM     11 CL   UNL     1       1.827  10.595  21.187  0.00  0.00    +0.000 Cl
BRANCH   7  12
ATOM     12  N   UNL     1      -2.744  10.304  17.389  0.00  0.00    +0.000 N 
ATOM     13  C   UNL     1      -4.106  10.685  17.795  0.00  0.00    +0.000 C 
ATOM     14  C   UNL     1      -4.692  11.661  16.750  0.00  0.00    +0.000 C 
ATOM     15  N   UNL     1      -4.704  11.109  15.382  0.00  0.00    +0.000 NA
ATOM     16  C   UNL     1      -3.329  10.699  15.014  0.00  0.00    +0.000 C 
ATOM     17  C   UNL     1      -2.670   9.735  16.030  0.00  0.00    +0.000 C 
ATOM     18  H   UNL     1      -5.017  11.830  14.736  0.00  0.00    +0.000 HD
ENDBRANCH   7  12
ENDBRANCH   2   5
BRANCH   3  19
ATOM     19  C   UNL     1       3.069   6.719  18.818  0.00  0.00    +0.000 C 
BRANCH  19  20
ATOM     20  C   UNL     1       2.684   5.265  19.169  0.00  0.00    +0.000 C 
ATOM     21  C   UNL     1       3.935   4.391  19.454  0.00  0.00    +0.000 C 
ATOM     22  C   UNL     1       3.523   2.953  19.814  0.00  0.00    +0.000 C 
ATOM     23  C   UNL     1       2.641   2.984  21.073  0.00  0.00    +0.000 C 
ATOM     24  C   UNL     1       1.380   3.823  20.809  0.00  0.00    +0.000 C 
ATOM     25  C   UNL     1       0.595   3.205  19.641  0.00  0.00    +0.000 C 
ATOM     26  C   UNL     1       1.467   3.182  18.375  0.00  0.00    +0.000 C 
ATOM     27  C   UNL     1       2.729   2.349  18.644  0.00  0.00    +0.000 C 
ATOM     28  C   UNL     1       1.875   4.620  18.014  0.00  0.00    +0.000 C 
ATOM     29  C   UNL     1       1.793   5.259  20.441  0.00  0.00    +0.000 C 
ENDBRANCH  19  20
ENDBRANCH   3  19
TORSDOF 4
ENDMDL
MODEL 6
REMARK VINA RESULT:      -8.3      2.130      2.837
REMARK  Name = 
REMARK  4 active torsions:
REMARK  status: ('A' for Active; 'I' for Inactive)
REMARK    1  A    between atoms: C_2  and  C_15
REMARK    2  A    between atoms: N_3  and  C_4
REMARK    3  A    between atoms: C_4  and  C_5
REMARK    4  A    between atoms: C_17  and  N_18
REMARK                            x       y       z     vdW  Elec       q    Type
REMARK                         _______ _______ _______ _____ _____    ______ ____
ROOT
ATOM      1  O   UNL     1       2.023   9.361  17.370  0.00  0.00    +0.000 OA
ATOM      2  C   UNL     1       1.795   8.831  18.453  0.00  0.00    +0.000 C 
ATOM      3  N   UNL     1       2.307   7.610  18.822  0.00  0.00    +0.000 N 
ATOM      4  H   UNL     1       2.023   7.218  19.711  0.00  0.00    +0.000 HD
ENDROOT
BRANCH   2   5
ATOM      5  C   UNL     1       0.950   9.541  19.462  0.00  0.00    +0.000 A 
ATOM      6  C   UNL     1       0.432  10.801  19.089  0.00  0.00    +0.000 A 
ATOM      7  C   UNL     1      -0.371  11.573  19.945  0.00  0.00    +0.000 A 
ATOM      8  C   UNL     1      -0.657  11.019  21.200  0.00  0.00    +0.000 A 
ATOM      9  C   UNL     1      -0.164   9.772  21.590  0.00  0.00    +0.000 A 
ATOM     10  C   UNL     1       0.641   9.031  20.729  0.00  0.00    +0.000 A 
ATOM     11 CL   UNL     1       1.169   7.495  21.328  0.00  0.00    +0.000 Cl
BRANCH   7  12
ATOM     12  N   UNL     1      -0.819  12.828  19.594  0.00  0.00    +0.000 N 
ATOM     13  C   UNL     1      -1.971  13.470  20.249  0.00  0.00    +0.000 C 
ATOM     14  C   UNL     1      -1.598  14.923  20.620  0.00  0.00    +0.000 C 
ATOM     15  N   UNL     1      -1.158  15.723  19.462  0.00  0.00    +0.000 NA
ATOM     16  C   UNL     1      -0.025  15.037  18.801  0.00  0.00    +0.000 C 
ATOM     17  C   UNL     1      -0.321  13.566  18.418  0.00  0.00    +0.000 C 
ATOM     18  H   UNL     1      -0.845  16.636  19.788  0.00  0.00    +0.000 HD
ENDBRANCH   7  12
ENDBRANCH   2   5
BRANCH   3  19
ATOM     19  C   UNL     1       3.066   6.748  17.938  0.00  0.00    +0.000 C 
BRANCH  19  20
ATOM     20  C   UNL     1       2.966   5.258  18.331  0.00  0.00    +0.000 C 
ATOM     21  C   UNL     1       3.160   5.052  19.857  0.00  0.00    +0.000 C 
ATOM     22  C   UNL     1       3.042   3.563  20.224  0.00  0.00    +0.000 C 
ATOM     23  C   UNL     1       1.645   3.057  19.827  0.00  0.00    +0.000 C 
ATOM     24  C   UNL     1       1.437   3.226  18.314  0.00  0.00    +0.000 C 
ATOM     25  C   UNL     1       2.511   2.424  17.562  0.00  0.00    +0.000 C 
ATOM     26  C   UNL     1       3.911   2.933  17.944  0.00  0.00    +0.000 C 
ATOM     27  C   UNL     1       4.114   2.770  19.457  0.00  0.00    +0.000 C 
ATOM     28  C   UNL     1       4.029   4.420  17.574  0.00  0.00    +0.000 C 
ATOM     29  C   UNL     1       1.563   4.715  17.946  0.00  0.00    +0.000 C 
ENDBRANCH  19  20
ENDBRANCH   3  19
TORSDOF 4
ENDMDL
MODEL 7
REMARK VINA RESULT:      -8.3      0.775      1.888
REMARK  Name = 
REMARK  4 active torsions:
REMARK  status: ('A' for Active; 'I' for Inactive)
REMARK    1  A    between atoms: C_2  and  C_15
REMARK    2  A    between atoms: N_3  and  C_4
REMARK    3  A    between atoms: C_4  and  C_5
REMARK    4  A    between atoms: C_17  and  N_18
REMARK                            x       y       z     vdW  Elec       q    Type
REMARK                         _______ _______ _______ _____ _____    ______ ____
ROOT
ATOM      1  O   UNL     1       2.457   9.144  17.415  0.00  0.00    +0.000 OA
ATOM      2  C   UNL     1       1.786   8.813  18.388  0.00  0.00    +0.000 C 
ATOM      3  N   UNL     1       2.073   7.719  19.169  0.00  0.00    +0.000 N 
ATOM      4  H   UNL     1       1.435   7.483  19.919  0.00  0.00    +0.000 HD
ENDROOT
BRANCH   2   5
ATOM      5  C   UNL     1       0.611   9.642  18.793  0.00  0.00    +0.000 A 
ATOM      6  C   UNL     1      -0.529   9.586  17.961  0.00  0.00    +0.000 A 
ATOM      7  C   UNL     1      -1.699  10.320  18.227  0.00  0.00    +0.000 A 
ATOM      8  C   UNL     1      -1.690  11.108  19.385  0.00  0.00    +0.000 A 
ATOM      9  C   UNL     1      -0.579  11.175  20.229  0.00  0.00    +0.000 A 
ATOM     10  C   UNL     1       0.573  10.449  19.938  0.00  0.00    +0.000 A 
ATOM     11 CL   UNL     1       1.869  10.606  21.074  0.00  0.00    +0.000 Cl
BRANCH   7  12
ATOM     12  N   UNL     1      -2.781  10.305  17.374  0.00  0.00    +0.000 N 
ATOM     13  C   UNL     1      -4.129  10.717  17.799  0.00  0.00    +0.000 C 
ATOM     14  C   UNL     1      -4.721  11.679  16.744  0.00  0.00    +0.000 C 
ATOM     15  N   UNL     1      -4.769  11.097  15.390  0.00  0.00    +0.000 NA
ATOM     16  C   UNL     1      -3.409  10.658  15.003  0.00  0.00    +0.000 C 
ATOM     17  C   UNL     1      -2.744   9.706  16.028  0.00  0.00    +0.000 C 
ATOM     18  H   UNL     1      -5.083  11.808  14.734  0.00  0.00    +0.000 HD
ENDBRANCH   7  12
ENDBRANCH   2   5
BRANCH   3  19
ATOM     19  C   UNL     1       3.115   6.758  18.868  0.00  0.00    +0.000 C 
BRANCH  19  20
ATOM     20  C   UNL     1       2.702   5.309  19.205  0.00  0.00    +0.000 C 
ATOM     21  C   UNL     1       1.854   5.240  20.503  0.00  0.00    +0.000 C 
ATOM     22  C   UNL     1       1.444   3.788  20.807  0.00  0.00    +0.000 C 
ATOM     23  C   UNL     1       0.609   3.246  19.636  0.00  0.00    +0.000 C 
ATOM     24  C   UNL     1       1.437   3.279  18.342  0.00  0.00    +0.000 C 
ATOM     25  C   UNL     1       2.696   2.417  18.523  0.00  0.00    +0.000 C 
ATOM     26  C   UNL     1       3.543   2.961  19.685  0.00  0.00    +0.000 C 
ATOM     27  C   UNL     1       2.711   2.933  20.976  0.00  0.00    +0.000 C 
ATOM     28  C   UNL     1       3.954   4.410  19.378  0.00  0.00    +0.000 C 
ATOM     29  C   UNL     1       1.853   4.730  18.042  0.00  0.00    +0.000 C 
ENDBRANCH  19  20
ENDBRANCH   3  19
TORSDOF 4
ENDMDL
MODEL 8
REMARK VINA RESULT:      -8.3      2.495      3.411
REMARK  Name = 
REMARK  4 active torsions:
REMARK  status: ('A' for Active; 'I' for Inactive)
REMARK    1  A    between atoms: C_2  and  C_15
REMARK    2  A    between atoms: N_3  and  C_4
REMARK    3  A    between atoms: C_4  and  C_5
REMARK    4  A    between atoms: C_17  and  N_18
REMARK                            x       y       z     vdW  Elec       q    Type
REMARK                         _______ _______ _______ _____ _____    ______ ____
ROOT
ATOM      1  O   UNL     1       2.233   8.627  17.165  0.00  0.00    +0.000 OA
ATOM      2  C   UNL     1       2.133   8.482  18.379  0.00  0.00    +0.000 C 
ATOM      3  N   UNL     1       2.659   7.409  19.059  0.00  0.00    +0.000 N 
ATOM      4  H   UNL     1       2.482   7.336  20.053  0.00  0.00    +0.000 HD
ENDROOT
BRANCH   2   5
ATOM      5  C   UNL     1       1.442   9.525  19.196  0.00  0.00    +0.000 A 
ATOM      6  C   UNL     1       1.437  10.840  18.682  0.00  0.00    +0.000 A 
ATOM      7  C   UNL     1       0.826  11.914  19.353  0.00  0.00    +0.000 A 
ATOM      8  C   UNL     1       0.195  11.612  20.567  0.00  0.00    +0.000 A 
ATOM      9  C   UNL     1       0.180  10.319  21.094  0.00  0.00    +0.000 A 
ATOM     10  C   UNL     1       0.802   9.274  20.417  0.00  0.00    +0.000 A 
ATOM     11 CL   UNL     1       0.692   7.719  21.170  0.00  0.00    +0.000 Cl
BRANCH   7  12
ATOM     12  N   UNL     1       0.881  13.204  18.871  0.00  0.00    +0.000 N 
ATOM     13  C   UNL     1      -0.327  13.994  18.584  0.00  0.00    +0.000 C 
ATOM     14  C   UNL     1      -0.171  15.402  19.203  0.00  0.00    +0.000 C 
ATOM     15  N   UNL     1       1.030  16.115  18.728  0.00  0.00    +0.000 NA
ATOM     16  C   UNL     1       2.225  15.282  18.995  0.00  0.00    +0.000 C 
ATOM     17  C   UNL     1       2.129  13.848  18.420  0.00  0.00    +0.000 C 
ATOM     18  H   UNL     1       1.119  16.991  19.238  0.00  0.00    +0.000 HD
ENDBRANCH   7  12
ENDBRANCH   2   5
BRANCH   3  19
ATOM     19  C   UNL     1       3.277   6.266  18.418  0.00  0.00    +0.000 C 
BRANCH  19  20
ATOM     20  C   UNL     1       2.786   4.922  18.999  0.00  0.00    +0.000 C 
ATOM     21  C   UNL     1       2.217   5.089  20.433  0.00  0.00    +0.000 C 
ATOM     22  C   UNL     1       1.723   3.739  20.982  0.00  0.00    +0.000 C 
ATOM     23  C   UNL     1       0.612   3.200  20.065  0.00  0.00    +0.000 C 
ATOM     24  C   UNL     1       1.158   3.001  18.642  0.00  0.00    +0.000 C 
ATOM     25  C   UNL     1       2.326   2.003  18.682  0.00  0.00    +0.000 C 
ATOM     26  C   UNL     1       3.447   2.541  19.588  0.00  0.00    +0.000 C 
ATOM     27  C   UNL     1       2.897   2.746  21.007  0.00  0.00    +0.000 C 
ATOM     28  C   UNL     1       3.942   3.888  19.036  0.00  0.00    +0.000 C 
ATOM     29  C   UNL     1       1.660   4.350  18.096  0.00  0.00    +0.000 C 
ENDBRANCH  19  20
ENDBRANCH   3  19
TORSDOF 4
ENDMDL
MODEL 9
REMARK VINA RESULT:      -8.3      2.492      3.490
REMARK  Name = 
REMARK  4 active torsions:
REMARK  status: ('A' for Active; 'I' for Inactive)
REMARK    1  A    between atoms: C_2  and  C_15
REMARK    2  A    between atoms: N_3  and  C_4
REMARK    3  A    between atoms: C_4  and  C_5
REMARK    4  A    between atoms: C_17  and  N_18
REMARK                            x       y       z     vdW  Elec       q    Type
REMARK                         _______ _______ _______ _____ _____    ______ ____
ROOT
ATOM      1  O   UNL     1       2.168   8.559  17.158  0.00  0.00    +0.000 OA
ATOM      2  C   UNL     1       2.134   8.455  18.380  0.00  0.00    +0.000 C 
ATOM      3  N   UNL     1       2.732   7.426  19.068  0.00  0.00    +0.000 N 
ATOM      4  H   UNL     1       2.608   7.384  20.073  0.00  0.00    +0.000 HD
ENDROOT
BRANCH   2   5
ATOM      5  C   UNL     1       1.448   9.503  19.195  0.00  0.00    +0.000 A 
ATOM      6  C   UNL     1       1.433  10.814  18.668  0.00  0.00    +0.000 A 
ATOM      7  C   UNL     1       0.827  11.892  19.336  0.00  0.00    +0.000 A 
ATOM      8  C   UNL     1       0.209  11.599  20.559  0.00  0.00    +0.000 A 
ATOM      9  C   UNL     1       0.203  10.310  21.098  0.00  0.00    +0.000 A 
ATOM     10  C   UNL     1       0.821   9.261  20.424  0.00  0.00    +0.000 A 
ATOM     11 CL   UNL     1       0.724   7.712  21.191  0.00  0.00    +0.000 Cl
BRANCH   7  12
ATOM     12  N   UNL     1       0.873  13.178  18.843  0.00  0.00    +0.000 N 
ATOM     13  C   UNL     1      -0.339  13.976  18.600  0.00  0.00    +0.000 C 
ATOM     14  C   UNL     1      -0.146  15.387  19.201  0.00  0.00    +0.000 C 
ATOM     15  N   UNL     1       1.040  16.086  18.672  0.00  0.00    +0.000 NA
ATOM     16  C   UNL     1       2.238  15.245  18.896  0.00  0.00    +0.000 C 
ATOM     17  C   UNL     1       2.107  13.807  18.336  0.00  0.00    +0.000 C 
ATOM     18  H   UNL     1       1.158  16.965  19.171  0.00  0.00    +0.000 HD
ENDBRANCH   7  12
ENDBRANCH   2   5
BRANCH   3  19
ATOM     19  C   UNL     1       3.357   6.282  18.436  0.00  0.00    +0.000 C 
BRANCH  19  20
ATOM     20  C   UNL     1       2.819   4.938  18.974  0.00  0.00    +0.000 C 
ATOM     21  C   UNL     1       1.644   4.404  18.112  0.00  0.00    +0.000 C 
ATOM     22  C   UNL     1       1.136   3.059  18.660  0.00  0.00    +0.000 C 
ATOM     23  C   UNL     1       2.283   2.037  18.626  0.00  0.00    +0.000 C 
ATOM     24  C   UNL     1       3.452   2.531  19.494  0.00  0.00    +0.000 C 
ATOM     25  C   UNL     1       2.965   2.716  20.941  0.00  0.00    +0.000 C 
ATOM     26  C   UNL     1       1.825   3.746  20.984  0.00  0.00    +0.000 C 
ATOM     27  C   UNL     1       0.662   3.254  20.110  0.00  0.00    +0.000 C 
ATOM     28  C   UNL     1       2.335   5.091  20.440  0.00  0.00    +0.000 C 
ATOM     29  C   UNL     1       3.954   3.880  18.950  0.00  0.00    +0.000 C 
ENDBRANCH  19  20
ENDBRANCH   3  19
TORSDOF 4
ENDMDL
