MODEL 1
REMARK VINA RESULT:      -7.5      0.000      0.000
REMARK  Name = 
REMARK  5 active torsions:
REMARK  status: ('A' for Active; 'I' for Inactive)
REMARK    1  A    between atoms: O_1  and  N_2
REMARK    2  A    between atoms: C_3  and  C_4
REMARK    3  A    between atoms: C_5  and  C_6
REMARK    4  A    between atoms: C_7  and  C_8
REMARK    5  A    between atoms: C_8  and  C_9
REMARK                            x       y       z     vdW  Elec       q    Type
REMARK                         _______ _______ _______ _____ _____    ______ ____
ROOT
ATOM      1  C   UNL     1       6.479   5.011  17.046  0.00  0.00    +0.000 C 
ATOM      2  C   UNL     1       5.252   4.744  16.585  0.00  0.00    +0.000 C 
ATOM      3  C   UNL     1       5.294   4.302  15.154  0.00  0.00    +0.000 C 
ATOM      4  C   UNL     1       6.734   4.608  14.729  0.00  0.00    +0.000 C 
ATOM      5  C   UNL     1       7.536   4.833  16.010  0.00  0.00    +0.000 C 
ENDROOT
BRANCH   1   7
ATOM      6  N   UNL     1       7.827   4.904  19.062  0.00  0.00    +0.000 NA
ATOM      7  C   UNL     1       6.818   5.407  18.425  0.00  0.00    +0.000 C 
BRANCH   6   8
ATOM      8  O   UNL     1       7.878   5.455  20.347  0.00  0.00    +0.000 OA
ATOM      9  H   UNL     1       7.662   6.391  20.180  0.00  0.00    +0.000 HD
ENDBRANCH   6   8
ENDBRANCH   1   7
BRANCH   2  10
ATOM     10  C   UNL     1       4.015   4.882  17.305  0.00  0.00    +0.000 C 
ATOM     11  C   UNL     1       3.516   6.042  17.761  0.00  0.00    +0.000 C 
BRANCH  11  12
ATOM     12  C   UNL     1       2.208   6.123  18.497  0.00  0.00    +0.000 C 
BRANCH  12  13
ATOM     13  C   UNL     1       1.947   4.916  19.367  0.00  0.00    +0.000 A 
ATOM     14  C   UNL     1       1.227   3.822  18.862  0.00  0.00    +0.000 A 
ATOM     15  C   UNL     1       0.969   2.709  19.663  0.00  0.00    +0.000 A 
ATOM     16  C   UNL     1       1.427   2.678  20.978  0.00  0.00    +0.000 A 
ATOM     17  C   UNL     1       2.139   3.760  21.493  0.00  0.00    +0.000 A 
ATOM     18  C   UNL     1       2.394   4.876  20.694  0.00  0.00    +0.000 A 
ENDBRANCH  12  13
ENDBRANCH  11  12
ENDBRANCH   2  10
TORSDOF 5
ENDMDL
MODEL 2
REMARK VINA RESULT:      -7.4      0.350      1.215
REMARK  Name = 
REMARK  5 active torsions:
REMARK  status: ('A' for Active; 'I' for Inactive)
REMARK    1  A    between atoms: O_1  and  N_2
REMARK    2  A    between atoms: C_3  and  C_4
REMARK    3  A    between atoms: C_5  and  C_6
REMARK    4  A    between atoms: C_7  and  C_8
REMARK    5  A    between atoms: C_8  and  C_9
REMARK                            x       y       z     vdW  Elec       q    Type
REMARK                         _______ _______ _______ _____ _____    ______ ____
ROOT
ATOM      1  C   UNL     1       6.577   5.074  16.909  0.00  0.00    +0.000 C 
ATOM      2  C   UNL     1       5.277   4.794  16.766  0.00  0.00    +0.000 C 
ATOM      3  C   UNL     1       4.990   4.231  15.408  0.00  0.00    +0.000 C 
ATOM      4  C   UNL     1       6.293   4.469  14.639  0.00  0.00    +0.000 C 
ATOM      5  C   UNL     1       7.369   4.786  15.678  0.00  0.00    +0.000 C 
ENDROOT
BRANCH   1   7
ATOM      6  N   UNL     1       7.910   4.813  18.920  0.00  0.00    +0.000 NA
ATOM      7  C   UNL     1       7.224   5.579  18.134  0.00  0.00    +0.000 C 
BRANCH   6   8
ATOM      8  O   UNL     1       8.378   5.570  20.001  0.00  0.00    +0.000 OA
ATOM      9  H   UNL     1       9.344   5.451  19.935  0.00  0.00    +0.000 HD
ENDBRANCH   6   8
ENDBRANCH   1   7
BRANCH   2  10
ATOM     10  C   UNL     1       4.239   5.019  17.734  0.00  0.00    +0.000 C 
ATOM     11  C   UNL     1       3.518   6.147  17.841  0.00  0.00    +0.000 C 
BRANCH  11  12
ATOM     12  C   UNL     1       2.434   6.317  18.868  0.00  0.00    +0.000 C 
BRANCH  12  13
ATOM     13  C   UNL     1       2.049   5.019  19.538  0.00  0.00    +0.000 A 
ATOM     14  C   UNL     1       2.394   4.784  20.878  0.00  0.00    +0.000 A 
ATOM     15  C   UNL     1       2.054   3.582  21.500  0.00  0.00    +0.000 A 
ATOM     16  C   UNL     1       1.368   2.601  20.789  0.00  0.00    +0.000 A 
ATOM     17  C   UNL     1       1.024   2.819  19.456  0.00  0.00    +0.000 A 
ATOM     18  C   UNL     1       1.366   4.021  18.831  0.00  0.00    +0.000 A 
ENDBRANCH  12  13
ENDBRANCH  11  12
ENDBRANCH   2  10
TORSDOF 5
ENDMDL
MODEL 3
REMARK VINA RESULT:      -7.4      1.419      1.833
REMARK  Name = 
REMARK  5 active torsions:
REMARK  status: ('A' for Active; 'I' for Inactive)
REMARK    1  A    between atoms: O_1  and  N_2
REMARK    2  A    between atoms: C_3  and  C_4
REMARK    3  A    between atoms: C_5  and  C_6
REMARK    4  A    between atoms: C_7  and  C_8
REMARK    5  A    between atoms: C_8  and  C_9
REMARK                            x       y       z     vdW  Elec       q    Type
REMARK                         _______ _______ _______ _____ _____    ______ ____
ROOT
ATOM      1  C   UNL     1       6.646   5.527  16.427  0.00  0.00    +0.000 C 
ATOM      2  C   UNL     1       5.466   4.957  16.699  0.00  0.00    +0.000 C 
ATOM      3  C   UNL     1       5.095   3.952  15.652  0.00  0.00    +0.000 C 
ATOM      4  C   UNL     1       6.120   4.199  14.540  0.00  0.00    +0.000 C 
ATOM      5  C   UNL     1       7.243   5.036  15.151  0.00  0.00    +0.000 C 
ENDROOT
BRANCH   1   7
ATOM      6  N   UNL     1       7.287   7.783  17.050  0.00  0.00    +0.000 NA
ATOM      7  C   UNL     1       7.348   6.509  17.272  0.00  0.00    +0.000 C 
BRANCH   6   8
ATOM      8  O   UNL     1       8.068   8.452  18.000  0.00  0.00    +0.000 OA
ATOM      9  H   UNL     1       7.412   9.017  18.447  0.00  0.00    +0.000 HD
ENDBRANCH   6   8
ENDBRANCH   1   7
BRANCH   2  10
ATOM     10  C   UNL     1       4.605   5.257  17.809  0.00  0.00    +0.000 C 
ATOM     11  C   UNL     1       3.500   6.017  17.742  0.00  0.00    +0.000 C 
BRANCH  11  12
ATOM     12  C   UNL     1       2.630   6.283  18.939  0.00  0.00    +0.000 C 
BRANCH  12  13
ATOM     13  C   UNL     1       2.135   5.018  19.600  0.00  0.00    +0.000 A 
ATOM     14  C   UNL     1       2.415   4.768  20.952  0.00  0.00    +0.000 A 
ATOM     15  C   UNL     1       1.974   3.596  21.566  0.00  0.00    +0.000 A 
ATOM     16  C   UNL     1       1.249   2.659  20.835  0.00  0.00    +0.000 A 
ATOM     17  C   UNL     1       0.967   2.892  19.490  0.00  0.00    +0.000 A 
ATOM     18  C   UNL     1       1.411   4.063  18.873  0.00  0.00    +0.000 A 
ENDBRANCH  12  13
ENDBRANCH  11  12
ENDBRANCH   2  10
TORSDOF 5
ENDMDL
MODEL 4
REMARK VINA RESULT:      -7.3      0.737      1.120
REMARK  Name = 
REMARK  5 active torsions:
REMARK  status: ('A' for Active; 'I' for Inactive)
REMARK    1  A    between atoms: O_1  and  N_2
REMARK    2  A    between atoms: C_3  and  C_4
REMARK    3  A    between atoms: C_5  and  C_6
REMARK    4  A    between atoms: C_7  and  C_8
REMARK    5  A    between atoms: C_8  and  C_9
REMARK                            x       y       z     vdW  Elec       q    Type
REMARK                         _______ _______ _______ _____ _____    ______ ____
ROOT
ATOM      1  C   UNL     1       6.394   4.855  17.109  0.00  0.00    +0.000 C 
ATOM      2  C   UNL     1       5.198   4.552  16.593  0.00  0.00    +0.000 C 
ATOM      3  C   UNL     1       5.308   4.195  15.142  0.00  0.00    +0.000 C 
ATOM      4  C   UNL     1       6.742   4.598  14.783  0.00  0.00    +0.000 C 
ATOM      5  C   UNL     1       7.492   4.791  16.102  0.00  0.00    +0.000 C 
ENDROOT
BRANCH   1   7
ATOM      6  N   UNL     1       7.856   5.109  19.030  0.00  0.00    +0.000 NA
ATOM      7  C   UNL     1       6.669   5.188  18.519  0.00  0.00    +0.000 C 
BRANCH   6   8
ATOM      8  O   UNL     1       7.796   5.465  20.383  0.00  0.00    +0.000 OA
ATOM      9  H   UNL     1       8.387   4.810  20.797  0.00  0.00    +0.000 HD
ENDBRANCH   6   8
ENDBRANCH   1   7
BRANCH   2  10
ATOM     10  C   UNL     1       3.934   4.585  17.276  0.00  0.00    +0.000 C 
ATOM     11  C   UNL     1       2.820   3.959  16.866  0.00  0.00    +0.000 C 
BRANCH  11  12
ATOM     12  C   UNL     1       1.529   4.021  17.633  0.00  0.00    +0.000 C 
BRANCH  12  13
ATOM     13  C   UNL     1       1.714   3.786  19.114  0.00  0.00    +0.000 A 
ATOM     14  C   UNL     1       1.652   2.485  19.638  0.00  0.00    +0.000 A 
ATOM     15  C   UNL     1       1.808   2.260  21.006  0.00  0.00    +0.000 A 
ATOM     16  C   UNL     1       2.026   3.333  21.866  0.00  0.00    +0.000 A 
ATOM     17  C   UNL     1       2.085   4.631  21.360  0.00  0.00    +0.000 A 
ATOM     18  C   UNL     1       1.926   4.857  19.991  0.00  0.00    +0.000 A 
ENDBRANCH  12  13
ENDBRANCH  11  12
ENDBRANCH   2  10
TORSDOF 5
ENDMDL
MODEL 5
REMARK VINA RESULT:      -7.1      2.531      5.898
REMARK  Name = 
REMARK  5 active torsions:
REMARK  status: ('A' for Active; 'I' for Inactive)
REMARK    1  A    between atoms: O_1  and  N_2
REMARK    2  A    between atoms: C_3  and  C_4
REMARK    3  A    between atoms: C_5  and  C_6
REMARK    4  A    between atoms: C_7  and  C_8
REMARK    5  A    between atoms: C_8  and  C_9
REMARK                            x       y       z     vdW  Elec       q    Type
REMARK                         _______ _______ _______ _____ _____    ______ ____
ROOT
ATOM      1  C   UNL     1       1.996   4.420  19.144  0.00  0.00    +0.000 C 
ATOM      2  C   UNL     1       2.718   3.833  18.183  0.00  0.00    +0.000 C 
ATOM      3  C   UNL     1       2.210   2.455  17.887  0.00  0.00    +0.000 C 
ATOM      4  C   UNL     1       1.219   2.188  19.024  0.00  0.00    +0.000 C 
ATOM      5  C   UNL     1       0.917   3.537  19.676  0.00  0.00    +0.000 C 
ENDROOT
BRANCH   1   7
ATOM      6  N   UNL     1       1.691   6.189  20.778  0.00  0.00    +0.000 NA
ATOM      7  C   UNL     1       2.172   5.796  19.642  0.00  0.00    +0.000 C 
BRANCH   6   8
ATOM      8  O   UNL     1       2.001   7.541  20.963  0.00  0.00    +0.000 OA
ATOM      9  H   UNL     1       1.545   7.746  21.800  0.00  0.00    +0.000 HD
ENDBRANCH   6   8
ENDBRANCH   1   7
BRANCH   2  10
ATOM     10  C   UNL     1       3.866   4.383  17.515  0.00  0.00    +0.000 C 
ATOM     11  C   UNL     1       4.752   3.674  16.798  0.00  0.00    +0.000 C 
BRANCH  11  12
ATOM     12  C   UNL     1       5.927   4.311  16.111  0.00  0.00    +0.000 C 
BRANCH  12  13
ATOM     13  C   UNL     1       6.686   5.264  17.004  0.00  0.00    +0.000 A 
ATOM     14  C   UNL     1       6.789   6.622  16.667  0.00  0.00    +0.000 A 
ATOM     15  C   UNL     1       7.499   7.506  17.479  0.00  0.00    +0.000 A 
ATOM     16  C   UNL     1       8.116   7.042  18.638  0.00  0.00    +0.000 A 
ATOM     17  C   UNL     1       8.026   5.694  18.983  0.00  0.00    +0.000 A 
ATOM     18  C   UNL     1       7.318   4.808  18.169  0.00  0.00    +0.000 A 
ENDBRANCH  12  13
ENDBRANCH  11  12
ENDBRANCH   2  10
TORSDOF 5
ENDMDL
MODEL 6
REMARK VINA RESULT:      -7.1      1.046      1.623
REMARK  Name = 
REMARK  5 active torsions:
REMARK  status: ('A' for Active; 'I' for Inactive)
REMARK    1  A    between atoms: O_1  and  N_2
REMARK    2  A    between atoms: C_3  and  C_4
REMARK    3  A    between atoms: C_5  and  C_6
REMARK    4  A    between atoms: C_7  and  C_8
REMARK    5  A    between atoms: C_8  and  C_9
REMARK                            x       y       z     vdW  Elec       q    Type
REMARK                         _______ _______ _______ _____ _____    ______ ____
ROOT
ATOM      1  C   UNL     1       6.523   4.866  16.923  0.00  0.00    +0.000 C 
ATOM      2  C   UNL     1       5.551   4.084  16.438  0.00  0.00    +0.000 C 
ATOM      3  C   UNL     1       5.707   3.875  14.963  0.00  0.00    +0.000 C 
ATOM      4  C   UNL     1       6.787   4.888  14.571  0.00  0.00    +0.000 C 
ATOM      5  C   UNL     1       7.463   5.338  15.866  0.00  0.00    +0.000 C 
ENDROOT
BRANCH   1   7
ATOM      6  N   UNL     1       7.841   5.032  18.954  0.00  0.00    +0.000 NA
ATOM      7  C   UNL     1       6.719   5.227  18.338  0.00  0.00    +0.000 C 
BRANCH   6   8
ATOM      8  O   UNL     1       7.713   5.453  20.283  0.00  0.00    +0.000 OA
ATOM      9  H   UNL     1       7.620   4.608  20.760  0.00  0.00    +0.000 HD
ENDBRANCH   6   8
ENDBRANCH   1   7
BRANCH   2  10
ATOM     10  C   UNL     1       4.453   3.523  17.177  0.00  0.00    +0.000 C 
ATOM     11  C   UNL     1       3.170   3.539  16.779  0.00  0.00    +0.000 C 
BRANCH  11  12
ATOM     12  C   UNL     1       2.066   2.923  17.591  0.00  0.00    +0.000 C 
BRANCH  12  13
ATOM     13  C   UNL     1       2.114   3.321  19.048  0.00  0.00    +0.000 A 
ATOM     14  C   UNL     1       1.917   4.659  19.423  0.00  0.00    +0.000 A 
ATOM     15  C   UNL     1       1.974   5.038  20.764  0.00  0.00    +0.000 A 
ATOM     16  C   UNL     1       2.230   4.085  21.746  0.00  0.00    +0.000 A 
ATOM     17  C   UNL     1       2.432   2.753  21.387  0.00  0.00    +0.000 A 
ATOM     18  C   UNL     1       2.379   2.373  20.044  0.00  0.00    +0.000 A 
ENDBRANCH  12  13
ENDBRANCH  11  12
ENDBRANCH   2  10
TORSDOF 5
ENDMDL
MODEL 7
REMARK VINA RESULT:      -7.1      1.692      2.037
REMARK  Name = 
REMARK  5 active torsions:
REMARK  status: ('A' for Active; 'I' for Inactive)
REMARK    1  A    between atoms: O_1  and  N_2
REMARK    2  A    between atoms: C_3  and  C_4
REMARK    3  A    between atoms: C_5  and  C_6
REMARK    4  A    between atoms: C_7  and  C_8
REMARK    5  A    between atoms: C_8  and  C_9
REMARK                            x       y       z     vdW  Elec       q    Type
REMARK                         _______ _______ _______ _____ _____    ______ ____
ROOT
ATOM      1  C   UNL     1       6.389   5.839  18.065  0.00  0.00    +0.000 C 
ATOM      2  C   UNL     1       5.479   5.084  17.440  0.00  0.00    +0.000 C 
ATOM      3  C   UNL     1       5.241   5.567  16.042  0.00  0.00    +0.000 C 
ATOM      4  C   UNL     1       5.959   6.919  16.004  0.00  0.00    +0.000 C 
ATOM      5  C   UNL     1       6.884   6.964  17.220  0.00  0.00    +0.000 C 
ENDROOT
BRANCH   1   7
ATOM      6  N   UNL     1       8.146   5.289  19.646  0.00  0.00    +0.000 NA
ATOM      7  C   UNL     1       6.913   5.616  19.425  0.00  0.00    +0.000 C 
BRANCH   6   8
ATOM      8  O   UNL     1       8.336   5.127  21.024  0.00  0.00    +0.000 OA
ATOM      9  H   UNL     1       8.259   6.041  21.353  0.00  0.00    +0.000 HD
ENDBRANCH   6   8
ENDBRANCH   1   7
BRANCH   2  10
ATOM     10  C   UNL     1       4.761   3.970  17.996  0.00  0.00    +0.000 C 
ATOM     11  C   UNL     1       4.035   3.091  17.286  0.00  0.00    +0.000 C 
BRANCH  11  12
ATOM     12  C   UNL     1       3.316   1.936  17.924  0.00  0.00    +0.000 C 
BRANCH  12  13
ATOM     13  C   UNL     1       2.602   2.320  19.199  0.00  0.00    +0.000 A 
ATOM     14  C   UNL     1       1.281   2.792  19.158  0.00  0.00    +0.000 A 
ATOM     15  C   UNL     1       0.620   3.163  20.329  0.00  0.00    +0.000 A 
ATOM     16  C   UNL     1       1.272   3.066  21.556  0.00  0.00    +0.000 A 
ATOM     17  C   UNL     1       2.586   2.604  21.611  0.00  0.00    +0.000 A 
ATOM     18  C   UNL     1       3.251   2.236  20.439  0.00  0.00    +0.000 A 
ENDBRANCH  12  13
ENDBRANCH  11  12
ENDBRANCH   2  10
TORSDOF 5
ENDMDL
MODEL 8
REMARK VINA RESULT:      -7.0      2.121      5.692
REMARK  Name = 
REMARK  5 active torsions:
REMARK  status: ('A' for Active; 'I' for Inactive)
REMARK    1  A    between atoms: O_1  and  N_2
REMARK    2  A    between atoms: C_3  and  C_4
REMARK    3  A    between atoms: C_5  and  C_6
REMARK    4  A    between atoms: C_7  and  C_8
REMARK    5  A    between atoms: C_8  and  C_9
REMARK                            x       y       z     vdW  Elec       q    Type
REMARK                         _______ _______ _______ _____ _____    ______ ____
ROOT
ATOM      1  C   UNL     1       2.819   3.059  19.573  0.00  0.00    +0.000 C 
ATOM      2  C   UNL     1       2.931   3.773  18.446  0.00  0.00    +0.000 C 
ATOM      3  C   UNL     1       1.588   4.054  17.847  0.00  0.00    +0.000 C 
ATOM      4  C   UNL     1       0.642   3.156  18.651  0.00  0.00    +0.000 C 
ATOM      5  C   UNL     1       1.406   2.714  19.899  0.00  0.00    +0.000 C 
ENDROOT
BRANCH   1   7
ATOM      6  N   UNL     1       4.641   1.600  20.239  0.00  0.00    +0.000 NA
ATOM      7  C   UNL     1       3.928   2.659  20.458  0.00  0.00    +0.000 C 
BRANCH   6   8
ATOM      8  O   UNL     1       5.596   1.474  21.255  0.00  0.00    +0.000 OA
ATOM      9  H   UNL     1       6.427   1.406  20.751  0.00  0.00    +0.000 HD
ENDBRANCH   6   8
ENDBRANCH   1   7
BRANCH   2  10
ATOM     10  C   UNL     1       4.152   4.205  17.822  0.00  0.00    +0.000 C 
ATOM     11  C   UNL     1       4.722   3.617  16.758  0.00  0.00    +0.000 C 
BRANCH  11  12
ATOM     12  C   UNL     1       5.995   4.125  16.141  0.00  0.00    +0.000 C 
BRANCH  12  13
ATOM     13  C   UNL     1       6.712   5.128  17.014  0.00  0.00    +0.000 A 
ATOM     14  C   UNL     1       7.373   4.708  18.179  0.00  0.00    +0.000 A 
ATOM     15  C   UNL     1       8.026   5.629  18.998  0.00  0.00    +0.000 A 
ATOM     16  C   UNL     1       8.025   6.981  18.663  0.00  0.00    +0.000 A 
ATOM     17  C   UNL     1       7.368   7.413  17.512  0.00  0.00    +0.000 A 
ATOM     18  C   UNL     1       6.711   6.492  16.693  0.00  0.00    +0.000 A 
ENDBRANCH  12  13
ENDBRANCH  11  12
ENDBRANCH   2  10
TORSDOF 5
ENDMDL
MODEL 9
REMARK VINA RESULT:      -6.9      2.225      5.784
REMARK  Name = 
REMARK  5 active torsions:
REMARK  status: ('A' for Active; 'I' for Inactive)
REMARK    1  A    between atoms: O_1  and  N_2
REMARK    2  A    between atoms: C_3  and  C_4
REMARK    3  A    between atoms: C_5  and  C_6
REMARK    4  A    between atoms: C_7  and  C_8
REMARK    5  A    between atoms: C_8  and  C_9
REMARK                            x       y       z     vdW  Elec       q    Type
REMARK                         _______ _______ _______ _____ _____    ______ ____
ROOT
ATOM      1  C   UNL     1       2.999   2.839  20.061  0.00  0.00    +0.000 C 
ATOM      2  C   UNL     1       2.836   3.827  19.174  0.00  0.00    +0.000 C 
ATOM      3  C   UNL     1       1.414   4.297  19.140  0.00  0.00    +0.000 C 
ATOM      4  C   UNL     1       0.669   3.240  19.962  0.00  0.00    +0.000 C 
ATOM      5  C   UNL     1       1.727   2.457  20.739  0.00  0.00    +0.000 C 
ENDROOT
BRANCH   1   7
ATOM      6  N   UNL     1       4.502   1.681  21.574  0.00  0.00    +0.000 NA
ATOM      7  C   UNL     1       4.275   2.185  20.404  0.00  0.00    +0.000 C 
BRANCH   6   8
ATOM      8  O   UNL     1       5.799   1.153  21.601  0.00  0.00    +0.000 OA
ATOM      9  H   UNL     1       6.346   1.939  21.419  0.00  0.00    +0.000 HD
ENDBRANCH   6   8
ENDBRANCH   1   7
BRANCH   2  10
ATOM     10  C   UNL     1       3.843   4.380  18.310  0.00  0.00    +0.000 C 
ATOM     11  C   UNL     1       4.288   3.805  17.181  0.00  0.00    +0.000 C 
BRANCH  11  12
ATOM     12  C   UNL     1       5.336   4.440  16.310  0.00  0.00    +0.000 C 
BRANCH  12  13
ATOM     13  C   UNL     1       6.283   5.328  17.083  0.00  0.00    +0.000 A 
ATOM     14  C   UNL     1       6.367   6.698  16.791  0.00  0.00    +0.000 A 
ATOM     15  C   UNL     1       7.249   7.522  17.491  0.00  0.00    +0.000 A 
ATOM     16  C   UNL     1       8.057   6.986  18.490  0.00  0.00    +0.000 A 
ATOM     17  C   UNL     1       7.987   5.626  18.787  0.00  0.00    +0.000 A 
ATOM     18  C   UNL     1       7.107   4.799  18.085  0.00  0.00    +0.000 A 
ENDBRANCH  12  13
ENDBRANCH  11  12
ENDBRANCH   2  10
TORSDOF 5
ENDMDL
