MODEL 1
REMARK VINA RESULT:      -7.2      0.000      0.000
REMARK  Name = 
REMARK  4 active torsions:
REMARK  status: ('A' for Active; 'I' for Inactive)
REMARK    1  A    between atoms: O_1  and  C_2
REMARK    2  A    between atoms: C_7  and  C_8
REMARK    3  A    between atoms: C_8  and  N_9
REMARK    4  A    between atoms: N_9  and  C_10
REMARK                            x       y       z     vdW  Elec       q    Type
REMARK                         _______ _______ _______ _____ _____    ______ ____
ROOT
ATOM      1  C   UNL     1       3.798   2.856  18.201  0.00  0.00    +0.000 A 
ATOM      2  C   UNL     1       2.945   2.889  19.313  0.00  0.00    +0.000 A 
ATOM      3  C   UNL     1       2.442   4.114  19.710  0.00  0.00    +0.000 A 
ATOM      4  C   UNL     1       2.800   5.276  19.050  0.00  0.00    +0.000 A 
ATOM      5  C   UNL     1       3.658   5.265  17.969  0.00  0.00    +0.000 A 
ATOM      6  C   UNL     1       4.145   4.030  17.506  0.00  0.00    +0.000 A 
ATOM      7  O   UNL     1       2.172   6.400  19.516  0.00  0.00    +0.000 OA
ATOM      8  C   UNL     1       1.500   5.958  20.716  0.00  0.00    +0.000 C 
ATOM      9  C   UNL     1       1.433   4.429  20.743  0.00  0.00    +0.000 C 
ENDROOT
BRANCH   1  10
ATOM     10  O   UNL     1       4.271   1.657  17.741  0.00  0.00    +0.000 OA
ATOM     11  H   UNL     1       3.641   1.299  17.094  0.00  0.00    +0.000 HD
ENDBRANCH   1  10
BRANCH   6  12
ATOM     12  C   UNL     1       4.903   3.996  16.202  0.00  0.00    +0.000 C 
BRANCH  12  13
ATOM     13  N   UNL     1       6.347   3.875  16.401  0.00  0.00    +0.000 N 
ATOM     14  H   UNL     1       6.809   3.717  15.508  0.00  0.00    +0.000 HD
BRANCH  13  15
ATOM     15  C   UNL     1       6.943   4.949  17.098  0.00  0.00    +0.000 A 
ATOM     16  C   UNL     1       6.948   6.261  16.602  0.00  0.00    +0.000 A 
ATOM     17  C   UNL     1       7.521   7.314  17.317  0.00  0.00    +0.000 A 
ATOM     18  C   UNL     1       8.063   7.083  18.574  0.00  0.00    +0.000 A 
ATOM     19  C   UNL     1       8.009   5.803  19.121  0.00  0.00    +0.000 A 
ATOM     20  C   UNL     1       7.439   4.749  18.395  0.00  0.00    +0.000 A 
ENDBRANCH  13  15
ENDBRANCH  12  13
ENDBRANCH   6  12
TORSDOF 4
ENDMDL
MODEL 2
REMARK VINA RESULT:      -7.2      0.050      1.132
REMARK  Name = 
REMARK  4 active torsions:
REMARK  status: ('A' for Active; 'I' for Inactive)
REMARK    1  A    between atoms: O_1  and  C_2
REMARK    2  A    between atoms: C_7  and  C_8
REMARK    3  A    between atoms: C_8  and  N_9
REMARK    4  A    between atoms: N_9  and  C_10
REMARK                            x       y       z     vdW  Elec       q    Type
REMARK                         _______ _______ _______ _____ _____    ______ ____
ROOT
ATOM      1  C   UNL     1       3.753   2.878  18.164  0.00  0.00    +0.000 A 
ATOM      2  C   UNL     1       2.901   2.915  19.277  0.00  0.00    +0.000 A 
ATOM      3  C   UNL     1       2.417   4.144  19.685  0.00  0.00    +0.000 A 
ATOM      4  C   UNL     1       2.794   5.306  19.035  0.00  0.00    +0.000 A 
ATOM      5  C   UNL     1       3.652   5.292  17.954  0.00  0.00    +0.000 A 
ATOM      6  C   UNL     1       4.119   4.053  17.480  0.00  0.00    +0.000 A 
ATOM      7  O   UNL     1       2.184   6.436  19.512  0.00  0.00    +0.000 OA
ATOM      8  C   UNL     1       1.505   5.994  20.708  0.00  0.00    +0.000 C 
ATOM      9  C   UNL     1       1.414   4.466  20.721  0.00  0.00    +0.000 C 
ENDROOT
BRANCH   1  10
ATOM     10  O   UNL     1       4.206   1.676  17.693  0.00  0.00    +0.000 OA
ATOM     11  H   UNL     1       3.617   0.972  18.011  0.00  0.00    +0.000 HD
ENDBRANCH   1  10
BRANCH   6  12
ATOM     12  C   UNL     1       4.876   4.018  16.175  0.00  0.00    +0.000 C 
BRANCH  12  13
ATOM     13  N   UNL     1       6.323   3.929  16.374  0.00  0.00    +0.000 N 
ATOM     14  H   UNL     1       6.792   3.840  15.476  0.00  0.00    +0.000 HD
BRANCH  13  15
ATOM     15  C   UNL     1       6.884   4.975  17.139  0.00  0.00    +0.000 A 
ATOM     16  C   UNL     1       7.485   4.760  18.388  0.00  0.00    +0.000 A 
ATOM     17  C   UNL     1       8.057   5.803  19.118  0.00  0.00    +0.000 A 
ATOM     18  C   UNL     1       8.080   7.087  18.588  0.00  0.00    +0.000 A 
ATOM     19  C   UNL     1       7.553   7.316  17.320  0.00  0.00    +0.000 A 
ATOM     20  C   UNL     1       6.975   6.265  16.595  0.00  0.00    +0.000 A 
ENDBRANCH  13  15
ENDBRANCH  12  13
ENDBRANCH   6  12
TORSDOF 4
ENDMDL
MODEL 3
REMARK VINA RESULT:      -7.1      2.085      5.485
REMARK  Name = 
REMARK  4 active torsions:
REMARK  status: ('A' for Active; 'I' for Inactive)
REMARK    1  A    between atoms: O_1  and  C_2
REMARK    2  A    between atoms: C_7  and  C_8
REMARK    3  A    between atoms: C_8  and  N_9
REMARK    4  A    between atoms: N_9  and  C_10
REMARK                            x       y       z     vdW  Elec       q    Type
REMARK                         _______ _______ _______ _____ _____    ______ ____
ROOT
ATOM      1  C   UNL     1       5.763   4.369  18.379  0.00  0.00    +0.000 A 
ATOM      2  C   UNL     1       6.911   5.036  18.829  0.00  0.00    +0.000 A 
ATOM      3  C   UNL     1       7.189   6.282  18.296  0.00  0.00    +0.000 A 
ATOM      4  C   UNL     1       6.377   6.835  17.322  0.00  0.00    +0.000 A 
ATOM      5  C   UNL     1       5.256   6.181  16.850  0.00  0.00    +0.000 A 
ATOM      6  C   UNL     1       4.915   4.937  17.409  0.00  0.00    +0.000 A 
ATOM      7  O   UNL     1       6.743   8.098  16.941  0.00  0.00    +0.000 OA
ATOM      8  C   UNL     1       8.023   8.303  17.576  0.00  0.00    +0.000 C 
ATOM      9  C   UNL     1       8.234   7.256  18.673  0.00  0.00    +0.000 C 
ENDROOT
BRANCH   1  10
ATOM     10  O   UNL     1       5.421   3.161  18.923  0.00  0.00    +0.000 OA
ATOM     11  H   UNL     1       4.791   2.717  18.331  0.00  0.00    +0.000 HD
ENDBRANCH   1  10
BRANCH   6  12
ATOM     12  C   UNL     1       3.583   4.326  17.052  0.00  0.00    +0.000 C 
BRANCH  12  13
ATOM     13  N   UNL     1       2.472   4.961  17.762  0.00  0.00    +0.000 N 
ATOM     14  H   UNL     1       1.689   5.101  17.128  0.00  0.00    +0.000 HD
BRANCH  13  15
ATOM     15  C   UNL     1       2.061   4.296  18.938  0.00  0.00    +0.000 A 
ATOM     16  C   UNL     1       1.336   3.096  18.913  0.00  0.00    +0.000 A 
ATOM     17  C   UNL     1       0.960   2.440  20.086  0.00  0.00    +0.000 A 
ATOM     18  C   UNL     1       1.346   2.950  21.319  0.00  0.00    +0.000 A 
ATOM     19  C   UNL     1       2.127   4.102  21.370  0.00  0.00    +0.000 A 
ATOM     20  C   UNL     1       2.495   4.759  20.189  0.00  0.00    +0.000 A 
ENDBRANCH  13  15
ENDBRANCH  12  13
ENDBRANCH   6  12
TORSDOF 4
ENDMDL
MODEL 4
REMARK VINA RESULT:      -7.1      1.115      2.111
REMARK  Name = 
REMARK  4 active torsions:
REMARK  status: ('A' for Active; 'I' for Inactive)
REMARK    1  A    between atoms: O_1  and  C_2
REMARK    2  A    between atoms: C_7  and  C_8
REMARK    3  A    between atoms: C_8  and  N_9
REMARK    4  A    between atoms: N_9  and  C_10
REMARK                            x       y       z     vdW  Elec       q    Type
REMARK                         _______ _______ _______ _____ _____    ______ ____
ROOT
ATOM      1  C   UNL     1       3.380   5.567  17.708  0.00  0.00    +0.000 A 
ATOM      2  C   UNL     1       2.539   5.645  18.826  0.00  0.00    +0.000 A 
ATOM      3  C   UNL     1       2.153   4.463  19.433  0.00  0.00    +0.000 A 
ATOM      4  C   UNL     1       2.558   3.241  18.928  0.00  0.00    +0.000 A 
ATOM      5  C   UNL     1       3.366   3.145  17.813  0.00  0.00    +0.000 A 
ATOM      6  C   UNL     1       3.820   4.328  17.203  0.00  0.00    +0.000 A 
ATOM      7  O   UNL     1       2.151   2.166  19.672  0.00  0.00    +0.000 OA
ATOM      8  C   UNL     1       1.231   2.728  20.633  0.00  0.00    +0.000 C 
ATOM      9  C   UNL     1       1.397   4.249  20.684  0.00  0.00    +0.000 C 
ENDROOT
BRANCH   1  10
ATOM     10  O   UNL     1       3.831   6.714  17.114  0.00  0.00    +0.000 OA
ATOM     11  H   UNL     1       3.831   7.429  17.772  0.00  0.00    +0.000 HD
ENDBRANCH   1  10
BRANCH   6  12
ATOM     12  C   UNL     1       4.871   4.228  16.126  0.00  0.00    +0.000 C 
BRANCH  12  13
ATOM     13  N   UNL     1       6.190   3.898  16.665  0.00  0.00    +0.000 N 
ATOM     14  H   UNL     1       6.770   3.486  15.937  0.00  0.00    +0.000 HD
BRANCH  13  15
ATOM     15  C   UNL     1       6.858   4.969  17.299  0.00  0.00    +0.000 A 
ATOM     16  C   UNL     1       7.010   6.227  16.698  0.00  0.00    +0.000 A 
ATOM     17  C   UNL     1       7.651   7.281  17.351  0.00  0.00    +0.000 A 
ATOM     18  C   UNL     1       8.116   7.111  18.649  0.00  0.00    +0.000 A 
ATOM     19  C   UNL     1       7.916   5.894  19.295  0.00  0.00    +0.000 A 
ATOM     20  C   UNL     1       7.277   4.838  18.631  0.00  0.00    +0.000 A 
ENDBRANCH  13  15
ENDBRANCH  12  13
ENDBRANCH   6  12
TORSDOF 4
ENDMDL
MODEL 5
REMARK VINA RESULT:      -7.1      2.089      5.501
REMARK  Name = 
REMARK  4 active torsions:
REMARK  status: ('A' for Active; 'I' for Inactive)
REMARK    1  A    between atoms: O_1  and  C_2
REMARK    2  A    between atoms: C_7  and  C_8
REMARK    3  A    between atoms: C_8  and  N_9
REMARK    4  A    between atoms: N_9  and  C_10
REMARK                            x       y       z     vdW  Elec       q    Type
REMARK                         _______ _______ _______ _____ _____    ______ ____
ROOT
ATOM      1  C   UNL     1       5.761   4.392  18.335  0.00  0.00    +0.000 A 
ATOM      2  C   UNL     1       6.911   5.047  18.795  0.00  0.00    +0.000 A 
ATOM      3  C   UNL     1       7.197   6.298  18.277  0.00  0.00    +0.000 A 
ATOM      4  C   UNL     1       6.390   6.866  17.308  0.00  0.00    +0.000 A 
ATOM      5  C   UNL     1       5.268   6.224  16.826  0.00  0.00    +0.000 A 
ATOM      6  C   UNL     1       4.918   4.975  17.369  0.00  0.00    +0.000 A 
ATOM      7  O   UNL     1       6.764   8.131  16.942  0.00  0.00    +0.000 OA
ATOM      8  C   UNL     1       8.044   8.322  17.583  0.00  0.00    +0.000 C 
ATOM      9  C   UNL     1       8.247   7.262  18.668  0.00  0.00    +0.000 C 
ENDROOT
BRANCH   1  10
ATOM     10  O   UNL     1       5.411   3.179  18.864  0.00  0.00    +0.000 OA
ATOM     11  H   UNL     1       5.578   2.488  18.202  0.00  0.00    +0.000 HD
ENDBRANCH   1  10
BRANCH   6  12
ATOM     12  C   UNL     1       3.583   4.376  17.002  0.00  0.00    +0.000 C 
BRANCH  12  13
ATOM     13  N   UNL     1       2.481   4.972  17.756  0.00  0.00    +0.000 N 
ATOM     14  H   UNL     1       1.669   5.088  17.152  0.00  0.00    +0.000 HD
BRANCH  13  15
ATOM     15  C   UNL     1       2.136   4.290  18.944  0.00  0.00    +0.000 A 
ATOM     16  C   UNL     1       2.451   4.786  20.217  0.00  0.00    +0.000 A 
ATOM     17  C   UNL     1       2.080   4.110  21.381  0.00  0.00    +0.000 A 
ATOM     18  C   UNL     1       1.338   2.939  21.295  0.00  0.00    +0.000 A 
ATOM     19  C   UNL     1       0.952   2.462  20.045  0.00  0.00    +0.000 A 
ATOM     20  C   UNL     1       1.333   3.142  18.881  0.00  0.00    +0.000 A 
ENDBRANCH  13  15
ENDBRANCH  12  13
ENDBRANCH   6  12
TORSDOF 4
ENDMDL
MODEL 6
REMARK VINA RESULT:      -7.0      1.107      2.394
REMARK  Name = 
REMARK  4 active torsions:
REMARK  status: ('A' for Active; 'I' for Inactive)
REMARK    1  A    between atoms: O_1  and  C_2
REMARK    2  A    between atoms: C_7  and  C_8
REMARK    3  A    between atoms: C_8  and  N_9
REMARK    4  A    between atoms: N_9  and  C_10
REMARK                            x       y       z     vdW  Elec       q    Type
REMARK                         _______ _______ _______ _____ _____    ______ ____
ROOT
ATOM      1  C   UNL     1       3.336   5.561  17.741  0.00  0.00    +0.000 A 
ATOM      2  C   UNL     1       2.501   5.635  18.864  0.00  0.00    +0.000 A 
ATOM      3  C   UNL     1       2.151   4.454  19.493  0.00  0.00    +0.000 A 
ATOM      4  C   UNL     1       2.585   3.234  19.005  0.00  0.00    +0.000 A 
ATOM      5  C   UNL     1       3.388   3.141  17.885  0.00  0.00    +0.000 A 
ATOM      6  C   UNL     1       3.805   4.326  17.254  0.00  0.00    +0.000 A 
ATOM      7  O   UNL     1       2.212   2.162  19.769  0.00  0.00    +0.000 OA
ATOM      8  C   UNL     1       1.285   2.715  20.728  0.00  0.00    +0.000 C 
ATOM      9  C   UNL     1       1.410   4.241  20.754  0.00  0.00    +0.000 C 
ENDROOT
BRANCH   1  10
ATOM     10  O   UNL     1       3.752   6.710  17.125  0.00  0.00    +0.000 OA
ATOM     11  H   UNL     1       3.681   7.447  17.754  0.00  0.00    +0.000 HD
ENDBRANCH   1  10
BRANCH   6  12
ATOM     12  C   UNL     1       4.851   4.236  16.170  0.00  0.00    +0.000 C 
BRANCH  12  13
ATOM     13  N   UNL     1       6.180   3.937  16.703  0.00  0.00    +0.000 N 
ATOM     14  H   UNL     1       6.774   3.564  15.965  0.00  0.00    +0.000 HD
BRANCH  13  15
ATOM     15  C   UNL     1       6.810   5.011  17.368  0.00  0.00    +0.000 A 
ATOM     16  C   UNL     1       7.401   4.873  18.633  0.00  0.00    +0.000 A 
ATOM     17  C   UNL     1       8.042   5.941  19.264  0.00  0.00    +0.000 A 
ATOM     18  C   UNL     1       8.145   7.166  18.618  0.00  0.00    +0.000 A 
ATOM     19  C   UNL     1       7.628   7.310  17.333  0.00  0.00    +0.000 A 
ATOM     20  C   UNL     1       6.981   6.236  16.708  0.00  0.00    +0.000 A 
ENDBRANCH  13  15
ENDBRANCH  12  13
ENDBRANCH   6  12
TORSDOF 4
ENDMDL
MODEL 7
REMARK VINA RESULT:      -7.0      2.607      3.628
REMARK  Name = 
REMARK  4 active torsions:
REMARK  status: ('A' for Active; 'I' for Inactive)
REMARK    1  A    between atoms: O_1  and  C_2
REMARK    2  A    between atoms: C_7  and  C_8
REMARK    3  A    between atoms: C_8  and  N_9
REMARK    4  A    between atoms: N_9  and  C_10
REMARK                            x       y       z     vdW  Elec       q    Type
REMARK                         _______ _______ _______ _____ _____    ______ ____
ROOT
ATOM      1  C   UNL     1       5.088   3.961  18.622  0.00  0.00    +0.000 A 
ATOM      2  C   UNL     1       4.305   3.162  19.467  0.00  0.00    +0.000 A 
ATOM      3  C   UNL     1       2.966   3.008  19.159  0.00  0.00    +0.000 A 
ATOM      4  C   UNL     1       2.409   3.654  18.069  0.00  0.00    +0.000 A 
ATOM      5  C   UNL     1       3.160   4.464  17.241  0.00  0.00    +0.000 A 
ATOM      6  C   UNL     1       4.536   4.599  17.494  0.00  0.00    +0.000 A 
ATOM      7  O   UNL     1       1.091   3.353  17.855  0.00  0.00    +0.000 OA
ATOM      8  C   UNL     1       0.704   2.603  19.027  0.00  0.00    +0.000 C 
ATOM      9  C   UNL     1       1.950   2.132  19.780  0.00  0.00    +0.000 C 
ENDROOT
BRANCH   1  10
ATOM     10  O   UNL     1       6.429   4.092  18.859  0.00  0.00    +0.000 OA
ATOM     11  H   UNL     1       6.892   3.327  18.478  0.00  0.00    +0.000 HD
ENDBRANCH   1  10
BRANCH   6  12
ATOM     12  C   UNL     1       5.393   5.304  16.472  0.00  0.00    +0.000 C 
BRANCH  12  13
ATOM     13  N   UNL     1       6.495   4.467  15.998  0.00  0.00    +0.000 N 
ATOM     14  H   UNL     1       6.400   3.524  16.371  0.00  0.00    +0.000 HD
BRANCH  13  15
ATOM     15  C   UNL     1       6.664   4.444  14.596  0.00  0.00    +0.000 A 
ATOM     16  C   UNL     1       7.611   5.242  13.937  0.00  0.00    +0.000 A 
ATOM     17  C   UNL     1       7.781   5.187  12.553  0.00  0.00    +0.000 A 
ATOM     18  C   UNL     1       7.034   4.292  11.798  0.00  0.00    +0.000 A 
ATOM     19  C   UNL     1       6.136   3.439  12.435  0.00  0.00    +0.000 A 
ATOM     20  C   UNL     1       5.966   3.504  13.825  0.00  0.00    +0.000 A 
ENDBRANCH  13  15
ENDBRANCH  12  13
ENDBRANCH   6  12
TORSDOF 4
ENDMDL
MODEL 8
REMARK VINA RESULT:      -6.9      2.564      3.715
REMARK  Name = 
REMARK  4 active torsions:
REMARK  status: ('A' for Active; 'I' for Inactive)
REMARK    1  A    between atoms: O_1  and  C_2
REMARK    2  A    between atoms: C_7  and  C_8
REMARK    3  A    between atoms: C_8  and  N_9
REMARK    4  A    between atoms: N_9  and  C_10
REMARK                            x       y       z     vdW  Elec       q    Type
REMARK                         _______ _______ _______ _____ _____    ______ ____
ROOT
ATOM      1  C   UNL     1       5.357   4.274  18.577  0.00  0.00    +0.000 A 
ATOM      2  C   UNL     1       4.584   3.376  19.325  0.00  0.00    +0.000 A 
ATOM      3  C   UNL     1       3.272   3.169  18.939  0.00  0.00    +0.000 A 
ATOM      4  C   UNL     1       2.731   3.857  17.868  0.00  0.00    +0.000 A 
ATOM      5  C   UNL     1       3.470   4.764  17.135  0.00  0.00    +0.000 A 
ATOM      6  C   UNL     1       4.823   4.958  17.467  0.00  0.00    +0.000 A 
ATOM      7  O   UNL     1       1.444   3.499  17.567  0.00  0.00    +0.000 OA
ATOM      8  C   UNL     1       1.047   2.649  18.665  0.00  0.00    +0.000 C 
ATOM      9  C   UNL     1       2.282   2.198  19.448  0.00  0.00    +0.000 C 
ENDROOT
BRANCH   1  10
ATOM     10  O   UNL     1       6.675   4.463  18.890  0.00  0.00    +0.000 OA
ATOM     11  H   UNL     1       7.176   4.608  18.070  0.00  0.00    +0.000 HD
ENDBRANCH   1  10
BRANCH   6  12
ATOM     12  C   UNL     1       5.683   5.778  16.539  0.00  0.00    +0.000 C 
BRANCH  12  13
ATOM     13  N   UNL     1       6.867   5.047  16.087  0.00  0.00    +0.000 N 
ATOM     14  H   UNL     1       7.017   4.231  16.676  0.00  0.00    +0.000 HD
BRANCH  13  15
ATOM     15  C   UNL     1       6.861   4.693  14.720  0.00  0.00    +0.000 A 
ATOM     16  C   UNL     1       5.940   3.784  14.180  0.00  0.00    +0.000 A 
ATOM     17  C   UNL     1       5.933   3.465  12.821  0.00  0.00    +0.000 A 
ATOM     18  C   UNL     1       6.825   4.090  11.959  0.00  0.00    +0.000 A 
ATOM     19  C   UNL     1       7.704   5.048  12.457  0.00  0.00    +0.000 A 
ATOM     20  C   UNL     1       7.710   5.358  13.824  0.00  0.00    +0.000 A 
ENDBRANCH  13  15
ENDBRANCH  12  13
ENDBRANCH   6  12
TORSDOF 4
ENDMDL
MODEL 9
REMARK VINA RESULT:      -6.9      1.982      3.345
REMARK  Name = 
REMARK  4 active torsions:
REMARK  status: ('A' for Active; 'I' for Inactive)
REMARK    1  A    between atoms: O_1  and  C_2
REMARK    2  A    between atoms: C_7  and  C_8
REMARK    3  A    between atoms: C_8  and  N_9
REMARK    4  A    between atoms: N_9  and  C_10
REMARK                            x       y       z     vdW  Elec       q    Type
REMARK                         _______ _______ _______ _____ _____    ______ ____
ROOT
ATOM      1  C   UNL     1       2.217   6.346  19.793  0.00  0.00    +0.000 A 
ATOM      2  C   UNL     1       1.700   5.262  20.514  0.00  0.00    +0.000 A 
ATOM      3  C   UNL     1       1.458   4.083  19.832  0.00  0.00    +0.000 A 
ATOM      4  C   UNL     1       1.687   3.992  18.471  0.00  0.00    +0.000 A 
ATOM      5  C   UNL     1       2.173   5.057  17.740  0.00  0.00    +0.000 A 
ATOM      6  C   UNL     1       2.480   6.253  18.412  0.00  0.00    +0.000 A 
ATOM      7  O   UNL     1       1.463   2.746  17.949  0.00  0.00    +0.000 OA
ATOM      8  C   UNL     1       0.840   2.017  19.029  0.00  0.00    +0.000 C 
ATOM      9  C   UNL     1       1.050   2.761  20.350  0.00  0.00    +0.000 C 
ENDROOT
BRANCH   1  10
ATOM     10  O   UNL     1       2.525   7.511  20.442  0.00  0.00    +0.000 OA
ATOM     11  H   UNL     1       1.906   7.632  21.181  0.00  0.00    +0.000 HD
ENDBRANCH   1  10
BRANCH   6  12
ATOM     12  C   UNL     1       3.210   7.338  17.660  0.00  0.00    +0.000 C 
BRANCH  12  13
ATOM     13  N   UNL     1       4.650   7.319  17.916  0.00  0.00    +0.000 N 
ATOM     14  H   UNL     1       4.825   7.228  18.914  0.00  0.00    +0.000 HD
BRANCH  13  15
ATOM     15  C   UNL     1       5.372   6.351  17.184  0.00  0.00    +0.000 A 
ATOM     16  C   UNL     1       5.195   6.159  15.806  0.00  0.00    +0.000 A 
ATOM     17  C   UNL     1       5.936   5.213  15.095  0.00  0.00    +0.000 A 
ATOM     18  C   UNL     1       6.910   4.466  15.744  0.00  0.00    +0.000 A 
ATOM     19  C   UNL     1       7.154   4.686  17.097  0.00  0.00    +0.000 A 
ATOM     20  C   UNL     1       6.403   5.632  17.806  0.00  0.00    +0.000 A 
ENDBRANCH  13  15
ENDBRANCH  12  13
ENDBRANCH   6  12
TORSDOF 4
ENDMDL
