MODEL 1
REMARK VINA RESULT:      -8.8      0.000      0.000
REMARK  Name = 
REMARK  7 active torsions:
REMARK  status: ('A' for Active; 'I' for Inactive)
REMARK    1  A    between atoms: C_1  and  N_2
REMARK    2  A    between atoms: N_2  and  C_3
REMARK    3  A    between atoms: N_2  and  C_4
REMARK    4  A    between atoms: C_7  and  C_8
REMARK    5  A    between atoms: N_9  and  N_10
REMARK    6  A    between atoms: C_16  and  C_17
REMARK    7  A    between atoms: C_20  and  N_21
REMARK                            x       y       z     vdW  Elec       q    Type
REMARK                         _______ _______ _______ _____ _____    ______ ____
ROOT
ATOM      1  N   UNL     1       8.204   7.681  18.591  0.00  0.00    +0.000 N 
ATOM      2  C   UNL     1       7.587   6.820  17.713  0.00  0.00    +0.000 C 
ATOM      3  N   UNL     1       7.773   6.697  16.442  0.00  0.00    +0.000 NA
ATOM      4  C   UNL     1       6.951   5.762  15.860  0.00  0.00    +0.000 C 
ATOM      5  O   UNL     1       6.975   5.429  14.683  0.00  0.00    +0.000 OA
ATOM      6  C   UNL     1       5.980   5.201  16.844  0.00  0.00    +0.000 C 
ATOM      7  C   UNL     1       4.954   4.415  16.482  0.00  0.00    +0.000 C 
ATOM      8  S   UNL     1       6.358   5.783  18.416  0.00  0.00    +0.000 S 
ATOM      9  H   UNL     1       7.913   7.570  19.560  0.00  0.00    +0.000 HD
ENDROOT
BRANCH   7  10
ATOM     10  C   UNL     1       3.900   3.957  17.385  0.00  0.00    +0.000 A 
ATOM     11  C   UNL     1       4.033   2.718  18.027  0.00  0.00    +0.000 A 
ATOM     12  C   UNL     1       3.053   2.277  18.921  0.00  0.00    +0.000 A 
ATOM     13  C   UNL     1       1.943   3.091  19.180  0.00  0.00    +0.000 A 
ATOM     14  C   UNL     1       1.787   4.315  18.515  0.00  0.00    +0.000 A 
ATOM     15  C   UNL     1       2.766   4.743  17.614  0.00  0.00    +0.000 A 
BRANCH  13  16
ATOM     16  N   UNL     1       0.953   2.674  20.181  0.00  0.00    +0.000 N 
ATOM     17  O   UNL     1      -0.204   2.464  19.794  0.00  0.00    +0.000 OA
ATOM     18  O   UNL     1       1.337   2.546  21.352  0.00  0.00    +0.000 OA
ENDBRANCH  13  16
ENDBRANCH   7  10
BRANCH   1  20
ATOM     19  C   UNL     1       9.158   9.674  19.101  0.00  0.00    +0.000 C 
ATOM     20  N   UNL     1       8.648   8.906  18.190  0.00  0.00    +0.000 NA
BRANCH  19  24
ATOM     21  C   UNL     1      10.471  13.682  18.138  0.00  0.00    +0.000 A 
ATOM     22  C   UNL     1      11.214  12.834  18.976  0.00  0.00    +0.000 A 
ATOM     23  C   UNL     1      10.795  11.537  19.288  0.00  0.00    +0.000 A 
ATOM     24  C   UNL     1       9.606  11.040  18.760  0.00  0.00    +0.000 A 
ATOM     25  C   UNL     1       8.849  11.836  17.908  0.00  0.00    +0.000 A 
ATOM     26  C   UNL     1       9.284  13.138  17.606  0.00  0.00    +0.000 A 
BRANCH  21  28
ATOM     27  C   UNL     1      12.221  15.220  17.290  0.00  0.00    +0.000 C 
ATOM     28  N   UNL     1      10.892  14.975  17.841  0.00  0.00    +0.000 N 
ATOM     29  C   UNL     1      10.157  16.122  18.358  0.00  0.00    +0.000 C 
ENDBRANCH  21  28
ENDBRANCH  19  24
ENDBRANCH   1  20
TORSDOF 5
ENDMDL
MODEL 2
REMARK VINA RESULT:      -8.7      0.589      1.172
REMARK  Name = 
REMARK  7 active torsions:
REMARK  status: ('A' for Active; 'I' for Inactive)
REMARK    1  A    between atoms: C_1  and  N_2
REMARK    2  A    between atoms: N_2  and  C_3
REMARK    3  A    between atoms: N_2  and  C_4
REMARK    4  A    between atoms: C_7  and  C_8
REMARK    5  A    between atoms: N_9  and  N_10
REMARK    6  A    between atoms: C_16  and  C_17
REMARK    7  A    between atoms: C_20  and  N_21
REMARK                            x       y       z     vdW  Elec       q    Type
REMARK                         _______ _______ _______ _____ _____    ______ ____
ROOT
ATOM      1  N   UNL     1       8.229   7.779  18.749  0.00  0.00    +0.000 N 
ATOM      2  C   UNL     1       7.676   6.937  17.812  0.00  0.00    +0.000 C 
ATOM      3  N   UNL     1       7.935   6.857  16.551  0.00  0.00    +0.000 NA
ATOM      4  C   UNL     1       7.162   5.930  15.894  0.00  0.00    +0.000 C 
ATOM      5  O   UNL     1       7.257   5.635  14.711  0.00  0.00    +0.000 OA
ATOM      6  C   UNL     1       6.146   5.324  16.804  0.00  0.00    +0.000 C 
ATOM      7  C   UNL     1       5.154   4.536  16.361  0.00  0.00    +0.000 C 
ATOM      8  S   UNL     1       6.425   5.862  18.412  0.00  0.00    +0.000 S 
ATOM      9  H   UNL     1       7.886   7.633  19.696  0.00  0.00    +0.000 HD
ENDROOT
BRANCH   7  10
ATOM     10  C   UNL     1       4.058   4.036  17.188  0.00  0.00    +0.000 A 
ATOM     11  C   UNL     1       4.100   2.717  17.662  0.00  0.00    +0.000 A 
ATOM     12  C   UNL     1       3.079   2.230  18.484  0.00  0.00    +0.000 A 
ATOM     13  C   UNL     1       2.020   3.075  18.838  0.00  0.00    +0.000 A 
ATOM     14  C   UNL     1       1.955   4.384  18.339  0.00  0.00    +0.000 A 
ATOM     15  C   UNL     1       2.974   4.859  17.509  0.00  0.00    +0.000 A 
BRANCH  13  16
ATOM     16  N   UNL     1       0.989   2.599  19.768  0.00  0.00    +0.000 N 
ATOM     17  O   UNL     1       1.248   2.625  20.979  0.00  0.00    +0.000 OA
ATOM     18  O   UNL     1      -0.085   2.210  19.288  0.00  0.00    +0.000 OA
ENDBRANCH  13  16
ENDBRANCH   7  10
BRANCH   1  20
ATOM     19  C   UNL     1       9.256   9.710  19.344  0.00  0.00    +0.000 C 
ATOM     20  N   UNL     1       8.676   9.022  18.413  0.00  0.00    +0.000 NA
BRANCH  19  24
ATOM     21  C   UNL     1      10.614  13.737  18.531  0.00  0.00    +0.000 A 
ATOM     22  C   UNL     1       9.892  12.989  17.588  0.00  0.00    +0.000 A 
ATOM     23  C   UNL     1       9.449  11.688  17.847  0.00  0.00    +0.000 A 
ATOM     24  C   UNL     1       9.714  11.090  19.076  0.00  0.00    +0.000 A 
ATOM     25  C   UNL     1      10.407  11.802  20.048  0.00  0.00    +0.000 A 
ATOM     26  C   UNL     1      10.847  13.108  19.771  0.00  0.00    +0.000 A 
BRANCH  21  28
ATOM     27  C   UNL     1      11.146  15.515  16.887  0.00  0.00    +0.000 C 
ATOM     28  N   UNL     1      11.059  15.027  18.261  0.00  0.00    +0.000 N 
ATOM     29  C   UNL     1      11.739  15.801  19.292  0.00  0.00    +0.000 C 
ENDBRANCH  21  28
ENDBRANCH  19  24
ENDBRANCH   1  20
TORSDOF 5
ENDMDL
MODEL 3
REMARK VINA RESULT:      -8.7      0.678      1.424
REMARK  Name = 
REMARK  7 active torsions:
REMARK  status: ('A' for Active; 'I' for Inactive)
REMARK    1  A    between atoms: C_1  and  N_2
REMARK    2  A    between atoms: N_2  and  C_3
REMARK    3  A    between atoms: N_2  and  C_4
REMARK    4  A    between atoms: C_7  and  C_8
REMARK    5  A    between atoms: N_9  and  N_10
REMARK    6  A    between atoms: C_16  and  C_17
REMARK    7  A    between atoms: C_20  and  N_21
REMARK                            x       y       z     vdW  Elec       q    Type
REMARK                         _______ _______ _______ _____ _____    ______ ____
ROOT
ATOM      1  N   UNL     1       8.209   7.867  18.717  0.00  0.00    +0.000 N 
ATOM      2  C   UNL     1       7.679   6.970  17.817  0.00  0.00    +0.000 C 
ATOM      3  N   UNL     1       7.953   6.831  16.564  0.00  0.00    +0.000 NA
ATOM      4  C   UNL     1       7.201   5.860  15.948  0.00  0.00    +0.000 C 
ATOM      5  O   UNL     1       7.313   5.507  14.782  0.00  0.00    +0.000 OA
ATOM      6  C   UNL     1       6.185   5.284  16.876  0.00  0.00    +0.000 C 
ATOM      7  C   UNL     1       5.211   4.459  16.464  0.00  0.00    +0.000 C 
ATOM      8  S   UNL     1       6.439   5.906  18.458  0.00  0.00    +0.000 S 
ATOM      9  H   UNL     1       7.858   7.763  19.666  0.00  0.00    +0.000 HD
ENDROOT
BRANCH   7  10
ATOM     10  C   UNL     1       4.114   3.983  17.304  0.00  0.00    +0.000 A 
ATOM     11  C   UNL     1       3.083   4.866  17.656  0.00  0.00    +0.000 A 
ATOM     12  C   UNL     1       2.007   4.422  18.430  0.00  0.00    +0.000 A 
ATOM     13  C   UNL     1       1.962   3.084  18.841  0.00  0.00    +0.000 A 
ATOM     14  C   UNL     1       3.007   2.205  18.522  0.00  0.00    +0.000 A 
ATOM     15  C   UNL     1       4.084   2.660  17.757  0.00  0.00    +0.000 A 
BRANCH  13  16
ATOM     16  N   UNL     1       0.795   2.588  19.581  0.00  0.00    +0.000 N 
ATOM     17  O   UNL     1       0.708   2.879  20.782  0.00  0.00    +0.000 OA
ATOM     18  O   UNL     1      -0.042   1.920  18.957  0.00  0.00    +0.000 OA
ENDBRANCH  13  16
ENDBRANCH   7  10
BRANCH   1  20
ATOM     19  C   UNL     1       9.131   9.870  19.238  0.00  0.00    +0.000 C 
ATOM     20  N   UNL     1       8.640   9.098  18.322  0.00  0.00    +0.000 NA
BRANCH  19  24
ATOM     21  C   UNL     1      10.364  13.901  18.264  0.00  0.00    +0.000 A 
ATOM     22  C   UNL     1       9.729  13.588  19.477  0.00  0.00    +0.000 A 
ATOM     23  C   UNL     1       9.331  12.286  19.797  0.00  0.00    +0.000 A 
ATOM     24  C   UNL     1       9.564  11.243  18.904  0.00  0.00    +0.000 A 
ATOM     25  C   UNL     1      10.209  11.504  17.701  0.00  0.00    +0.000 A 
ATOM     26  C   UNL     1      10.601  12.818  17.393  0.00  0.00    +0.000 A 
BRANCH  21  28
ATOM     27  C   UNL     1       9.757  16.196  17.548  0.00  0.00    +0.000 C 
ATOM     28  N   UNL     1      10.747  15.202  17.950  0.00  0.00    +0.000 N 
ATOM     29  C   UNL     1      12.150  15.516  17.709  0.00  0.00    +0.000 C 
ENDBRANCH  21  28
ENDBRANCH  19  24
ENDBRANCH   1  20
TORSDOF 5
ENDMDL
MODEL 4
REMARK VINA RESULT:      -8.6      0.591      1.223
REMARK  Name = 
REMARK  7 active torsions:
REMARK  status: ('A' for Active; 'I' for Inactive)
REMARK    1  A    between atoms: C_1  and  N_2
REMARK    2  A    between atoms: N_2  and  C_3
REMARK    3  A    between atoms: N_2  and  C_4
REMARK    4  A    between atoms: C_7  and  C_8
REMARK    5  A    between atoms: N_9  and  N_10
REMARK    6  A    between atoms: C_16  and  C_17
REMARK    7  A    between atoms: C_20  and  N_21
REMARK                            x       y       z     vdW  Elec       q    Type
REMARK                         _______ _______ _______ _____ _____    ______ ____
ROOT
ATOM      1  N   UNL     1       8.357   7.833  18.653  0.00  0.00    +0.000 N 
ATOM      2  C   UNL     1       7.662   6.968  17.839  0.00  0.00    +0.000 C 
ATOM      3  N   UNL     1       7.698   6.868  16.554  0.00  0.00    +0.000 NA
ATOM      4  C   UNL     1       6.836   5.919  16.058  0.00  0.00    +0.000 C 
ATOM      5  O   UNL     1       6.727   5.603  14.881  0.00  0.00    +0.000 OA
ATOM      6  C   UNL     1       6.004   5.318  17.141  0.00  0.00    +0.000 C 
ATOM      7  C   UNL     1       4.962   4.510  16.891  0.00  0.00    +0.000 C 
ATOM      8  S   UNL     1       6.552   5.888  18.666  0.00  0.00    +0.000 S 
ATOM      9  H   UNL     1       8.187   7.701  19.647  0.00  0.00    +0.000 HD
ENDROOT
BRANCH   7  10
ATOM     10  C   UNL     1       4.036   4.011  17.905  0.00  0.00    +0.000 A 
ATOM     11  C   UNL     1       4.505   3.141  18.899  0.00  0.00    +0.000 A 
ATOM     12  C   UNL     1       3.644   2.680  19.899  0.00  0.00    +0.000 A 
ATOM     13  C   UNL     1       2.309   3.106  19.905  0.00  0.00    +0.000 A 
ATOM     14  C   UNL     1       1.825   3.948  18.894  0.00  0.00    +0.000 A 
ATOM     15  C   UNL     1       2.691   4.394  17.892  0.00  0.00    +0.000 A 
BRANCH  13  16
ATOM     16  N   UNL     1       1.420   2.695  20.999  0.00  0.00    +0.000 N 
ATOM     17  O   UNL     1       1.936   2.422  22.090  0.00  0.00    +0.000 OA
ATOM     18  O   UNL     1       0.203   2.658  20.768  0.00  0.00    +0.000 OA
ENDBRANCH  13  16
ENDBRANCH   7  10
BRANCH   1  20
ATOM     19  C   UNL     1       9.362   9.824  19.062  0.00  0.00    +0.000 C 
ATOM     20  N   UNL     1       8.720   9.075  18.223  0.00  0.00    +0.000 NA
BRANCH  19  24
ATOM     21  C   UNL     1      10.451  13.861  17.953  0.00  0.00    +0.000 A 
ATOM     22  C   UNL     1       9.200  13.311  17.631  0.00  0.00    +0.000 A 
ATOM     23  C   UNL     1       8.842  12.007  17.990  0.00  0.00    +0.000 A 
ATOM     24  C   UNL     1       9.736  11.205  18.695  0.00  0.00    +0.000 A 
ATOM     25  C   UNL     1      10.978  11.716  19.054  0.00  0.00    +0.000 A 
ATOM     26  C   UNL     1      11.322  13.028  18.683  0.00  0.00    +0.000 A 
BRANCH  21  28
ATOM     27  C   UNL     1      12.187  15.608  17.667  0.00  0.00    +0.000 C 
ATOM     28  N   UNL     1      10.801  15.156  17.582  0.00  0.00    +0.000 N 
ATOM     29  C   UNL     1       9.773  16.173  17.407  0.00  0.00    +0.000 C 
ENDBRANCH  21  28
ENDBRANCH  19  24
ENDBRANCH   1  20
TORSDOF 5
ENDMDL
MODEL 5
REMARK VINA RESULT:      -8.5      0.556      1.278
REMARK  Name = 
REMARK  7 active torsions:
REMARK  status: ('A' for Active; 'I' for Inactive)
REMARK    1  A    between atoms: C_1  and  N_2
REMARK    2  A    between atoms: N_2  and  C_3
REMARK    3  A    between atoms: N_2  and  C_4
REMARK    4  A    between atoms: C_7  and  C_8
REMARK    5  A    between atoms: N_9  and  N_10
REMARK    6  A    between atoms: C_16  and  C_17
REMARK    7  A    between atoms: C_20  and  N_21
REMARK                            x       y       z     vdW  Elec       q    Type
REMARK                         _______ _______ _______ _____ _____    ______ ____
ROOT
ATOM      1  N   UNL     1       8.209   7.980  18.657  0.00  0.00    +0.000 N 
ATOM      2  C   UNL     1       7.659   7.032  17.824  0.00  0.00    +0.000 C 
ATOM      3  N   UNL     1       7.882   6.838  16.569  0.00  0.00    +0.000 NA
ATOM      4  C   UNL     1       7.123   5.826  16.032  0.00  0.00    +0.000 C 
ATOM      5  O   UNL     1       7.192   5.419  14.880  0.00  0.00    +0.000 OA
ATOM      6  C   UNL     1       6.157   5.279  17.030  0.00  0.00    +0.000 C 
ATOM      7  C   UNL     1       5.182   4.420  16.698  0.00  0.00    +0.000 C 
ATOM      8  S   UNL     1       6.466   5.981  18.568  0.00  0.00    +0.000 S 
ATOM      9  H   UNL     1       7.901   7.916  19.625  0.00  0.00    +0.000 HD
ENDROOT
BRANCH   7  10
ATOM     10  C   UNL     1       4.130   3.967  17.607  0.00  0.00    +0.000 A 
ATOM     11  C   UNL     1       2.787   4.189  17.271  0.00  0.00    +0.000 A 
ATOM     12  C   UNL     1       1.765   3.734  18.108  0.00  0.00    +0.000 A 
ATOM     13  C   UNL     1       2.095   3.043  19.281  0.00  0.00    +0.000 A 
ATOM     14  C   UNL     1       3.436   2.848  19.641  0.00  0.00    +0.000 A 
ATOM     15  C   UNL     1       4.451   3.317  18.802  0.00  0.00    +0.000 A 
BRANCH  13  16
ATOM     16  N   UNL     1       1.028   2.487  20.123  0.00  0.00    +0.000 N 
ATOM     17  O   UNL     1      -0.053   2.219  19.581  0.00  0.00    +0.000 OA
ATOM     18  O   UNL     1       1.276   2.306  21.323  0.00  0.00    +0.000 OA
ENDBRANCH  13  16
ENDBRANCH   7  10
BRANCH   1  20
ATOM     19  C   UNL     1       9.346   9.917  18.965  0.00  0.00    +0.000 C 
ATOM     20  N   UNL     1       8.601   9.198  18.186  0.00  0.00    +0.000 NA
BRANCH  19  24
ATOM     21  C   UNL     1      10.543  13.887  17.733  0.00  0.00    +0.000 A 
ATOM     22  C   UNL     1       9.196  13.541  17.927  0.00  0.00    +0.000 A 
ATOM     23  C   UNL     1       8.805  12.259  18.327  0.00  0.00    +0.000 A 
ATOM     24  C   UNL     1       9.762  11.274  18.554  0.00  0.00    +0.000 A 
ATOM     25  C   UNL     1      11.109  11.579  18.396  0.00  0.00    +0.000 A 
ATOM     26  C   UNL     1      11.486  12.871  17.990  0.00  0.00    +0.000 A 
BRANCH  21  28
ATOM     27  C   UNL     1      12.333  15.513  17.183  0.00  0.00    +0.000 C 
ATOM     28  N   UNL     1      10.923  15.163  17.325  0.00  0.00    +0.000 N 
ATOM     29  C   UNL     1       9.957  16.254  17.335  0.00  0.00    +0.000 C 
ENDBRANCH  21  28
ENDBRANCH  19  24
ENDBRANCH   1  20
TORSDOF 5
ENDMDL
MODEL 6
REMARK VINA RESULT:      -8.1      0.863      1.567
REMARK  Name = 
REMARK  7 active torsions:
REMARK  status: ('A' for Active; 'I' for Inactive)
REMARK    1  A    between atoms: C_1  and  N_2
REMARK    2  A    between atoms: N_2  and  C_3
REMARK    3  A    between atoms: N_2  and  C_4
REMARK    4  A    between atoms: C_7  and  C_8
REMARK    5  A    between atoms: N_9  and  N_10
REMARK    6  A    between atoms: C_16  and  C_17
REMARK    7  A    between atoms: C_20  and  N_21
REMARK                            x       y       z     vdW  Elec       q    Type
REMARK                         _______ _______ _______ _____ _____    ______ ____
ROOT
ATOM      1  N   UNL     1       8.507   7.876  18.798  0.00  0.00    +0.000 N 
ATOM      2  C   UNL     1       7.772   7.054  17.975  0.00  0.00    +0.000 C 
ATOM      3  N   UNL     1       7.759   7.011  16.686  0.00  0.00    +0.000 NA
ATOM      4  C   UNL     1       6.869   6.094  16.181  0.00  0.00    +0.000 C 
ATOM      5  O   UNL     1       6.714   5.831  14.997  0.00  0.00    +0.000 OA
ATOM      6  C   UNL     1       6.071   5.453  17.267  0.00  0.00    +0.000 C 
ATOM      7  C   UNL     1       5.012   4.667  17.021  0.00  0.00    +0.000 C 
ATOM      8  S   UNL     1       6.681   5.950  18.795  0.00  0.00    +0.000 S 
ATOM      9  H   UNL     1       8.372   7.702  19.792  0.00  0.00    +0.000 HD
ENDROOT
BRANCH   7  10
ATOM     10  C   UNL     1       4.117   4.133  18.046  0.00  0.00    +0.000 A 
ATOM     11  C   UNL     1       3.448   5.017  18.904  0.00  0.00    +0.000 A 
ATOM     12  C   UNL     1       2.561   4.530  19.868  0.00  0.00    +0.000 A 
ATOM     13  C   UNL     1       2.339   3.150  19.962  0.00  0.00    +0.000 A 
ATOM     14  C   UNL     1       3.031   2.258  19.131  0.00  0.00    +0.000 A 
ATOM     15  C   UNL     1       3.924   2.754  18.176  0.00  0.00    +0.000 A 
BRANCH  13  16
ATOM     16  N   UNL     1       1.346   2.636  20.914  0.00  0.00    +0.000 N 
ATOM     17  O   UNL     1       1.741   2.317  22.043  0.00  0.00    +0.000 OA
ATOM     18  O   UNL     1       0.168   2.565  20.535  0.00  0.00    +0.000 OA
ENDBRANCH  13  16
ENDBRANCH   7  10
BRANCH   1  20
ATOM     19  C   UNL     1       9.188   9.968  19.346  0.00  0.00    +0.000 C 
ATOM     20  N   UNL     1       8.867   9.132  18.410  0.00  0.00    +0.000 NA
BRANCH  19  24
ATOM     21  C   UNL     1      10.225  14.051  18.360  0.00  0.00    +0.000 A 
ATOM     22  C   UNL     1      10.319  13.010  17.422  0.00  0.00    +0.000 A 
ATOM     23  C   UNL     1       9.983  11.689  17.736  0.00  0.00    +0.000 A 
ATOM     24  C   UNL     1       9.531  11.366  19.013  0.00  0.00    +0.000 A 
ATOM     25  C   UNL     1       9.401  12.369  19.967  0.00  0.00    +0.000 A 
ATOM     26  C   UNL     1       9.746  13.691  19.637  0.00  0.00    +0.000 A 
BRANCH  21  28
ATOM     27  C   UNL     1       9.969  16.486  18.751  0.00  0.00    +0.000 C 
ATOM     28  N   UNL     1      10.572  15.361  18.042  0.00  0.00    +0.000 N 
ATOM     29  C   UNL     1      11.289  15.651  16.807  0.00  0.00    +0.000 C 
ENDBRANCH  21  28
ENDBRANCH  19  24
ENDBRANCH   1  20
TORSDOF 5
ENDMDL
MODEL 7
REMARK VINA RESULT:      -8.0      1.188      1.555
REMARK  Name = 
REMARK  7 active torsions:
REMARK  status: ('A' for Active; 'I' for Inactive)
REMARK    1  A    between atoms: C_1  and  N_2
REMARK    2  A    between atoms: N_2  and  C_3
REMARK    3  A    between atoms: N_2  and  C_4
REMARK    4  A    between atoms: C_7  and  C_8
REMARK    5  A    between atoms: N_9  and  N_10
REMARK    6  A    between atoms: C_16  and  C_17
REMARK    7  A    between atoms: C_20  and  N_21
REMARK                            x       y       z     vdW  Elec       q    Type
REMARK                         _______ _______ _______ _____ _____    ______ ____
ROOT
ATOM      1  N   UNL     1       8.330   7.806  18.561  0.00  0.00    +0.000 N 
ATOM      2  C   UNL     1       7.356   7.151  17.843  0.00  0.00    +0.000 C 
ATOM      3  N   UNL     1       6.991   7.342  16.620  0.00  0.00    +0.000 NA
ATOM      4  C   UNL     1       5.949   6.536  16.231  0.00  0.00    +0.000 C 
ATOM      5  O   UNL     1       5.463   6.494  15.109  0.00  0.00    +0.000 OA
ATOM      6  C   UNL     1       5.441   5.713  17.367  0.00  0.00    +0.000 C 
ATOM      7  C   UNL     1       4.313   4.990  17.291  0.00  0.00    +0.000 C 
ATOM      8  S   UNL     1       6.469   5.921  18.728  0.00  0.00    +0.000 S 
ATOM      9  H   UNL     1       8.460   7.455  19.507  0.00  0.00    +0.000 HD
ENDROOT
BRANCH   7  10
ATOM     10  C   UNL     1       3.703   4.283  18.415  0.00  0.00    +0.000 A 
ATOM     11  C   UNL     1       4.361   3.179  18.975  0.00  0.00    +0.000 A 
ATOM     12  C   UNL     1       3.812   2.511  20.073  0.00  0.00    +0.000 A 
ATOM     13  C   UNL     1       2.602   2.961  20.616  0.00  0.00    +0.000 A 
ATOM     14  C   UNL     1       1.921   4.042  20.040  0.00  0.00    +0.000 A 
ATOM     15  C   UNL     1       2.473   4.698  18.935  0.00  0.00    +0.000 A 
BRANCH  13  16
ATOM     16  N   UNL     1       2.062   2.319  21.820  0.00  0.00    +0.000 N 
ATOM     17  O   UNL     1       0.906   2.608  22.158  0.00  0.00    +0.000 OA
ATOM     18  O   UNL     1       2.789   1.514  22.420  0.00  0.00    +0.000 OA
ENDBRANCH  13  16
ENDBRANCH   7  10
BRANCH   1  20
ATOM     19  C   UNL     1       9.260   9.756  19.247  0.00  0.00    +0.000 C 
ATOM     20  N   UNL     1       8.639   9.110  18.311  0.00  0.00    +0.000 NA
BRANCH  19  24
ATOM     21  C   UNL     1      10.214  13.944  18.732  0.00  0.00    +0.000 A 
ATOM     22  C   UNL     1       9.817  13.133  17.657  0.00  0.00    +0.000 A 
ATOM     23  C   UNL     1       9.505  11.778  17.819  0.00  0.00    +0.000 A 
ATOM     24  C   UNL     1       9.577  11.190  19.079  0.00  0.00    +0.000 A 
ATOM     25  C   UNL     1       9.945  11.961  20.176  0.00  0.00    +0.000 A 
ATOM     26  C   UNL     1      10.257  13.320  19.995  0.00  0.00    +0.000 A 
BRANCH  21  28
ATOM     27  C   UNL     1       9.766  16.125  17.639  0.00  0.00    +0.000 C 
ATOM     28  N   UNL     1      10.531  15.288  18.559  0.00  0.00    +0.000 N 
ATOM     29  C   UNL     1      11.805  15.809  19.038  0.00  0.00    +0.000 C 
ENDBRANCH  21  28
ENDBRANCH  19  24
ENDBRANCH   1  20
TORSDOF 5
ENDMDL
MODEL 8
REMARK VINA RESULT:      -7.7      8.104     10.472
REMARK  Name = 
REMARK  7 active torsions:
REMARK  status: ('A' for Active; 'I' for Inactive)
REMARK    1  A    between atoms: C_1  and  N_2
REMARK    2  A    between atoms: N_2  and  C_3
REMARK    3  A    between atoms: N_2  and  C_4
REMARK    4  A    between atoms: C_7  and  C_8
REMARK    5  A    between atoms: N_9  and  N_10
REMARK    6  A    between atoms: C_16  and  C_17
REMARK    7  A    between atoms: C_20  and  N_21
REMARK                            x       y       z     vdW  Elec       q    Type
REMARK                         _______ _______ _______ _____ _____    ______ ____
ROOT
ATOM      1  N   UNL     1       0.147   9.968  21.750  0.00  0.00    +0.000 N 
ATOM      2  C   UNL     1       0.804   9.653  20.583  0.00  0.00    +0.000 C 
ATOM      3  N   UNL     1       0.831  10.309  19.473  0.00  0.00    +0.000 NA
ATOM      4  C   UNL     1       1.555   9.682  18.488  0.00  0.00    +0.000 C 
ATOM      5  O   UNL     1       1.771  10.129  17.370  0.00  0.00    +0.000 OA
ATOM      6  C   UNL     1       2.042   8.344  18.935  0.00  0.00    +0.000 C 
ATOM      7  C   UNL     1       2.608   7.461  18.098  0.00  0.00    +0.000 C 
ATOM      8  S   UNL     1       1.687   8.135  20.603  0.00  0.00    +0.000 S 
ATOM      9  H   UNL     1       0.303   9.308  22.509  0.00  0.00    +0.000 HD
ENDROOT
BRANCH   7  10
ATOM     10  C   UNL     1       2.970   6.092  18.456  0.00  0.00    +0.000 A 
ATOM     11  C   UNL     1       2.041   5.060  18.260  0.00  0.00    +0.000 A 
ATOM     12  C   UNL     1       2.380   3.738  18.563  0.00  0.00    +0.000 A 
ATOM     13  C   UNL     1       3.660   3.452  19.054  0.00  0.00    +0.000 A 
ATOM     14  C   UNL     1       4.581   4.483  19.286  0.00  0.00    +0.000 A 
ATOM     15  C   UNL     1       4.230   5.804  18.990  0.00  0.00    +0.000 A 
BRANCH  13  16
ATOM     16  N   UNL     1       4.053   2.058  19.295  0.00  0.00    +0.000 N 
ATOM     17  O   UNL     1       4.832   1.832  20.231  0.00  0.00    +0.000 OA
ATOM     18  O   UNL     1       3.571   1.188  18.555  0.00  0.00    +0.000 OA
ENDBRANCH  13  16
ENDBRANCH   7  10
BRANCH   1  20
ATOM     19  C   UNL     1      -1.327  11.316  22.821  0.00  0.00    +0.000 C 
ATOM     20  N   UNL     1      -1.020  10.672  21.741  0.00  0.00    +0.000 NA
BRANCH  19  24
ATOM     21  C   UNL     1      -5.084  13.443  23.103  0.00  0.00    +0.000 A 
ATOM     22  C   UNL     1      -4.501  12.810  24.212  0.00  0.00    +0.000 A 
ATOM     23  C   UNL     1      -3.285  12.123  24.126  0.00  0.00    +0.000 A 
ATOM     24  C   UNL     1      -2.605  12.053  22.913  0.00  0.00    +0.000 A 
ATOM     25  C   UNL     1      -3.135  12.685  21.794  0.00  0.00    +0.000 A 
ATOM     26  C   UNL     1      -4.358  13.369  21.896  0.00  0.00    +0.000 A 
BRANCH  21  28
ATOM     27  C   UNL     1      -6.342  15.541  23.508  0.00  0.00    +0.000 C 
ATOM     28  N   UNL     1      -6.299  14.116  23.195  0.00  0.00    +0.000 N 
ATOM     29  C   UNL     1      -7.546  13.368  23.296  0.00  0.00    +0.000 C 
ENDBRANCH  21  28
ENDBRANCH  19  24
ENDBRANCH   1  20
TORSDOF 5
ENDMDL
MODEL 9
REMARK VINA RESULT:      -7.7      7.960     10.244
REMARK  Name = 
REMARK  7 active torsions:
REMARK  status: ('A' for Active; 'I' for Inactive)
REMARK    1  A    between atoms: C_1  and  N_2
REMARK    2  A    between atoms: N_2  and  C_3
REMARK    3  A    between atoms: N_2  and  C_4
REMARK    4  A    between atoms: C_7  and  C_8
REMARK    5  A    between atoms: N_9  and  N_10
REMARK    6  A    between atoms: C_16  and  C_17
REMARK    7  A    between atoms: C_20  and  N_21
REMARK                            x       y       z     vdW  Elec       q    Type
REMARK                         _______ _______ _______ _____ _____    ______ ____
ROOT
ATOM      1  N   UNL     1       0.147   9.631  21.714  0.00  0.00    +0.000 N 
ATOM      2  C   UNL     1       0.836   9.394  20.547  0.00  0.00    +0.000 C 
ATOM      3  N   UNL     1       0.880  10.115  19.478  0.00  0.00    +0.000 NA
ATOM      4  C   UNL     1       1.635   9.557  18.476  0.00  0.00    +0.000 C 
ATOM      5  O   UNL     1       1.872  10.072  17.392  0.00  0.00    +0.000 OA
ATOM      6  C   UNL     1       2.129   8.201  18.856  0.00  0.00    +0.000 C 
ATOM      7  C   UNL     1       2.727   7.376  17.982  0.00  0.00    +0.000 C 
ATOM      8  S   UNL     1       1.738   7.889  20.499  0.00  0.00    +0.000 S 
ATOM      9  H   UNL     1       0.293   8.930  22.437  0.00  0.00    +0.000 HD
ENDROOT
BRANCH   7  10
ATOM     10  C   UNL     1       3.099   5.992  18.268  0.00  0.00    +0.000 A 
ATOM     11  C   UNL     1       4.369   5.715  18.795  0.00  0.00    +0.000 A 
ATOM     12  C   UNL     1       4.732   4.402  19.109  0.00  0.00    +0.000 A 
ATOM     13  C   UNL     1       3.812   3.367  18.901  0.00  0.00    +0.000 A 
ATOM     14  C   UNL     1       2.554   3.632  18.342  0.00  0.00    +0.000 A 
ATOM     15  C   UNL     1       2.204   4.947  18.021  0.00  0.00    +0.000 A 
BRANCH  13  16
ATOM     16  N   UNL     1       4.154   1.998  19.306  0.00  0.00    +0.000 N 
ATOM     17  O   UNL     1       4.889   1.855  20.293  0.00  0.00    +0.000 OA
ATOM     18  O   UNL     1       3.677   1.065  18.645  0.00  0.00    +0.000 OA
ENDBRANCH  13  16
ENDBRANCH   7  10
BRANCH   1  20
ATOM     19  C   UNL     1      -1.105  11.351  22.498  0.00  0.00    +0.000 C 
ATOM     20  N   UNL     1      -1.030  10.320  21.717  0.00  0.00    +0.000 NA
BRANCH  19  24
ATOM     21  C   UNL     1      -4.813  13.556  22.823  0.00  0.00    +0.000 A 
ATOM     22  C   UNL     1      -4.280  12.831  23.901  0.00  0.00    +0.000 A 
ATOM     23  C   UNL     1      -3.081  12.118  23.801  0.00  0.00    +0.000 A 
ATOM     24  C   UNL     1      -2.366  12.114  22.605  0.00  0.00    +0.000 A 
ATOM     25  C   UNL     1      -2.846  12.837  21.519  0.00  0.00    +0.000 A 
ATOM     26  C   UNL     1      -4.054  13.546  21.635  0.00  0.00    +0.000 A 
BRANCH  21  28
ATOM     27  C   UNL     1      -7.278  13.624  22.562  0.00  0.00    +0.000 C 
ATOM     28  N   UNL     1      -6.013  14.253  22.929  0.00  0.00    +0.000 N 
ATOM     29  C   UNL     1      -6.008  15.701  23.101  0.00  0.00    +0.000 C 
ENDBRANCH  21  28
ENDBRANCH  19  24
ENDBRANCH   1  20
TORSDOF 5
ENDMDL
